MODEL 1
REMARK VINA RESULT:      -7.6      0.000      0.000
REMARK  Name = 
REMARK  4 active torsions:
REMARK  status: ('A' for Active; 'I' for Inactive)
REMARK    1  A    between atoms: C_1  and  C_2
REMARK    2  A    between atoms: C_2  and  N_3
REMARK    3  A    between atoms: C_2  and  C_14
REMARK    4  A    between atoms: N_3  and  C_4
REMARK                            x       y       z     vdW  Elec       q    Type
REMARK                         _______ _______ _______ _____ _____    ______ ____
ROOT
ATOM      1  N   UNL     1       4.201   4.688  17.995  0.00  0.00    +0.000 NA
ATOM      2  H   UNL     1       3.918   5.237  18.811  0.00  0.00    +0.000 HD
ENDROOT
BRANCH   1   3
ATOM      3  C   UNL     1       5.666   4.657  17.776  0.00  0.00    +0.000 C 
ATOM      4  C   UNL     1       6.306   5.923  18.430  0.00  0.00    +0.000 C 
ATOM      5  C   UNL     1       7.810   6.134  18.615  0.00  0.00    +0.000 C 
ATOM      6  C   UNL     1       7.968   7.564  18.109  0.00  0.00    +0.000 C 
ATOM      7  O   UNL     1       7.229   7.547  16.880  0.00  0.00    +0.000 OA
ATOM      8  C   UNL     1       6.093   6.681  17.079  0.00  0.00    +0.000 C 
ATOM      9  C   UNL     1       6.007   5.311  16.432  0.00  0.00    +0.000 C 
ATOM     10  C   UNL     1       5.181   5.077  15.182  0.00  0.00    +0.000 C 
ATOM     11  C   UNL     1       6.197   3.952  14.847  0.00  0.00    +0.000 C 
ATOM     12  C   UNL     1       7.221   4.738  15.701  0.00  0.00    +0.000 C 
ENDBRANCH   1   3
BRANCH   1  14
ATOM     13  C   UNL     1       2.712   2.938  16.971  0.00  0.00    +0.000 C 
ATOM     14  C   UNL     1       3.603   3.342  18.149  0.00  0.00    +0.000 C 
BRANCH  14  15
ATOM     15  C   UNL     1       2.870   3.206  19.477  0.00  0.00    +0.000 A 
ATOM     16  C   UNL     1       3.495   2.691  20.613  0.00  0.00    +0.000 A 
ATOM     17  N   UNL     1       2.840   2.461  21.775  0.00  0.00    +0.000 NA
ATOM     18  C   UNL     1       1.530   2.775  21.772  0.00  0.00    +0.000 A 
ATOM     19  C   UNL     1       0.899   3.313  20.665  0.00  0.00    +0.000 A 
ATOM     20  N   UNL     1       1.549   3.535  19.498  0.00  0.00    +0.000 NA
ENDBRANCH  14  15
ENDBRANCH   1  14
TORSDOF 3
ENDMDL
MODEL 2
REMARK VINA RESULT:      -7.6      1.445      2.627
REMARK  Name = 
REMARK  4 active torsions:
REMARK  status: ('A' for Active; 'I' for Inactive)
REMARK    1  A    between atoms: C_1  and  C_2
REMARK    2  A    between atoms: C_2  and  N_3
REMARK    3  A    between atoms: C_2  and  C_14
REMARK    4  A    between atoms: N_3  and  C_4
REMARK                            x       y       z     vdW  Elec       q    Type
REMARK                         _______ _______ _______ _____ _____    ______ ____
ROOT
ATOM      1  N   UNL     1       4.954   3.239  17.721  0.00  0.00    +0.000 NA
ATOM      2  H   UNL     1       5.672   2.518  17.607  0.00  0.00    +0.000 HD
ENDROOT
BRANCH   1   3
ATOM      3  C   UNL     1       4.773   4.093  16.524  0.00  0.00    +0.000 C 
ATOM      4  C   UNL     1       5.895   3.765  15.488  0.00  0.00    +0.000 C 
ATOM      5  C   UNL     1       5.914   4.270  14.044  0.00  0.00    +0.000 C 
ATOM      6  C   UNL     1       7.355   4.757  13.924  0.00  0.00    +0.000 C 
ATOM      7  O   UNL     1       7.529   5.522  15.124  0.00  0.00    +0.000 OA
ATOM      8  C   UNL     1       6.786   4.857  16.165  0.00  0.00    +0.000 C 
ATOM      9  C   UNL     1       5.496   5.430  16.722  0.00  0.00    +0.000 C 
ATOM     10  C   UNL     1       5.469   6.182  18.039  0.00  0.00    +0.000 C 
ATOM     11  C   UNL     1       4.267   6.966  17.446  0.00  0.00    +0.000 C 
ATOM     12  C   UNL     1       4.852   6.643  16.051  0.00  0.00    +0.000 C 
ENDBRANCH   1   3
BRANCH   1  14
ATOM     13  C   UNL     1       2.608   2.596  17.084  0.00  0.00    +0.000 C 
ATOM     14  C   UNL     1       3.712   2.552  18.143  0.00  0.00    +0.000 C 
BRANCH  14  15
ATOM     15  C   UNL     1       3.219   3.068  19.488  0.00  0.00    +0.000 A 
ATOM     16  C   UNL     1       3.304   2.298  20.648  0.00  0.00    +0.000 A 
ATOM     17  N   UNL     1       2.779   2.688  21.833  0.00  0.00    +0.000 NA
ATOM     18  C   UNL     1       2.170   3.890  21.827  0.00  0.00    +0.000 A 
ATOM     19  C   UNL     1       2.101   4.681  20.695  0.00  0.00    +0.000 A 
ATOM     20  N   UNL     1       2.616   4.289  19.506  0.00  0.00    +0.000 NA
ENDBRANCH  14  15
ENDBRANCH   1  14
TORSDOF 3
ENDMDL
MODEL 3
REMARK VINA RESULT:      -7.5      2.726      6.188
REMARK  Name = 
REMARK  4 active torsions:
REMARK  status: ('A' for Active; 'I' for Inactive)
REMARK    1  A    between atoms: C_1  and  C_2
REMARK    2  A    between atoms: C_2  and  N_3
REMARK    3  A    between atoms: C_2  and  C_14
REMARK    4  A    between atoms: N_3  and  C_4
REMARK                            x       y       z     vdW  Elec       q    Type
REMARK                         _______ _______ _______ _____ _____    ______ ____
ROOT
ATOM      1  N   UNL     1       4.763   3.657  18.408  0.00  0.00    +0.000 NA
ATOM      2  H   UNL     1       4.898   2.643  18.450  0.00  0.00    +0.000 HD
ENDROOT
BRANCH   1   3
ATOM      3  C   UNL     1       4.043   4.212  19.577  0.00  0.00    +0.000 C 
ATOM      4  C   UNL     1       3.203   3.076  20.245  0.00  0.00    +0.000 C 
ATOM      5  C   UNL     1       2.509   3.198  21.603  0.00  0.00    +0.000 C 
ATOM      6  C   UNL     1       1.130   2.634  21.276  0.00  0.00    +0.000 C 
ATOM      7  O   UNL     1       0.795   3.307  20.056  0.00  0.00    +0.000 OA
ATOM      8  C   UNL     1       2.015   3.453  19.301  0.00  0.00    +0.000 C 
ATOM      9  C   UNL     1       2.698   4.797  19.133  0.00  0.00    +0.000 C 
ATOM     10  C   UNL     1       2.545   5.607  17.860  0.00  0.00    +0.000 C 
ATOM     11  C   UNL     1       2.749   6.859  18.757  0.00  0.00    +0.000 C 
ATOM     12  C   UNL     1       2.202   6.006  19.927  0.00  0.00    +0.000 C 
ENDBRANCH   1   3
BRANCH   1  14
ATOM     13  C   UNL     1       6.283   5.585  18.951  0.00  0.00    +0.000 C 
ATOM     14  C   UNL     1       6.098   4.264  18.199  0.00  0.00    +0.000 C 
BRANCH  14  15
ATOM     15  C   UNL     1       6.417   4.413  16.718  0.00  0.00    +0.000 A 
ATOM     16  C   UNL     1       7.334   5.356  16.254  0.00  0.00    +0.000 A 
ATOM     17  N   UNL     1       7.559   5.583  14.938  0.00  0.00    +0.000 NA
ATOM     18  C   UNL     1       6.839   4.822  14.091  0.00  0.00    +0.000 A 
ATOM     19  C   UNL     1       5.945   3.862  14.531  0.00  0.00    +0.000 A 
ATOM     20  N   UNL     1       5.711   3.641  15.846  0.00  0.00    +0.000 NA
ENDBRANCH  14  15
ENDBRANCH   1  14
TORSDOF 3
ENDMDL
MODEL 4
REMARK VINA RESULT:      -7.3      0.650      1.109
REMARK  Name = 
REMARK  4 active torsions:
REMARK  status: ('A' for Active; 'I' for Inactive)
REMARK    1  A    between atoms: C_1  and  C_2
REMARK    2  A    between atoms: C_2  and  N_3
REMARK    3  A    between atoms: C_2  and  C_14
REMARK    4  A    between atoms: N_3  and  C_4
REMARK                            x       y       z     vdW  Elec       q    Type
REMARK                         _______ _______ _______ _____ _____    ______ ____
ROOT
ATOM      1  N   UNL     1       4.200   4.719  17.858  0.00  0.00    +0.000 NA
ATOM      2  H   UNL     1       3.899   5.258  18.676  0.00  0.00    +0.000 HD
ENDROOT
BRANCH   1   3
ATOM      3  C   UNL     1       5.670   4.682  17.677  0.00  0.00    +0.000 C 
ATOM      4  C   UNL     1       6.301   5.929  18.376  0.00  0.00    +0.000 C 
ATOM      5  C   UNL     1       7.801   6.124  18.604  0.00  0.00    +0.000 C 
ATOM      6  C   UNL     1       7.982   7.564  18.134  0.00  0.00    +0.000 C 
ATOM      7  O   UNL     1       7.276   7.579  16.887  0.00  0.00    +0.000 OA
ATOM      8  C   UNL     1       6.129   6.718  17.036  0.00  0.00    +0.000 C 
ATOM      9  C   UNL     1       6.051   5.363  16.358  0.00  0.00    +0.000 C 
ATOM     10  C   UNL     1       5.256   5.163  15.081  0.00  0.00    +0.000 C 
ATOM     11  C   UNL     1       6.273   4.038  14.748  0.00  0.00    +0.000 C 
ATOM     12  C   UNL     1       7.279   4.797  15.646  0.00  0.00    +0.000 C 
ENDBRANCH   1   3
BRANCH   1  14
ATOM     13  C   UNL     1       2.725   2.998  16.770  0.00  0.00    +0.000 C 
ATOM     14  C   UNL     1       3.590   3.375  17.975  0.00  0.00    +0.000 C 
BRANCH  14  15
ATOM     15  C   UNL     1       2.825   3.222  19.283  0.00  0.00    +0.000 A 
ATOM     16  C   UNL     1       1.557   3.774  19.463  0.00  0.00    +0.000 A 
ATOM     17  N   UNL     1       0.900   3.746  20.646  0.00  0.00    +0.000 NA
ATOM     18  C   UNL     1       1.551   3.130  21.653  0.00  0.00    +0.000 A 
ATOM     19  C   UNL     1       2.796   2.551  21.487  0.00  0.00    +0.000 A 
ATOM     20  N   UNL     1       3.460   2.588  20.308  0.00  0.00    +0.000 NA
ENDBRANCH  14  15
ENDBRANCH   1  14
TORSDOF 3
ENDMDL
MODEL 5
REMARK VINA RESULT:      -7.2      1.687      2.976
REMARK  Name = 
REMARK  4 active torsions:
REMARK  status: ('A' for Active; 'I' for Inactive)
REMARK    1  A    between atoms: C_1  and  C_2
REMARK    2  A    between atoms: C_2  and  N_3
REMARK    3  A    between atoms: C_2  and  C_14
REMARK    4  A    between atoms: N_3  and  C_4
REMARK                            x       y       z     vdW  Elec       q    Type
REMARK                         _______ _______ _______ _____ _____    ______ ____
ROOT
ATOM      1  N   UNL     1       4.512   5.637  18.996  0.00  0.00    +0.000 NA
ATOM      2  H   UNL     1       4.766   4.662  19.179  0.00  0.00    +0.000 HD
ENDROOT
BRANCH   1   3
ATOM      3  C   UNL     1       5.173   6.211  17.801  0.00  0.00    +0.000 C 
ATOM      4  C   UNL     1       4.957   5.250  16.588  0.00  0.00    +0.000 C 
ATOM      5  C   UNL     1       5.290   5.602  15.137  0.00  0.00    +0.000 C 
ATOM      6  C   UNL     1       6.035   4.345  14.696  0.00  0.00    +0.000 C 
ATOM      7  O   UNL     1       6.950   4.125  15.778  0.00  0.00    +0.000 OA
ATOM      8  C   UNL     1       6.273   4.507  16.993  0.00  0.00    +0.000 C 
ATOM      9  C   UNL     1       6.640   5.768  17.753  0.00  0.00    +0.000 C 
ATOM     10  C   UNL     1       7.515   5.718  18.990  0.00  0.00    +0.000 C 
ATOM     11  C   UNL     1       7.975   7.148  18.595  0.00  0.00    +0.000 C 
ATOM     12  C   UNL     1       7.618   6.768  17.138  0.00  0.00    +0.000 C 
ENDBRANCH   1   3
BRANCH   1  14
ATOM     13  C   UNL     1       2.467   7.070  19.298  0.00  0.00    +0.000 C 
ATOM     14  C   UNL     1       3.033   5.695  18.932  0.00  0.00    +0.000 C 
BRANCH  14  15
ATOM     15  C   UNL     1       2.396   4.588  19.761  0.00  0.00    +0.000 A 
ATOM     16  C   UNL     1       2.567   4.512  21.143  0.00  0.00    +0.000 A 
ATOM     17  N   UNL     1       2.102   3.483  21.889  0.00  0.00    +0.000 NA
ATOM     18  C   UNL     1       1.442   2.527  21.206  0.00  0.00    +0.000 A 
ATOM     19  C   UNL     1       1.236   2.599  19.840  0.00  0.00    +0.000 A 
ATOM     20  N   UNL     1       1.710   3.622  19.090  0.00  0.00    +0.000 NA
ENDBRANCH  14  15
ENDBRANCH   1  14
TORSDOF 3
ENDMDL
MODEL 6
REMARK VINA RESULT:      -7.1      1.520      2.811
REMARK  Name = 
REMARK  4 active torsions:
REMARK  status: ('A' for Active; 'I' for Inactive)
REMARK    1  A    between atoms: C_1  and  C_2
REMARK    2  A    between atoms: C_2  and  N_3
REMARK    3  A    between atoms: C_2  and  C_14
REMARK    4  A    between atoms: N_3  and  C_4
REMARK                            x       y       z     vdW  Elec       q    Type
REMARK                         _______ _______ _______ _____ _____    ______ ____
ROOT
ATOM      1  N   UNL     1       4.904   3.268  17.628  0.00  0.00    +0.000 NA
ATOM      2  H   UNL     1       5.638   2.559  17.538  0.00  0.00    +0.000 HD
ENDROOT
BRANCH   1   3
ATOM      3  C   UNL     1       4.764   4.134  16.434  0.00  0.00    +0.000 C 
ATOM      4  C   UNL     1       5.893   3.782  15.413  0.00  0.00    +0.000 C 
ATOM      5  C   UNL     1       5.947   4.296  13.973  0.00  0.00    +0.000 C 
ATOM      6  C   UNL     1       7.401   4.745  13.878  0.00  0.00    +0.000 C 
ATOM      7  O   UNL     1       7.578   5.498  15.085  0.00  0.00    +0.000 OA
ATOM      8  C   UNL     1       6.802   4.846  16.111  0.00  0.00    +0.000 C 
ATOM      9  C   UNL     1       5.520   5.450  16.652  0.00  0.00    +0.000 C 
ATOM     10  C   UNL     1       5.492   6.194  17.973  0.00  0.00    +0.000 C 
ATOM     11  C   UNL     1       4.320   7.013  17.368  0.00  0.00    +0.000 C 
ATOM     12  C   UNL     1       4.918   6.684  15.979  0.00  0.00    +0.000 C 
ENDBRANCH   1   3
BRANCH   1  14
ATOM     13  C   UNL     1       2.629   2.531  16.851  0.00  0.00    +0.000 C 
ATOM     14  C   UNL     1       3.655   2.558  17.987  0.00  0.00    +0.000 C 
BRANCH  14  15
ATOM     15  C   UNL     1       3.052   3.107  19.273  0.00  0.00    +0.000 A 
ATOM     16  C   UNL     1       2.519   4.393  19.345  0.00  0.00    +0.000 A 
ATOM     17  N   UNL     1       2.074   4.945  20.499  0.00  0.00    +0.000 NA
ATOM     18  C   UNL     1       2.168   4.157  21.588  0.00  0.00    +0.000 A 
ATOM     19  C   UNL     1       2.667   2.868  21.532  0.00  0.00    +0.000 A 
ATOM     20  N   UNL     1       3.122   2.319  20.382  0.00  0.00    +0.000 NA
ENDBRANCH  14  15
ENDBRANCH   1  14
TORSDOF 3
ENDMDL
MODEL 7
REMARK VINA RESULT:      -7.1      1.759      3.256
REMARK  Name = 
REMARK  4 active torsions:
REMARK  status: ('A' for Active; 'I' for Inactive)
REMARK    1  A    between atoms: C_1  and  C_2
REMARK    2  A    between atoms: C_2  and  N_3
REMARK    3  A    between atoms: C_2  and  C_14
REMARK    4  A    between atoms: N_3  and  C_4
REMARK                            x       y       z     vdW  Elec       q    Type
REMARK                         _______ _______ _______ _____ _____    ______ ____
ROOT
ATOM      1  N   UNL     1       4.404   5.861  18.779  0.00  0.00    +0.000 NA
ATOM      2  H   UNL     1       4.567   4.878  19.014  0.00  0.00    +0.000 HD
ENDROOT
BRANCH   1   3
ATOM      3  C   UNL     1       5.147   6.317  17.581  0.00  0.00    +0.000 C 
ATOM      4  C   UNL     1       4.969   5.266  16.439  0.00  0.00    +0.000 C 
ATOM      5  C   UNL     1       5.392   5.489  14.986  0.00  0.00    +0.000 C 
ATOM      6  C   UNL     1       6.121   4.181  14.691  0.00  0.00    +0.000 C 
ATOM      7  O   UNL     1       6.968   4.028  15.837  0.00  0.00    +0.000 OA
ATOM      8  C   UNL     1       6.238   4.526  16.977  0.00  0.00    +0.000 C 
ATOM      9  C   UNL     1       6.600   5.835  17.652  0.00  0.00    +0.000 C 
ATOM     10  C   UNL     1       7.404   5.864  18.938  0.00  0.00    +0.000 C 
ATOM     11  C   UNL     1       7.928   7.244  18.456  0.00  0.00    +0.000 C 
ATOM     12  C   UNL     1       7.641   6.755  17.016  0.00  0.00    +0.000 C 
ENDBRANCH   1   3
BRANCH   1  14
ATOM     13  C   UNL     1       2.407   7.203  19.510  0.00  0.00    +0.000 C 
ATOM     14  C   UNL     1       2.939   6.043  18.664  0.00  0.00    +0.000 C 
BRANCH  14  15
ATOM     15  C   UNL     1       2.192   4.749  18.955  0.00  0.00    +0.000 A 
ATOM     16  C   UNL     1       1.822   3.868  17.939  0.00  0.00    +0.000 A 
ATOM     17  N   UNL     1       1.066   2.766  18.156  0.00  0.00    +0.000 NA
ATOM     18  C   UNL     1       0.698   2.562  19.436  0.00  0.00    +0.000 A 
ATOM     19  C   UNL     1       1.079   3.408  20.462  0.00  0.00    +0.000 A 
ATOM     20  N   UNL     1       1.826   4.516  20.246  0.00  0.00    +0.000 NA
ENDBRANCH  14  15
ENDBRANCH   1  14
TORSDOF 3
ENDMDL
MODEL 8
REMARK VINA RESULT:      -7.1      2.710      6.210
REMARK  Name = 
REMARK  4 active torsions:
REMARK  status: ('A' for Active; 'I' for Inactive)
REMARK    1  A    between atoms: C_1  and  C_2
REMARK    2  A    between atoms: C_2  and  N_3
REMARK    3  A    between atoms: C_2  and  C_14
REMARK    4  A    between atoms: N_3  and  C_4
REMARK                            x       y       z     vdW  Elec       q    Type
REMARK                         _______ _______ _______ _____ _____    ______ ____
ROOT
ATOM      1  N   UNL     1       4.769   3.573  18.451  0.00  0.00    +0.000 NA
ATOM      2  H   UNL     1       4.971   2.575  18.558  0.00  0.00    +0.000 HD
ENDROOT
BRANCH   1   3
ATOM      3  C   UNL     1       4.061   4.165  19.610  0.00  0.00    +0.000 C 
ATOM      4  C   UNL     1       3.225   3.053  20.319  0.00  0.00    +0.000 C 
ATOM      5  C   UNL     1       2.542   3.219  21.678  0.00  0.00    +0.000 C 
ATOM      6  C   UNL     1       1.159   2.648  21.381  0.00  0.00    +0.000 C 
ATOM      7  O   UNL     1       0.815   3.284  20.143  0.00  0.00    +0.000 OA
ATOM      8  C   UNL     1       2.029   3.404  19.374  0.00  0.00    +0.000 C 
ATOM      9  C   UNL     1       2.713   4.741  19.159  0.00  0.00    +0.000 C 
ATOM     10  C   UNL     1       2.551   5.512  17.864  0.00  0.00    +0.000 C 
ATOM     11  C   UNL     1       2.765   6.790  18.720  0.00  0.00    +0.000 C 
ATOM     12  C   UNL     1       2.227   5.974  19.920  0.00  0.00    +0.000 C 
ENDBRANCH   1   3
BRANCH   1  14
ATOM     13  C   UNL     1       6.259   5.542  18.931  0.00  0.00    +0.000 C 
ATOM     14  C   UNL     1       6.053   4.245  18.145  0.00  0.00    +0.000 C 
BRANCH  14  15
ATOM     15  C   UNL     1       6.224   4.464  16.647  0.00  0.00    +0.000 A 
ATOM     16  C   UNL     1       5.208   4.167  15.740  0.00  0.00    +0.000 A 
ATOM     17  N   UNL     1       5.368   4.252  14.398  0.00  0.00    +0.000 NA
ATOM     18  C   UNL     1       6.584   4.658  13.987  0.00  0.00    +0.000 A 
ATOM     19  C   UNL     1       7.597   4.985  14.872  0.00  0.00    +0.000 A 
ATOM     20  N   UNL     1       7.442   4.892  16.213  0.00  0.00    +0.000 NA
ENDBRANCH  14  15
ENDBRANCH   1  14
TORSDOF 3
ENDMDL
MODEL 9
REMARK VINA RESULT:      -7.1      1.669      3.096
REMARK  Name = 
REMARK  4 active torsions:
REMARK  status: ('A' for Active; 'I' for Inactive)
REMARK    1  A    between atoms: C_1  and  C_2
REMARK    2  A    between atoms: C_2  and  N_3
REMARK    3  A    between atoms: C_2  and  C_14
REMARK    4  A    between atoms: N_3  and  C_4
REMARK                            x       y       z     vdW  Elec       q    Type
REMARK                         _______ _______ _______ _____ _____    ______ ____
ROOT
ATOM      1  N   UNL     1       4.723   5.696  18.754  0.00  0.00    +0.000 NA
ATOM      2  H   UNL     1       5.053   4.749  18.961  0.00  0.00    +0.000 HD
ENDROOT
BRANCH   1   3
ATOM      3  C   UNL     1       5.338   6.290  17.545  0.00  0.00    +0.000 C 
ATOM      4  C   UNL     1       5.286   5.248  16.381  0.00  0.00    +0.000 C 
ATOM      5  C   UNL     1       5.613   5.566  14.921  0.00  0.00    +0.000 C 
ATOM      6  C   UNL     1       6.528   4.398  14.567  0.00  0.00    +0.000 C 
ATOM      7  O   UNL     1       7.432   4.357  15.679  0.00  0.00    +0.000 OA
ATOM      8  C   UNL     1       6.675   4.708  16.856  0.00  0.00    +0.000 C 
ATOM      9  C   UNL     1       6.851   6.043  17.554  0.00  0.00    +0.000 C 
ATOM     10  C   UNL     1       7.688   6.173  18.812  0.00  0.00    +0.000 C 
ATOM     11  C   UNL     1       7.969   7.628  18.349  0.00  0.00    +0.000 C 
ATOM     12  C   UNL     1       7.708   7.131  16.907  0.00  0.00    +0.000 C 
ENDBRANCH   1   3
BRANCH   1  14
ATOM     13  C   UNL     1       2.559   6.590  19.672  0.00  0.00    +0.000 C 
ATOM     14  C   UNL     1       3.244   5.636  18.690  0.00  0.00    +0.000 C 
BRANCH  14  15
ATOM     15  C   UNL     1       2.737   4.209  18.848  0.00  0.00    +0.000 A 
ATOM     16  C   UNL     1       3.608   3.124  18.935  0.00  0.00    +0.000 A 
ATOM     17  N   UNL     1       3.185   1.838  18.970  0.00  0.00    +0.000 NA
ATOM     18  C   UNL     1       1.849   1.669  18.926  0.00  0.00    +0.000 A 
ATOM     19  C   UNL     1       0.967   2.734  18.868  0.00  0.00    +0.000 A 
ATOM     20  N   UNL     1       1.388   4.020  18.823  0.00  0.00    +0.000 NA
ENDBRANCH  14  15
ENDBRANCH   1  14
TORSDOF 3
ENDMDL
