MODEL 1
REMARK VINA RESULT:      -7.6      0.000      0.000
REMARK  Name = 
REMARK  9 active torsions:
REMARK  status: ('A' for Active; 'I' for Inactive)
REMARK    1  A    between atoms: C_2  and  C_3
REMARK    2  A    between atoms: C_3  and  C_4
REMARK    3  A    between atoms: C_7  and  O_8
REMARK    4  A    between atoms: O_8  and  C_9
REMARK    5  A    between atoms: C_9  and  C_10
REMARK    6  A    between atoms: C_11  and  C_12
REMARK    7  A    between atoms: C_15  and  O_16
REMARK    8  A    between atoms: C_17  and  C_18
REMARK    9  A    between atoms: C_18  and  C_19
REMARK                            x       y       z     vdW  Elec       q    Type
REMARK                         _______ _______ _______ _____ _____    ______ ____
ROOT
ATOM      1  C   UNL     1       5.994   3.950  13.276  0.00  0.00    +0.000 A 
ATOM      2  C   UNL     1       7.289   4.441  13.416  0.00  0.00    +0.000 A 
ATOM      3  C   UNL     1       7.691   5.010  14.629  0.00  0.00    +0.000 A 
ATOM      4  C   UNL     1       6.814   5.112  15.722  0.00  0.00    +0.000 A 
ATOM      5  C   UNL     1       5.502   4.595  15.619  0.00  0.00    +0.000 A 
ATOM      6  C   UNL     1       5.120   4.043  14.368  0.00  0.00    +0.000 A 
ENDROOT
BRANCH   5   7
ATOM      7  C   UNL     1       4.513   4.550  16.724  0.00  0.00    +0.000 A 
ATOM      8  C   UNL     1       3.913   3.339  17.116  0.00  0.00    +0.000 A 
ATOM      9  C   UNL     1       2.889   3.308  18.068  0.00  0.00    +0.000 A 
ATOM     10  C   UNL     1       2.417   4.502  18.606  0.00  0.00    +0.000 A 
ATOM     11  C   UNL     1       3.000   5.722  18.263  0.00  0.00    +0.000 A 
ATOM     12  C   UNL     1       4.100   5.720  17.384  0.00  0.00    +0.000 A 
BRANCH  10  13
ATOM     13  O   UNL     1       1.353   4.492  19.462  0.00  0.00    +0.000 OA
ATOM     14  H   UNL     1       0.819   5.289  19.306  0.00  0.00    +0.000 HD
ENDBRANCH  10  13
BRANCH  11  15
ATOM     15  C   UNL     1       2.450   7.040  18.754  0.00  0.00    +0.000 C 
BRANCH  15  16
ATOM     16  C   UNL     1       2.268   8.046  17.658  0.00  0.00    +0.000 C 
ATOM     17  C   UNL     1       1.957   9.333  17.863  0.00  0.00    +0.000 C 
ENDBRANCH  15  16
ENDBRANCH  11  15
ENDBRANCH   5   7
BRANCH   1  18
ATOM     18  C   UNL     1       5.553   3.308  11.981  0.00  0.00    +0.000 C 
BRANCH  18  20
ATOM     19  C   UNL     1       3.487   3.488  10.560  0.00  0.00    +0.000 C 
ATOM     20  C   UNL     1       4.067   3.370  11.762  0.00  0.00    +0.000 C 
ENDBRANCH  18  20
ENDBRANCH   1  18
BRANCH   4  21
ATOM     21  O   UNL     1       7.436   5.682  16.805  0.00  0.00    +0.000 OA
BRANCH  21  22
ATOM     22  C   UNL     1       7.724   4.897  17.962  0.00  0.00    +0.000 C 
ATOM     23  C   UNL     1       7.776   5.788  19.189  0.00  0.00    +0.000 C 
ENDBRANCH  21  22
ENDBRANCH   4  21
TORSDOF 8
ENDMDL
MODEL 2
REMARK VINA RESULT:      -7.5      3.152      5.663
REMARK  Name = 
REMARK  9 active torsions:
REMARK  status: ('A' for Active; 'I' for Inactive)
REMARK    1  A    between atoms: C_2  and  C_3
REMARK    2  A    between atoms: C_3  and  C_4
REMARK    3  A    between atoms: C_7  and  O_8
REMARK    4  A    between atoms: O_8  and  C_9
REMARK    5  A    between atoms: C_9  and  C_10
REMARK    6  A    between atoms: C_11  and  C_12
REMARK    7  A    between atoms: C_15  and  O_16
REMARK    8  A    between atoms: C_17  and  C_18
REMARK    9  A    between atoms: C_18  and  C_19
REMARK                            x       y       z     vdW  Elec       q    Type
REMARK                         _______ _______ _______ _____ _____    ______ ____
ROOT
ATOM      1  C   UNL     1       5.535   5.332  17.634  0.00  0.00    +0.000 A 
ATOM      2  C   UNL     1       5.018   4.087  17.290  0.00  0.00    +0.000 A 
ATOM      3  C   UNL     1       3.644   3.848  17.401  0.00  0.00    +0.000 A 
ATOM      4  C   UNL     1       2.759   4.837  17.865  0.00  0.00    +0.000 A 
ATOM      5  C   UNL     1       3.252   6.121  18.193  0.00  0.00    +0.000 A 
ATOM      6  C   UNL     1       4.653   6.323  18.088  0.00  0.00    +0.000 A 
ENDROOT
BRANCH   5   7
ATOM      7  C   UNL     1       2.416   7.279  18.598  0.00  0.00    +0.000 A 
ATOM      8  C   UNL     1       2.048   8.271  17.672  0.00  0.00    +0.000 A 
ATOM      9  C   UNL     1       1.370   9.426  18.074  0.00  0.00    +0.000 A 
ATOM     10  C   UNL     1       1.095   9.626  19.423  0.00  0.00    +0.000 A 
ATOM     11  C   UNL     1       1.422   8.656  20.372  0.00  0.00    +0.000 A 
ATOM     12  C   UNL     1       2.007   7.454  19.932  0.00  0.00    +0.000 A 
BRANCH  10  13
ATOM     13  O   UNL     1       0.521  10.793  19.839  0.00  0.00    +0.000 OA
ATOM     14  H   UNL     1       0.535  10.820  20.810  0.00  0.00    +0.000 HD
ENDBRANCH  10  13
BRANCH  11  15
ATOM     15  C   UNL     1       1.224   8.882  21.852  0.00  0.00    +0.000 C 
BRANCH  15  16
ATOM     16  C   UNL     1      -0.218   8.985  22.243  0.00  0.00    +0.000 C 
ATOM     17  C   UNL     1      -0.695   9.868  23.131  0.00  0.00    +0.000 C 
ENDBRANCH  15  16
ENDBRANCH  11  15
ENDBRANCH   5   7
BRANCH   1  18
ATOM     18  C   UNL     1       7.013   5.614  17.493  0.00  0.00    +0.000 C 
BRANCH  18  20
ATOM     19  C   UNL     1       8.061   7.831  18.048  0.00  0.00    +0.000 C 
ATOM     20  C   UNL     1       7.321   7.063  17.237  0.00  0.00    +0.000 C 
ENDBRANCH  18  20
ENDBRANCH   1  18
BRANCH   4  21
ATOM     21  O   UNL     1       1.464   4.382  17.867  0.00  0.00    +0.000 OA
BRANCH  21  22
ATOM     22  C   UNL     1       1.073   3.333  18.754  0.00  0.00    +0.000 C 
ATOM     23  C   UNL     1       0.962   3.869  20.169  0.00  0.00    +0.000 C 
ENDBRANCH  21  22
ENDBRANCH   4  21
TORSDOF 8
ENDMDL
MODEL 3
REMARK VINA RESULT:      -7.4      2.120      6.086
REMARK  Name = 
REMARK  9 active torsions:
REMARK  status: ('A' for Active; 'I' for Inactive)
REMARK    1  A    between atoms: C_2  and  C_3
REMARK    2  A    between atoms: C_3  and  C_4
REMARK    3  A    between atoms: C_7  and  O_8
REMARK    4  A    between atoms: O_8  and  C_9
REMARK    5  A    between atoms: C_9  and  C_10
REMARK    6  A    between atoms: C_11  and  C_12
REMARK    7  A    between atoms: C_15  and  O_16
REMARK    8  A    between atoms: C_17  and  C_18
REMARK    9  A    between atoms: C_18  and  C_19
REMARK                            x       y       z     vdW  Elec       q    Type
REMARK                         _______ _______ _______ _____ _____    ______ ____
ROOT
ATOM      1  C   UNL     1       3.215   4.475  18.035  0.00  0.00    +0.000 A 
ATOM      2  C   UNL     1       3.885   4.586  19.249  0.00  0.00    +0.000 A 
ATOM      3  C   UNL     1       5.284   4.611  19.274  0.00  0.00    +0.000 A 
ATOM      4  C   UNL     1       6.044   4.515  18.095  0.00  0.00    +0.000 A 
ATOM      5  C   UNL     1       5.390   4.432  16.844  0.00  0.00    +0.000 A 
ATOM      6  C   UNL     1       3.971   4.389  16.857  0.00  0.00    +0.000 A 
ENDROOT
BRANCH   5   7
ATOM      7  C   UNL     1       6.068   4.425  15.524  0.00  0.00    +0.000 A 
ATOM      8  C   UNL     1       7.083   5.352  15.222  0.00  0.00    +0.000 A 
ATOM      9  C   UNL     1       7.636   5.433  13.941  0.00  0.00    +0.000 A 
ATOM     10  C   UNL     1       7.142   4.617  12.927  0.00  0.00    +0.000 A 
ATOM     11  C   UNL     1       6.153   3.669  13.190  0.00  0.00    +0.000 A 
ATOM     12  C   UNL     1       5.686   3.530  14.510  0.00  0.00    +0.000 A 
BRANCH  10  13
ATOM     13  O   UNL     1       7.606   4.756  11.650  0.00  0.00    +0.000 OA
ATOM     14  H   UNL     1       6.886   5.092  11.091  0.00  0.00    +0.000 HD
ENDBRANCH  10  13
BRANCH  11  15
ATOM     15  C   UNL     1       5.529   2.836  12.095  0.00  0.00    +0.000 C 
BRANCH  15  16
ATOM     16  C   UNL     1       4.470   3.569  11.329  0.00  0.00    +0.000 C 
ATOM     17  C   UNL     1       3.323   3.016  10.915  0.00  0.00    +0.000 C 
ENDBRANCH  15  16
ENDBRANCH  11  15
ENDBRANCH   5   7
BRANCH   1  18
ATOM     18  C   UNL     1       1.704   4.474  17.991  0.00  0.00    +0.000 C 
BRANCH  18  20
ATOM     19  C   UNL     1       1.400   2.103  18.770  0.00  0.00    +0.000 C 
ATOM     20  C   UNL     1       1.084   3.403  18.845  0.00  0.00    +0.000 C 
ENDBRANCH  18  20
ENDBRANCH   1  18
BRANCH   4  21
ATOM     21  O   UNL     1       7.388   4.584  18.364  0.00  0.00    +0.000 OA
BRANCH  21  22
ATOM     22  C   UNL     1       7.912   5.672  19.126  0.00  0.00    +0.000 C 
ATOM     23  C   UNL     1       7.952   6.926  18.275  0.00  0.00    +0.000 C 
ENDBRANCH  21  22
ENDBRANCH   4  21
TORSDOF 8
ENDMDL
MODEL 4
REMARK VINA RESULT:      -7.4      2.626      6.930
REMARK  Name = 
REMARK  9 active torsions:
REMARK  status: ('A' for Active; 'I' for Inactive)
REMARK    1  A    between atoms: C_2  and  C_3
REMARK    2  A    between atoms: C_3  and  C_4
REMARK    3  A    between atoms: C_7  and  O_8
REMARK    4  A    between atoms: O_8  and  C_9
REMARK    5  A    between atoms: C_9  and  C_10
REMARK    6  A    between atoms: C_11  and  C_12
REMARK    7  A    between atoms: C_15  and  O_16
REMARK    8  A    between atoms: C_17  and  C_18
REMARK    9  A    between atoms: C_18  and  C_19
REMARK                            x       y       z     vdW  Elec       q    Type
REMARK                         _______ _______ _______ _____ _____    ______ ____
ROOT
ATOM      1  C   UNL     1       1.444   9.005  19.105  0.00  0.00    +0.000 A 
ATOM      2  C   UNL     1       1.051   8.645  20.391  0.00  0.00    +0.000 A 
ATOM      3  C   UNL     1       1.397   7.388  20.899  0.00  0.00    +0.000 A 
ATOM      4  C   UNL     1       2.130   6.461  20.137  0.00  0.00    +0.000 A 
ATOM      5  C   UNL     1       2.568   6.811  18.840  0.00  0.00    +0.000 A 
ATOM      6  C   UNL     1       2.184   8.086  18.348  0.00  0.00    +0.000 A 
ENDROOT
BRANCH   5   7
ATOM      7  C   UNL     1       3.429   5.968  17.973  0.00  0.00    +0.000 A 
ATOM      8  C   UNL     1       3.044   4.664  17.610  0.00  0.00    +0.000 A 
ATOM      9  C   UNL     1       3.906   3.822  16.901  0.00  0.00    +0.000 A 
ATOM     10  C   UNL     1       5.189   4.259  16.587  0.00  0.00    +0.000 A 
ATOM     11  C   UNL     1       5.603   5.553  16.908  0.00  0.00    +0.000 A 
ATOM     12  C   UNL     1       4.683   6.420  17.526  0.00  0.00    +0.000 A 
BRANCH  10  13
ATOM     13  O   UNL     1       6.071   3.411  15.982  0.00  0.00    +0.000 OA
ATOM     14  H   UNL     1       6.598   3.915  15.339  0.00  0.00    +0.000 HD
ENDBRANCH  10  13
BRANCH  11  15
ATOM     15  C   UNL     1       7.017   6.026  16.668  0.00  0.00    +0.000 C 
BRANCH  15  16
ATOM     16  C   UNL     1       7.547   6.880  17.779  0.00  0.00    +0.000 C 
ATOM     17  C   UNL     1       7.853   8.177  17.649  0.00  0.00    +0.000 C 
ENDBRANCH  15  16
ENDBRANCH  11  15
ENDBRANCH   5   7
BRANCH   1  18
ATOM     18  C   UNL     1       1.102  10.370  18.553  0.00  0.00    +0.000 C 
BRANCH  18  20
ATOM     19  C   UNL     1      -1.167  11.288  19.128  0.00  0.00    +0.000 C 
ATOM     20  C   UNL     1      -0.371  10.567  18.326  0.00  0.00    +0.000 C 
ENDBRANCH  18  20
ENDBRANCH   1  18
BRANCH   4  21
ATOM     21  O   UNL     1       2.368   5.312  20.849  0.00  0.00    +0.000 OA
BRANCH  21  22
ATOM     22  C   UNL     1       1.418   4.246  20.829  0.00  0.00    +0.000 C 
ATOM     23  C   UNL     1       2.018   3.010  21.473  0.00  0.00    +0.000 C 
ENDBRANCH  21  22
ENDBRANCH   4  21
TORSDOF 8
ENDMDL
MODEL 5
REMARK VINA RESULT:      -7.3      1.110      2.529
REMARK  Name = 
REMARK  9 active torsions:
REMARK  status: ('A' for Active; 'I' for Inactive)
REMARK    1  A    between atoms: C_2  and  C_3
REMARK    2  A    between atoms: C_3  and  C_4
REMARK    3  A    between atoms: C_7  and  O_8
REMARK    4  A    between atoms: O_8  and  C_9
REMARK    5  A    between atoms: C_9  and  C_10
REMARK    6  A    between atoms: C_11  and  C_12
REMARK    7  A    between atoms: C_15  and  O_16
REMARK    8  A    between atoms: C_17  and  C_18
REMARK    9  A    between atoms: C_18  and  C_19
REMARK                            x       y       z     vdW  Elec       q    Type
REMARK                         _______ _______ _______ _____ _____    ______ ____
ROOT
ATOM      1  C   UNL     1       5.751   3.832  13.281  0.00  0.00    +0.000 A 
ATOM      2  C   UNL     1       7.069   4.277  13.238  0.00  0.00    +0.000 A 
ATOM      3  C   UNL     1       7.586   5.030  14.299  0.00  0.00    +0.000 A 
ATOM      4  C   UNL     1       6.802   5.363  15.417  0.00  0.00    +0.000 A 
ATOM      5  C   UNL     1       5.470   4.899  15.502  0.00  0.00    +0.000 A 
ATOM      6  C   UNL     1       4.971   4.155  14.401  0.00  0.00    +0.000 A 
ENDROOT
BRANCH   5   7
ATOM      7  C   UNL     1       4.570   5.094  16.667  0.00  0.00    +0.000 A 
ATOM      8  C   UNL     1       4.205   6.383  17.097  0.00  0.00    +0.000 A 
ATOM      9  C   UNL     1       3.463   6.576  18.267  0.00  0.00    +0.000 A 
ATOM     10  C   UNL     1       3.118   5.479  19.050  0.00  0.00    +0.000 A 
ATOM     11  C   UNL     1       3.440   4.182  18.647  0.00  0.00    +0.000 A 
ATOM     12  C   UNL     1       4.093   4.003  17.413  0.00  0.00    +0.000 A 
BRANCH  10  13
ATOM     13  O   UNL     1       2.479   5.664  20.243  0.00  0.00    +0.000 OA
ATOM     14  H   UNL     1       3.036   5.304  20.954  0.00  0.00    +0.000 HD
ENDBRANCH  10  13
BRANCH  11  15
ATOM     15  C   UNL     1       3.165   2.979  19.518  0.00  0.00    +0.000 C 
BRANCH  15  16
ATOM     16  C   UNL     1       2.123   2.067  18.949  0.00  0.00    +0.000 C 
ATOM     17  C   UNL     1       0.823   2.376  18.853  0.00  0.00    +0.000 C 
ENDBRANCH  15  16
ENDBRANCH  11  15
ENDBRANCH   5   7
BRANCH   1  18
ATOM     18  C   UNL     1       5.187   2.995  12.157  0.00  0.00    +0.000 C 
BRANCH  18  20
ATOM     19  C   UNL     1       3.369   3.100  10.423  0.00  0.00    +0.000 C 
ATOM     20  C   UNL     1       4.033   3.650  11.449  0.00  0.00    +0.000 C 
ENDBRANCH  18  20
ENDBRANCH   1  18
BRANCH   4  21
ATOM     21  O   UNL     1       7.527   6.083  16.333  0.00  0.00    +0.000 OA
BRANCH  21  22
ATOM     22  C   UNL     1       7.599   5.650  17.692  0.00  0.00    +0.000 C 
ATOM     23  C   UNL     1       7.967   6.818  18.587  0.00  0.00    +0.000 C 
ENDBRANCH  21  22
ENDBRANCH   4  21
TORSDOF 8
ENDMDL
MODEL 6
REMARK VINA RESULT:      -7.3      2.039      6.267
REMARK  Name = 
REMARK  9 active torsions:
REMARK  status: ('A' for Active; 'I' for Inactive)
REMARK    1  A    between atoms: C_2  and  C_3
REMARK    2  A    between atoms: C_3  and  C_4
REMARK    3  A    between atoms: C_7  and  O_8
REMARK    4  A    between atoms: O_8  and  C_9
REMARK    5  A    between atoms: C_9  and  C_10
REMARK    6  A    between atoms: C_11  and  C_12
REMARK    7  A    between atoms: C_15  and  O_16
REMARK    8  A    between atoms: C_17  and  C_18
REMARK    9  A    between atoms: C_18  and  C_19
REMARK                            x       y       z     vdW  Elec       q    Type
REMARK                         _______ _______ _______ _____ _____    ______ ____
ROOT
ATOM      1  C   UNL     1       3.418   3.962  17.777  0.00  0.00    +0.000 A 
ATOM      2  C   UNL     1       3.618   5.107  18.541  0.00  0.00    +0.000 A 
ATOM      3  C   UNL     1       4.575   6.049  18.149  0.00  0.00    +0.000 A 
ATOM      4  C   UNL     1       5.359   5.868  16.996  0.00  0.00    +0.000 A 
ATOM      5  C   UNL     1       5.156   4.729  16.183  0.00  0.00    +0.000 A 
ATOM      6  C   UNL     1       4.192   3.784  16.621  0.00  0.00    +0.000 A 
ENDROOT
BRANCH   5   7
ATOM      7  C   UNL     1       5.843   4.467  14.894  0.00  0.00    +0.000 A 
ATOM      8  C   UNL     1       7.047   5.116  14.565  0.00  0.00    +0.000 A 
ATOM      9  C   UNL     1       7.631   4.970  13.302  0.00  0.00    +0.000 A 
ATOM     10  C   UNL     1       6.987   4.208  12.333  0.00  0.00    +0.000 A 
ATOM     11  C   UNL     1       5.803   3.529  12.625  0.00  0.00    +0.000 A 
ATOM     12  C   UNL     1       5.290   3.603  13.933  0.00  0.00    +0.000 A 
BRANCH  10  13
ATOM     13  O   UNL     1       7.497   4.138  11.068  0.00  0.00    +0.000 OA
ATOM     14  H   UNL     1       8.466   4.171  11.119  0.00  0.00    +0.000 HD
ENDBRANCH  10  13
BRANCH  11  15
ATOM     15  C   UNL     1       5.030   2.773  11.570  0.00  0.00    +0.000 C 
BRANCH  15  16
ATOM     16  C   UNL     1       3.697   3.386  11.266  0.00  0.00    +0.000 C 
ATOM     17  C   UNL     1       3.352   3.882  10.070  0.00  0.00    +0.000 C 
ENDBRANCH  15  16
ENDBRANCH  11  15
ENDBRANCH   5   7
BRANCH   1  18
ATOM     18  C   UNL     1       2.368   2.949  18.173  0.00  0.00    +0.000 C 
BRANCH  18  20
ATOM     19  C   UNL     1       0.942   3.205  20.228  0.00  0.00    +0.000 C 
ATOM     20  C   UNL     1       1.237   3.544  18.965  0.00  0.00    +0.000 C 
ENDBRANCH  18  20
ENDBRANCH   1  18
BRANCH   4  21
ATOM     21  O   UNL     1       6.208   6.928  16.802  0.00  0.00    +0.000 OA
BRANCH  21  22
ATOM     22  C   UNL     1       7.412   7.032  17.563  0.00  0.00    +0.000 C 
ATOM     23  C   UNL     1       7.850   8.482  17.640  0.00  0.00    +0.000 C 
ENDBRANCH  21  22
ENDBRANCH   4  21
TORSDOF 8
ENDMDL
MODEL 7
REMARK VINA RESULT:      -7.3      1.585      1.901
REMARK  Name = 
REMARK  9 active torsions:
REMARK  status: ('A' for Active; 'I' for Inactive)
REMARK    1  A    between atoms: C_2  and  C_3
REMARK    2  A    between atoms: C_3  and  C_4
REMARK    3  A    between atoms: C_7  and  O_8
REMARK    4  A    between atoms: O_8  and  C_9
REMARK    5  A    between atoms: C_9  and  C_10
REMARK    6  A    between atoms: C_11  and  C_12
REMARK    7  A    between atoms: C_15  and  O_16
REMARK    8  A    between atoms: C_17  and  C_18
REMARK    9  A    between atoms: C_18  and  C_19
REMARK                            x       y       z     vdW  Elec       q    Type
REMARK                         _______ _______ _______ _____ _____    ______ ____
ROOT
ATOM      1  C   UNL     1       5.565   4.219  14.490  0.00  0.00    +0.000 A 
ATOM      2  C   UNL     1       6.863   4.514  14.894  0.00  0.00    +0.000 A 
ATOM      3  C   UNL     1       7.165   4.608  16.258  0.00  0.00    +0.000 A 
ATOM      4  C   UNL     1       6.182   4.420  17.245  0.00  0.00    +0.000 A 
ATOM      5  C   UNL     1       4.861   4.088  16.864  0.00  0.00    +0.000 A 
ATOM      6  C   UNL     1       4.585   4.021  15.473  0.00  0.00    +0.000 A 
ENDROOT
BRANCH   5   7
ATOM      7  C   UNL     1       3.757   3.767  17.803  0.00  0.00    +0.000 A 
ATOM      8  C   UNL     1       2.964   2.618  17.629  0.00  0.00    +0.000 A 
ATOM      9  C   UNL     1       1.845   2.378  18.433  0.00  0.00    +0.000 A 
ATOM     10  C   UNL     1       1.476   3.315  19.393  0.00  0.00    +0.000 A 
ATOM     11  C   UNL     1       2.248   4.457  19.613  0.00  0.00    +0.000 A 
ATOM     12  C   UNL     1       3.429   4.625  18.866  0.00  0.00    +0.000 A 
BRANCH  10  13
ATOM     13  O   UNL     1       0.331   3.139  20.116  0.00  0.00    +0.000 OA
ATOM     14  H   UNL     1      -0.005   4.010  20.386  0.00  0.00    +0.000 HD
ENDBRANCH  10  13
BRANCH  11  15
ATOM     15  C   UNL     1       1.824   5.539  20.578  0.00  0.00    +0.000 C 
BRANCH  15  16
ATOM     16  C   UNL     1       2.093   6.921  20.066  0.00  0.00    +0.000 C 
ATOM     17  C   UNL     1       1.535   8.031  20.568  0.00  0.00    +0.000 C 
ENDBRANCH  15  16
ENDBRANCH  11  15
ENDBRANCH   5   7
BRANCH   1  18
ATOM     18  C   UNL     1       5.231   4.087  13.022  0.00  0.00    +0.000 C 
BRANCH  18  20
ATOM     19  C   UNL     1       5.888   2.155  11.553  0.00  0.00    +0.000 C 
ATOM     20  C   UNL     1       6.217   3.244  12.261  0.00  0.00    +0.000 C 
ENDBRANCH  18  20
ENDBRANCH   1  18
BRANCH   4  21
ATOM     21  O   UNL     1       6.715   4.537  18.504  0.00  0.00    +0.000 OA
BRANCH  21  22
ATOM     22  C   UNL     1       7.207   5.797  18.960  0.00  0.00    +0.000 C 
ATOM     23  C   UNL     1       8.261   5.583  20.030  0.00  0.00    +0.000 C 
ENDBRANCH  21  22
ENDBRANCH   4  21
TORSDOF 8
ENDMDL
MODEL 8
REMARK VINA RESULT:      -7.3      2.901      5.405
REMARK  Name = 
REMARK  9 active torsions:
REMARK  status: ('A' for Active; 'I' for Inactive)
REMARK    1  A    between atoms: C_2  and  C_3
REMARK    2  A    between atoms: C_3  and  C_4
REMARK    3  A    between atoms: C_7  and  O_8
REMARK    4  A    between atoms: O_8  and  C_9
REMARK    5  A    between atoms: C_9  and  C_10
REMARK    6  A    between atoms: C_11  and  C_12
REMARK    7  A    between atoms: C_15  and  O_16
REMARK    8  A    between atoms: C_17  and  C_18
REMARK    9  A    between atoms: C_18  and  C_19
REMARK                            x       y       z     vdW  Elec       q    Type
REMARK                         _______ _______ _______ _____ _____    ______ ____
ROOT
ATOM      1  C   UNL     1       5.232   5.585  17.043  0.00  0.00    +0.000 A 
ATOM      2  C   UNL     1       4.672   4.366  16.673  0.00  0.00    +0.000 A 
ATOM      3  C   UNL     1       3.375   4.042  17.085  0.00  0.00    +0.000 A 
ATOM      4  C   UNL     1       2.613   4.916  17.880  0.00  0.00    +0.000 A 
ATOM      5  C   UNL     1       3.145   6.174  18.246  0.00  0.00    +0.000 A 
ATOM      6  C   UNL     1       4.471   6.463  17.829  0.00  0.00    +0.000 A 
ENDROOT
BRANCH   5   7
ATOM      7  C   UNL     1       2.413   7.225  18.996  0.00  0.00    +0.000 A 
ATOM      8  C   UNL     1       2.119   7.074  20.363  0.00  0.00    +0.000 A 
ATOM      9  C   UNL     1       1.321   8.001  21.042  0.00  0.00    +0.000 A 
ATOM     10  C   UNL     1       0.766   9.069  20.345  0.00  0.00    +0.000 A 
ATOM     11  C   UNL     1       1.052   9.268  18.994  0.00  0.00    +0.000 A 
ATOM     12  C   UNL     1       1.942   8.385  18.356  0.00  0.00    +0.000 A 
BRANCH  10  13
ATOM     13  O   UNL     1      -0.093   9.924  20.975  0.00  0.00    +0.000 OA
ATOM     14  H   UNL     1      -0.250   9.600  21.877  0.00  0.00    +0.000 HD
ENDBRANCH  10  13
BRANCH  11  15
ATOM     15  C   UNL     1       0.391  10.360  18.186  0.00  0.00    +0.000 C 
BRANCH  15  16
ATOM     16  C   UNL     1      -0.961   9.972  17.669  0.00  0.00    +0.000 C 
ATOM     17  C   UNL     1      -2.002  10.810  17.584  0.00  0.00    +0.000 C 
ENDBRANCH  15  16
ENDBRANCH  11  15
ENDBRANCH   5   7
BRANCH   1  18
ATOM     18  C   UNL     1       6.622   5.962  16.583  0.00  0.00    +0.000 C 
BRANCH  18  20
ATOM     19  C   UNL     1       7.778   7.971  17.555  0.00  0.00    +0.000 C 
ATOM     20  C   UNL     1       7.422   6.682  17.633  0.00  0.00    +0.000 C 
ENDBRANCH  18  20
ENDBRANCH   1  18
BRANCH   4  21
ATOM     21  O   UNL     1       1.370   4.395  18.139  0.00  0.00    +0.000 OA
BRANCH  21  22
ATOM     22  C   UNL     1       1.239   3.198  18.907  0.00  0.00    +0.000 C 
ATOM     23  C   UNL     1       1.053   3.544  20.372  0.00  0.00    +0.000 C 
ENDBRANCH  21  22
ENDBRANCH   4  21
TORSDOF 8
ENDMDL
MODEL 9
REMARK VINA RESULT:      -7.2      2.502      5.107
REMARK  Name = 
REMARK  9 active torsions:
REMARK  status: ('A' for Active; 'I' for Inactive)
REMARK    1  A    between atoms: C_2  and  C_3
REMARK    2  A    between atoms: C_3  and  C_4
REMARK    3  A    between atoms: C_7  and  O_8
REMARK    4  A    between atoms: O_8  and  C_9
REMARK    5  A    between atoms: C_9  and  C_10
REMARK    6  A    between atoms: C_11  and  C_12
REMARK    7  A    between atoms: C_15  and  O_16
REMARK    8  A    between atoms: C_17  and  C_18
REMARK    9  A    between atoms: C_18  and  C_19
REMARK                            x       y       z     vdW  Elec       q    Type
REMARK                         _______ _______ _______ _____ _____    ______ ____
ROOT
ATOM      1  C   UNL     1       4.902   4.776  17.069  0.00  0.00    +0.000 A 
ATOM      2  C   UNL     1       4.355   3.512  17.270  0.00  0.00    +0.000 A 
ATOM      3  C   UNL     1       3.134   3.379  17.940  0.00  0.00    +0.000 A 
ATOM      4  C   UNL     1       2.436   4.497  18.430  0.00  0.00    +0.000 A 
ATOM      5  C   UNL     1       2.952   5.795  18.214  0.00  0.00    +0.000 A 
ATOM      6  C   UNL     1       4.203   5.893  17.549  0.00  0.00    +0.000 A 
ENDROOT
BRANCH   5   7
ATOM      7  C   UNL     1       2.271   7.059  18.590  0.00  0.00    +0.000 A 
ATOM      8  C   UNL     1       2.017   8.062  17.637  0.00  0.00    +0.000 A 
ATOM      9  C   UNL     1       1.491   9.303  18.009  0.00  0.00    +0.000 A 
ATOM     10  C   UNL     1       1.259   9.574  19.354  0.00  0.00    +0.000 A 
ATOM     11  C   UNL     1       1.476   8.599  20.329  0.00  0.00    +0.000 A 
ATOM     12  C   UNL     1       1.902   7.322  19.921  0.00  0.00    +0.000 A 
BRANCH  10  13
ATOM     13  O   UNL     1       0.839  10.815  19.739  0.00  0.00    +0.000 OA
ATOM     14  H   UNL     1       1.588  11.431  19.678  0.00  0.00    +0.000 HD
ENDBRANCH  10  13
BRANCH  11  15
ATOM     15  C   UNL     1       1.325   8.891  21.803  0.00  0.00    +0.000 C 
BRANCH  15  16
ATOM     16  C   UNL     1      -0.098   8.844  22.270  0.00  0.00    +0.000 C 
ATOM     17  C   UNL     1      -0.656   9.759  23.073  0.00  0.00    +0.000 C 
ENDBRANCH  15  16
ENDBRANCH  11  15
ENDBRANCH   5   7
BRANCH   1  18
ATOM     18  C   UNL     1       6.206   4.937  16.323  0.00  0.00    +0.000 C 
BRANCH  18  20
ATOM     19  C   UNL     1       5.978   3.974  14.012  0.00  0.00    +0.000 C 
ATOM     20  C   UNL     1       6.032   5.032  14.832  0.00  0.00    +0.000 C 
ENDBRANCH  18  20
ENDBRANCH   1  18
BRANCH   4  21
ATOM     21  O   UNL     1       1.259   4.123  19.028  0.00  0.00    +0.000 OA
BRANCH  21  22
ATOM     22  C   UNL     1       1.276   3.338  20.220  0.00  0.00    +0.000 C 
ATOM     23  C   UNL     1       2.015   4.082  21.317  0.00  0.00    +0.000 C 
ENDBRANCH  21  22
ENDBRANCH   4  21
TORSDOF 8
ENDMDL
