MODEL 1
REMARK VINA RESULT:      -8.2      0.000      0.000
REMARK  Name = 
REMARK  8 active torsions:
REMARK  status: ('A' for Active; 'I' for Inactive)
REMARK    1  A    between atoms: C_1  and  C_2
REMARK    2  A    between atoms: C_2  and  O_3
REMARK    3  A    between atoms: O_3  and  C_4
REMARK    4  A    between atoms: C_4  and  C_6
REMARK    5  A    between atoms: C_7  and  N_8
REMARK    6  A    between atoms: N_11  and  S_12
REMARK    7  A    between atoms: S_12  and  C_15
REMARK    8  A    between atoms: C_19  and  C_20
REMARK                            x       y       z     vdW  Elec       q    Type
REMARK                         _______ _______ _______ _____ _____    ______ ____
ROOT
ATOM      1  N   UNL     1       3.356   6.511  17.338  0.00  0.00    +0.000 N 
ATOM      2  C   UNL     1       4.718   6.271  17.368  0.00  0.00    +0.000 C 
ATOM      3  O   UNL     1       5.496   6.660  18.218  0.00  0.00    +0.000 OA
ATOM      4  N   UNL     1       5.190   5.490  16.315  0.00  0.00    +0.000 N 
ATOM      5  H   UNL     1       2.810   6.134  16.572  0.00  0.00    +0.000 HD
ATOM      6  H   UNL     1       4.603   5.146  15.568  0.00  0.00    +0.000 HD
ENDROOT
BRANCH   1   8
ATOM      7  C   UNL     1       2.230   6.888  19.559  0.00  0.00    +0.000 A 
ATOM      8  C   UNL     1       2.650   7.265  18.282  0.00  0.00    +0.000 A 
ATOM      9  S   UNL     1       2.187   8.862  17.912  0.00  0.00    +0.000 S 
ATOM     10  C   UNL     1       1.432   9.091  19.393  0.00  0.00    +0.000 A 
ATOM     11  C   UNL     1       1.488   7.972  20.200  0.00  0.00    +0.000 A 
ATOM     12  C   UNL     1       0.840   7.990  21.561  0.00  0.00    +0.000 C 
ATOM     13  C   UNL     1      -0.166   9.143  21.713  0.00  0.00    +0.000 C 
ATOM     14  C   UNL     1       0.404  10.467  21.195  0.00  0.00    +0.000 C 
ATOM     15  C   UNL     1       0.749  10.383  19.707  0.00  0.00    +0.000 C 
BRANCH   7  16
ATOM     16  C   UNL     1       2.484   5.554  20.109  0.00  0.00    +0.000 C 
ATOM     17  O   UNL     1       3.611   5.088  20.243  0.00  0.00    +0.000 OA
BRANCH  16  18
ATOM     18  O   UNL     1       1.334   4.874  20.377  0.00  0.00    +0.000 OA
BRANCH  18  20
ATOM     19  C   UNL     1       1.088   2.508  20.103  0.00  0.00    +0.000 C 
ATOM     20  C   UNL     1       1.458   3.623  21.067  0.00  0.00    +0.000 C 
ENDBRANCH  18  20
ENDBRANCH  16  18
ENDBRANCH   7  16
ENDBRANCH   1   8
BRANCH   4  21
ATOM     21  S   UNL     1       6.821   5.181  16.082  0.00  0.00    +0.000 S 
ATOM     22  O   UNL     1       7.471   6.463  16.277  0.00  0.00    +0.000 OA
ATOM     23  O   UNL     1       7.233   4.038  16.867  0.00  0.00    +0.000 OA
BRANCH  21  24
ATOM     24  C   UNL     1       6.962   4.774  14.351  0.00  0.00    +0.000 A 
ATOM     25  C   UNL     1       7.832   5.495  13.527  0.00  0.00    +0.000 A 
ATOM     26  C   UNL     1       7.895   5.209  12.163  0.00  0.00    +0.000 A 
ATOM     27  C   UNL     1       7.063   4.236  11.612  0.00  0.00    +0.000 A 
ATOM     28  C   UNL     1       6.159   3.535  12.421  0.00  0.00    +0.000 A 
ATOM     29  C   UNL     1       5.213   2.533  11.825  0.00  0.00    +0.000 C 
ATOM     30  C   UNL     1       6.116   3.806  13.797  0.00  0.00    +0.000 A 
ENDBRANCH  21  24
ENDBRANCH   4  21
TORSDOF 6
ENDMDL
MODEL 2
REMARK VINA RESULT:      -8.0      2.955      9.039
REMARK  Name = 
REMARK  8 active torsions:
REMARK  status: ('A' for Active; 'I' for Inactive)
REMARK    1  A    between atoms: C_1  and  C_2
REMARK    2  A    between atoms: C_2  and  O_3
REMARK    3  A    between atoms: O_3  and  C_4
REMARK    4  A    between atoms: C_4  and  C_6
REMARK    5  A    between atoms: C_7  and  N_8
REMARK    6  A    between atoms: N_11  and  S_12
REMARK    7  A    between atoms: S_12  and  C_15
REMARK    8  A    between atoms: C_19  and  C_20
REMARK                            x       y       z     vdW  Elec       q    Type
REMARK                         _______ _______ _______ _____ _____    ______ ____
ROOT
ATOM      1  N   UNL     1       2.514   7.498  18.943  0.00  0.00    +0.000 N 
ATOM      2  C   UNL     1       1.859   8.642  18.524  0.00  0.00    +0.000 C 
ATOM      3  O   UNL     1       1.891   9.117  17.404  0.00  0.00    +0.000 OA
ATOM      4  N   UNL     1       1.089   9.260  19.507  0.00  0.00    +0.000 N 
ATOM      5  H   UNL     1       2.412   7.202  19.908  0.00  0.00    +0.000 HD
ATOM      6  H   UNL     1       1.029   8.929  20.460  0.00  0.00    +0.000 HD
ENDROOT
BRANCH   1   8
ATOM      7  C   UNL     1       3.144   5.391  17.718  0.00  0.00    +0.000 A 
ATOM      8  C   UNL     1       3.344   6.705  18.142  0.00  0.00    +0.000 A 
ATOM      9  S   UNL     1       4.819   7.336  17.570  0.00  0.00    +0.000 S 
ATOM     10  C   UNL     1       5.226   5.919  16.769  0.00  0.00    +0.000 A 
ATOM     11  C   UNL     1       4.280   4.926  16.923  0.00  0.00    +0.000 A 
ATOM     12  C   UNL     1       4.493   3.575  16.289  0.00  0.00    +0.000 C 
ATOM     13  C   UNL     1       5.958   3.347  15.881  0.00  0.00    +0.000 C 
ATOM     14  C   UNL     1       6.539   4.560  15.148  0.00  0.00    +0.000 C 
ATOM     15  C   UNL     1       6.523   5.808  16.033  0.00  0.00    +0.000 C 
BRANCH   7  16
ATOM     16  C   UNL     1       1.960   4.612  18.094  0.00  0.00    +0.000 C 
ATOM     17  O   UNL     1       1.144   4.199  17.276  0.00  0.00    +0.000 OA
BRANCH  16  18
ATOM     18  O   UNL     1       1.836   4.472  19.443  0.00  0.00    +0.000 OA
BRANCH  18  20
ATOM     19  C   UNL     1       1.634   3.124  21.412  0.00  0.00    +0.000 C 
ATOM     20  C   UNL     1       1.326   3.223  19.927  0.00  0.00    +0.000 C 
ENDBRANCH  18  20
ENDBRANCH  16  18
ENDBRANCH   7  16
ENDBRANCH   1   8
BRANCH   4  21
ATOM     21  S   UNL     1       0.314  10.726  19.258  0.00  0.00    +0.000 S 
ATOM     22  O   UNL     1       1.387  11.689  19.102  0.00  0.00    +0.000 OA
ATOM     23  O   UNL     1      -0.690  10.593  18.224  0.00  0.00    +0.000 OA
BRANCH  21  24
ATOM     24  C   UNL     1      -0.495  11.079  20.807  0.00  0.00    +0.000 A 
ATOM     25  C   UNL     1      -0.258  10.273  21.925  0.00  0.00    +0.000 A 
ATOM     26  C   UNL     1      -0.937  10.521  23.118  0.00  0.00    +0.000 A 
ATOM     27  C   UNL     1      -1.882  11.545  23.187  0.00  0.00    +0.000 A 
ATOM     28  C   UNL     1      -2.156  12.333  22.062  0.00  0.00    +0.000 A 
ATOM     29  C   UNL     1      -3.218  13.393  22.108  0.00  0.00    +0.000 C 
ATOM     30  C   UNL     1      -1.453  12.098  20.870  0.00  0.00    +0.000 A 
ENDBRANCH  21  24
ENDBRANCH   4  21
TORSDOF 6
ENDMDL
MODEL 3
REMARK VINA RESULT:      -7.9      3.360      8.361
REMARK  Name = 
REMARK  8 active torsions:
REMARK  status: ('A' for Active; 'I' for Inactive)
REMARK    1  A    between atoms: C_1  and  C_2
REMARK    2  A    between atoms: C_2  and  O_3
REMARK    3  A    between atoms: O_3  and  C_4
REMARK    4  A    between atoms: C_4  and  C_6
REMARK    5  A    between atoms: C_7  and  N_8
REMARK    6  A    between atoms: N_11  and  S_12
REMARK    7  A    between atoms: S_12  and  C_15
REMARK    8  A    between atoms: C_19  and  C_20
REMARK                            x       y       z     vdW  Elec       q    Type
REMARK                         _______ _______ _______ _____ _____    ______ ____
ROOT
ATOM      1  N   UNL     1       2.326   7.555  18.871  0.00  0.00    +0.000 N 
ATOM      2  C   UNL     1       1.842   8.806  18.533  0.00  0.00    +0.000 C 
ATOM      3  O   UNL     1       2.080   9.413  17.507  0.00  0.00    +0.000 OA
ATOM      4  N   UNL     1       0.991   9.371  19.481  0.00  0.00    +0.000 N 
ATOM      5  H   UNL     1       2.058   7.151  19.762  0.00  0.00    +0.000 HD
ATOM      6  H   UNL     1       0.762   8.929  20.361  0.00  0.00    +0.000 HD
ENDROOT
BRANCH   1   8
ATOM      7  C   UNL     1       3.082   5.444  17.726  0.00  0.00    +0.000 A 
ATOM      8  C   UNL     1       3.194   6.788  18.086  0.00  0.00    +0.000 A 
ATOM      9  S   UNL     1       4.605   7.496  17.448  0.00  0.00    +0.000 S 
ATOM     10  C   UNL     1       5.097   6.076  16.701  0.00  0.00    +0.000 A 
ATOM     11  C   UNL     1       4.230   5.026  16.924  0.00  0.00    +0.000 A 
ATOM     12  C   UNL     1       4.527   3.665  16.345  0.00  0.00    +0.000 C 
ATOM     13  C   UNL     1       5.995   3.525  15.910  0.00  0.00    +0.000 C 
ATOM     14  C   UNL     1       6.469   4.742  15.109  0.00  0.00    +0.000 C 
ATOM     15  C   UNL     1       6.382   6.025  15.937  0.00  0.00    +0.000 C 
BRANCH   7  16
ATOM     16  C   UNL     1       1.967   4.600  18.167  0.00  0.00    +0.000 C 
ATOM     17  O   UNL     1       1.099   4.186  17.404  0.00  0.00    +0.000 OA
BRANCH  16  18
ATOM     18  O   UNL     1       1.966   4.400  19.514  0.00  0.00    +0.000 OA
BRANCH  18  20
ATOM     19  C   UNL     1       1.406   2.989  21.367  0.00  0.00    +0.000 C 
ATOM     20  C   UNL     1       0.920   3.582  20.054  0.00  0.00    +0.000 C 
ENDBRANCH  18  20
ENDBRANCH  16  18
ENDBRANCH   7  16
ENDBRANCH   1   8
BRANCH   4  21
ATOM     21  S   UNL     1       0.391  10.930  19.339  0.00  0.00    +0.000 S 
ATOM     22  O   UNL     1       0.143  11.356  20.704  0.00  0.00    +0.000 OA
ATOM     23  O   UNL     1       1.247  11.721  18.482  0.00  0.00    +0.000 OA
BRANCH  21  24
ATOM     24  C   UNL     1      -1.196  10.734  18.549  0.00  0.00    +0.000 A 
ATOM     25  C   UNL     1      -1.315   9.959  17.391  0.00  0.00    +0.000 A 
ATOM     26  C   UNL     1      -2.547   9.855  16.747  0.00  0.00    +0.000 A 
ATOM     27  C   UNL     1      -3.652  10.556  17.230  0.00  0.00    +0.000 A 
ATOM     28  C   UNL     1      -3.535  11.367  18.366  0.00  0.00    +0.000 A 
ATOM     29  C   UNL     1      -4.701  12.176  18.854  0.00  0.00    +0.000 C 
ATOM     30  C   UNL     1      -2.300  11.449  19.028  0.00  0.00    +0.000 A 
ENDBRANCH  21  24
ENDBRANCH   4  21
TORSDOF 6
ENDMDL
MODEL 4
REMARK VINA RESULT:      -7.8      3.325      8.181
REMARK  Name = 
REMARK  8 active torsions:
REMARK  status: ('A' for Active; 'I' for Inactive)
REMARK    1  A    between atoms: C_1  and  C_2
REMARK    2  A    between atoms: C_2  and  O_3
REMARK    3  A    between atoms: O_3  and  C_4
REMARK    4  A    between atoms: C_4  and  C_6
REMARK    5  A    between atoms: C_7  and  N_8
REMARK    6  A    between atoms: N_11  and  S_12
REMARK    7  A    between atoms: S_12  and  C_15
REMARK    8  A    between atoms: C_19  and  C_20
REMARK                            x       y       z     vdW  Elec       q    Type
REMARK                         _______ _______ _______ _____ _____    ______ ____
ROOT
ATOM      1  N   UNL     1       2.120   7.618  18.889  0.00  0.00    +0.000 N 
ATOM      2  C   UNL     1       1.791   8.931  18.602  0.00  0.00    +0.000 C 
ATOM      3  O   UNL     1       2.168   9.569  17.638  0.00  0.00    +0.000 OA
ATOM      4  N   UNL     1       0.931   9.526  19.523  0.00  0.00    +0.000 N 
ATOM      5  H   UNL     1       1.744   7.192  19.729  0.00  0.00    +0.000 HD
ATOM      6  H   UNL     1       0.591   9.059  20.352  0.00  0.00    +0.000 HD
ENDROOT
BRANCH   1   8
ATOM      7  C   UNL     1       2.879   5.439  17.882  0.00  0.00    +0.000 A 
ATOM      8  C   UNL     1       2.965   6.812  18.118  0.00  0.00    +0.000 A 
ATOM      9  S   UNL     1       4.309   7.505  17.333  0.00  0.00    +0.000 S 
ATOM     10  C   UNL     1       4.805   6.040  16.680  0.00  0.00    +0.000 A 
ATOM     11  C   UNL     1       3.991   4.988  17.046  0.00  0.00    +0.000 A 
ATOM     12  C   UNL     1       4.300   3.592  16.568  0.00  0.00    +0.000 C 
ATOM     13  C   UNL     1       5.743   3.459  16.053  0.00  0.00    +0.000 C 
ATOM     14  C   UNL     1       6.124   4.614  15.123  0.00  0.00    +0.000 C 
ATOM     15  C   UNL     1       6.041   5.962  15.842  0.00  0.00    +0.000 C 
BRANCH   7  16
ATOM     16  C   UNL     1       1.824   4.604  18.463  0.00  0.00    +0.000 C 
ATOM     17  O   UNL     1       1.103   3.873  17.791  0.00  0.00    +0.000 OA
BRANCH  16  18
ATOM     18  O   UNL     1       1.691   4.792  19.806  0.00  0.00    +0.000 OA
BRANCH  18  20
ATOM     19  C   UNL     1       2.101   3.234  21.577  0.00  0.00    +0.000 C 
ATOM     20  C   UNL     1       1.089   3.732  20.559  0.00  0.00    +0.000 C 
ENDBRANCH  18  20
ENDBRANCH  16  18
ENDBRANCH   7  16
ENDBRANCH   1   8
BRANCH   4  21
ATOM     21  S   UNL     1       0.502  11.144  19.443  0.00  0.00    +0.000 S 
ATOM     22  O   UNL     1       0.331  11.549  20.825  0.00  0.00    +0.000 OA
ATOM     23  O   UNL     1       1.423  11.865  18.590  0.00  0.00    +0.000 OA
BRANCH  21  24
ATOM     24  C   UNL     1      -1.112  11.148  18.685  0.00  0.00    +0.000 A 
ATOM     25  C   UNL     1      -2.187  11.776  19.323  0.00  0.00    +0.000 A 
ATOM     26  C   UNL     1      -3.459  11.727  18.753  0.00  0.00    +0.000 A 
ATOM     27  C   UNL     1      -3.670  11.018  17.570  0.00  0.00    +0.000 A 
ATOM     28  C   UNL     1      -2.609  10.352  16.944  0.00  0.00    +0.000 A 
ATOM     29  C   UNL     1      -2.840   9.533  15.708  0.00  0.00    +0.000 C 
ATOM     30  C   UNL     1      -1.325  10.425  17.506  0.00  0.00    +0.000 A 
ENDBRANCH  21  24
ENDBRANCH   4  21
TORSDOF 6
ENDMDL
MODEL 5
REMARK VINA RESULT:      -7.4      2.823      4.681
REMARK  Name = 
REMARK  8 active torsions:
REMARK  status: ('A' for Active; 'I' for Inactive)
REMARK    1  A    between atoms: C_1  and  C_2
REMARK    2  A    between atoms: C_2  and  O_3
REMARK    3  A    between atoms: O_3  and  C_4
REMARK    4  A    between atoms: C_4  and  C_6
REMARK    5  A    between atoms: C_7  and  N_8
REMARK    6  A    between atoms: N_11  and  S_12
REMARK    7  A    between atoms: S_12  and  C_15
REMARK    8  A    between atoms: C_19  and  C_20
REMARK                            x       y       z     vdW  Elec       q    Type
REMARK                         _______ _______ _______ _____ _____    ______ ____
ROOT
ATOM      1  N   UNL     1       2.100   8.133  19.385  0.00  0.00    +0.000 N 
ATOM      2  C   UNL     1       2.218   6.758  19.478  0.00  0.00    +0.000 C 
ATOM      3  O   UNL     1       1.584   6.032  20.220  0.00  0.00    +0.000 OA
ATOM      4  N   UNL     1       3.150   6.198  18.606  0.00  0.00    +0.000 N 
ATOM      5  H   UNL     1       2.688   8.631  18.726  0.00  0.00    +0.000 HD
ATOM      6  H   UNL     1       3.721   6.742  17.973  0.00  0.00    +0.000 HD
ENDROOT
BRANCH   1   8
ATOM      7  C   UNL     1       0.436   9.988  19.742  0.00  0.00    +0.000 A 
ATOM      8  C   UNL     1       1.235   8.921  20.153  0.00  0.00    +0.000 A 
ATOM      9  S   UNL     1       1.079   8.621  21.823  0.00  0.00    +0.000 S 
ATOM     10  C   UNL     1      -0.021   9.870  22.042  0.00  0.00    +0.000 A 
ATOM     11  C   UNL     1      -0.288  10.559  20.876  0.00  0.00    +0.000 A 
ATOM     12  C   UNL     1      -1.238  11.729  20.892  0.00  0.00    +0.000 C 
ATOM     13  C   UNL     1      -1.482  12.264  22.313  0.00  0.00    +0.000 C 
ATOM     14  C   UNL     1      -1.754  11.132  23.308  0.00  0.00    +0.000 C 
ATOM     15  C   UNL     1      -0.567  10.172  23.401  0.00  0.00    +0.000 C 
BRANCH   7  16
ATOM     16  C   UNL     1       0.406  10.462  18.355  0.00  0.00    +0.000 C 
ATOM     17  O   UNL     1       1.042  11.437  17.967  0.00  0.00    +0.000 OA
BRANCH  16  18
ATOM     18  O   UNL     1      -0.458   9.749  17.580  0.00  0.00    +0.000 OA
BRANCH  18  20
ATOM     19  C   UNL     1      -2.390  10.280  16.269  0.00  0.00    +0.000 C 
ATOM     20  C   UNL     1      -1.849  10.080  17.675  0.00  0.00    +0.000 C 
ENDBRANCH  18  20
ENDBRANCH  16  18
ENDBRANCH   7  16
ENDBRANCH   1   8
BRANCH   4  21
ATOM     21  S   UNL     1       3.549   4.570  18.635  0.00  0.00    +0.000 S 
ATOM     22  O   UNL     1       3.965   4.316  20.001  0.00  0.00    +0.000 OA
ATOM     23  O   UNL     1       2.486   3.783  18.049  0.00  0.00    +0.000 OA
BRANCH  21  24
ATOM     24  C   UNL     1       5.000   4.441  17.606  0.00  0.00    +0.000 A 
ATOM     25  C   UNL     1       6.270   4.656  18.150  0.00  0.00    +0.000 A 
ATOM     26  C   UNL     1       7.396   4.609  17.328  0.00  0.00    +0.000 A 
ATOM     27  C   UNL     1       7.255   4.389  15.958  0.00  0.00    +0.000 A 
ATOM     28  C   UNL     1       5.984   4.212  15.396  0.00  0.00    +0.000 A 
ATOM     29  C   UNL     1       5.818   4.041  13.914  0.00  0.00    +0.000 C 
ATOM     30  C   UNL     1       4.855   4.234  16.229  0.00  0.00    +0.000 A 
ENDBRANCH  21  24
ENDBRANCH   4  21
TORSDOF 6
ENDMDL
MODEL 6
REMARK VINA RESULT:      -7.4      3.515      8.477
REMARK  Name = 
REMARK  8 active torsions:
REMARK  status: ('A' for Active; 'I' for Inactive)
REMARK    1  A    between atoms: C_1  and  C_2
REMARK    2  A    between atoms: C_2  and  O_3
REMARK    3  A    between atoms: O_3  and  C_4
REMARK    4  A    between atoms: C_4  and  C_6
REMARK    5  A    between atoms: C_7  and  N_8
REMARK    6  A    between atoms: N_11  and  S_12
REMARK    7  A    between atoms: S_12  and  C_15
REMARK    8  A    between atoms: C_19  and  C_20
REMARK                            x       y       z     vdW  Elec       q    Type
REMARK                         _______ _______ _______ _____ _____    ______ ____
ROOT
ATOM      1  N   UNL     1       2.057   7.949  19.230  0.00  0.00    +0.000 N 
ATOM      2  C   UNL     1       1.492   9.136  18.800  0.00  0.00    +0.000 C 
ATOM      3  O   UNL     1       1.560   9.596  17.676  0.00  0.00    +0.000 OA
ATOM      4  N   UNL     1       0.773   9.822  19.777  0.00  0.00    +0.000 N 
ATOM      5  H   UNL     1       1.933   7.671  20.197  0.00  0.00    +0.000 HD
ATOM      6  H   UNL     1       0.688   9.505  20.733  0.00  0.00    +0.000 HD
ENDROOT
BRANCH   1   8
ATOM      7  C   UNL     1       2.821   5.692  18.418  0.00  0.00    +0.000 A 
ATOM      8  C   UNL     1       2.822   7.087  18.437  0.00  0.00    +0.000 A 
ATOM      9  S   UNL     1       3.939   7.732  17.324  0.00  0.00    +0.000 S 
ATOM     10  C   UNL     1       4.443   6.217  16.804  0.00  0.00    +0.000 A 
ATOM     11  C   UNL     1       3.804   5.186  17.462  0.00  0.00    +0.000 A 
ATOM     12  C   UNL     1       4.150   3.755  17.138  0.00  0.00    +0.000 C 
ATOM     13  C   UNL     1       5.486   3.634  16.386  0.00  0.00    +0.000 C 
ATOM     14  C   UNL     1       5.592   4.652  15.247  0.00  0.00    +0.000 C 
ATOM     15  C   UNL     1       5.515   6.087  15.770  0.00  0.00    +0.000 C 
BRANCH   7  16
ATOM     16  C   UNL     1       1.964   4.893  19.299  0.00  0.00    +0.000 C 
ATOM     17  O   UNL     1       1.994   4.982  20.523  0.00  0.00    +0.000 OA
BRANCH  16  18
ATOM     18  O   UNL     1       1.198   4.000  18.612  0.00  0.00    +0.000 OA
BRANCH  18  20
ATOM     19  C   UNL     1       1.907   1.779  19.160  0.00  0.00    +0.000 C 
ATOM     20  C   UNL     1       0.799   2.810  19.304  0.00  0.00    +0.000 C 
ENDBRANCH  18  20
ENDBRANCH  16  18
ENDBRANCH   7  16
ENDBRANCH   1   8
BRANCH   4  21
ATOM     21  S   UNL     1       0.113  11.340  19.514  0.00  0.00    +0.000 S 
ATOM     22  O   UNL     1      -0.124  11.874  20.841  0.00  0.00    +0.000 OA
ATOM     23  O   UNL     1       0.923  12.083  18.573  0.00  0.00    +0.000 OA
BRANCH  21  24
ATOM     24  C   UNL     1      -1.480  11.020  18.779  0.00  0.00    +0.000 A 
ATOM     25  C   UNL     1      -1.597  10.117  17.718  0.00  0.00    +0.000 A 
ATOM     26  C   UNL     1      -2.837   9.913  17.111  0.00  0.00    +0.000 A 
ATOM     27  C   UNL     1      -3.951  10.640  17.532  0.00  0.00    +0.000 A 
ATOM     28  C   UNL     1      -3.837  11.576  18.567  0.00  0.00    +0.000 A 
ATOM     29  C   UNL     1      -5.014  12.409  18.981  0.00  0.00    +0.000 C 
ATOM     30  C   UNL     1      -2.594  11.760  19.194  0.00  0.00    +0.000 A 
ENDBRANCH  21  24
ENDBRANCH   4  21
TORSDOF 6
ENDMDL
MODEL 7
REMARK VINA RESULT:      -7.4      2.906      9.022
REMARK  Name = 
REMARK  8 active torsions:
REMARK  status: ('A' for Active; 'I' for Inactive)
REMARK    1  A    between atoms: C_1  and  C_2
REMARK    2  A    between atoms: C_2  and  O_3
REMARK    3  A    between atoms: O_3  and  C_4
REMARK    4  A    between atoms: C_4  and  C_6
REMARK    5  A    between atoms: C_7  and  N_8
REMARK    6  A    between atoms: N_11  and  S_12
REMARK    7  A    between atoms: S_12  and  C_15
REMARK    8  A    between atoms: C_19  and  C_20
REMARK                            x       y       z     vdW  Elec       q    Type
REMARK                         _______ _______ _______ _____ _____    ______ ____
ROOT
ATOM      1  N   UNL     1       2.531   7.576  18.954  0.00  0.00    +0.000 N 
ATOM      2  C   UNL     1       1.825   8.695  18.549  0.00  0.00    +0.000 C 
ATOM      3  O   UNL     1       1.755   9.126  17.414  0.00  0.00    +0.000 OA
ATOM      4  N   UNL     1       1.131   9.341  19.570  0.00  0.00    +0.000 N 
ATOM      5  H   UNL     1       2.515   7.316  19.934  0.00  0.00    +0.000 HD
ATOM      6  H   UNL     1       1.157   9.046  20.537  0.00  0.00    +0.000 HD
ENDROOT
BRANCH   1   8
ATOM      7  C   UNL     1       3.480   5.380  18.171  0.00  0.00    +0.000 A 
ATOM      8  C   UNL     1       3.302   6.763  18.116  0.00  0.00    +0.000 A 
ATOM      9  S   UNL     1       4.186   7.463  16.840  0.00  0.00    +0.000 S 
ATOM     10  C   UNL     1       4.817   5.990  16.339  0.00  0.00    +0.000 A 
ATOM     11  C   UNL     1       4.400   4.935  17.125  0.00  0.00    +0.000 A 
ATOM     12  C   UNL     1       4.888   3.538  16.834  0.00  0.00    +0.000 C 
ATOM     13  C   UNL     1       6.130   3.532  15.927  0.00  0.00    +0.000 C 
ATOM     14  C   UNL     1       5.966   4.476  14.732  0.00  0.00    +0.000 C 
ATOM     15  C   UNL     1       5.766   5.923  15.186  0.00  0.00    +0.000 C 
BRANCH   7  16
ATOM     16  C   UNL     1       2.845   4.543  19.193  0.00  0.00    +0.000 C 
ATOM     17  O   UNL     1       3.479   3.944  20.056  0.00  0.00    +0.000 OA
BRANCH  16  18
ATOM     18  O   UNL     1       1.496   4.449  19.026  0.00  0.00    +0.000 OA
BRANCH  18  20
ATOM     19  C   UNL     1       0.699   2.201  18.813  0.00  0.00    +0.000 C 
ATOM     20  C   UNL     1       0.819   3.403  19.735  0.00  0.00    +0.000 C 
ENDBRANCH  18  20
ENDBRANCH  16  18
ENDBRANCH   7  16
ENDBRANCH   1   8
BRANCH   4  21
ATOM     21  S   UNL     1       0.315  10.786  19.332  0.00  0.00    +0.000 S 
ATOM     22  O   UNL     1       1.361  11.781  19.189  0.00  0.00    +0.000 OA
ATOM     23  O   UNL     1      -0.681  10.634  18.295  0.00  0.00    +0.000 OA
BRANCH  21  24
ATOM     24  C   UNL     1      -0.507  11.102  20.883  0.00  0.00    +0.000 A 
ATOM     25  C   UNL     1      -0.271  10.276  21.986  0.00  0.00    +0.000 A 
ATOM     26  C   UNL     1      -0.960  10.494  23.179  0.00  0.00    +0.000 A 
ATOM     27  C   UNL     1      -1.915  11.508  23.262  0.00  0.00    +0.000 A 
ATOM     28  C   UNL     1      -2.189  12.316  22.150  0.00  0.00    +0.000 A 
ATOM     29  C   UNL     1      -3.261  13.364  22.210  0.00  0.00    +0.000 C 
ATOM     30  C   UNL     1      -1.475  12.111  20.960  0.00  0.00    +0.000 A 
ENDBRANCH  21  24
ENDBRANCH   4  21
TORSDOF 6
ENDMDL
MODEL 8
REMARK VINA RESULT:      -7.3      2.972      8.061
REMARK  Name = 
REMARK  8 active torsions:
REMARK  status: ('A' for Active; 'I' for Inactive)
REMARK    1  A    between atoms: C_1  and  C_2
REMARK    2  A    between atoms: C_2  and  O_3
REMARK    3  A    between atoms: O_3  and  C_4
REMARK    4  A    between atoms: C_4  and  C_6
REMARK    5  A    between atoms: C_7  and  N_8
REMARK    6  A    between atoms: N_11  and  S_12
REMARK    7  A    between atoms: S_12  and  C_15
REMARK    8  A    between atoms: C_19  and  C_20
REMARK                            x       y       z     vdW  Elec       q    Type
REMARK                         _______ _______ _______ _____ _____    ______ ____
ROOT
ATOM      1  N   UNL     1       1.996   6.915  19.632  0.00  0.00    +0.000 N 
ATOM      2  C   UNL     1       1.652   8.249  19.762  0.00  0.00    +0.000 C 
ATOM      3  O   UNL     1       2.011   9.156  19.036  0.00  0.00    +0.000 OA
ATOM      4  N   UNL     1       0.797   8.523  20.828  0.00  0.00    +0.000 N 
ATOM      5  H   UNL     1       1.634   6.249  20.304  0.00  0.00    +0.000 HD
ATOM      6  H   UNL     1       0.472   7.821  21.478  0.00  0.00    +0.000 HD
ENDROOT
BRANCH   1   8
ATOM      7  C   UNL     1       2.889   5.092  18.143  0.00  0.00    +0.000 A 
ATOM      8  C   UNL     1       2.839   6.394  18.643  0.00  0.00    +0.000 A 
ATOM      9  S   UNL     1       3.996   7.401  17.903  0.00  0.00    +0.000 S 
ATOM     10  C   UNL     1       4.585   6.169  16.926  0.00  0.00    +0.000 A 
ATOM     11  C   UNL     1       3.946   4.965  17.140  0.00  0.00    +0.000 A 
ATOM     12  C   UNL     1       4.363   3.740  16.365  0.00  0.00    +0.000 C 
ATOM     13  C   UNL     1       5.744   3.907  15.711  0.00  0.00    +0.000 C 
ATOM     14  C   UNL     1       5.881   5.259  15.005  0.00  0.00    +0.000 C 
ATOM     15  C   UNL     1       5.721   6.421  15.987  0.00  0.00    +0.000 C 
BRANCH   7  16
ATOM     16  C   UNL     1       2.011   4.025  18.631  0.00  0.00    +0.000 C 
ATOM     17  O   UNL     1       1.093   3.557  17.965  0.00  0.00    +0.000 OA
BRANCH  16  18
ATOM     18  O   UNL     1       2.283   3.676  19.920  0.00  0.00    +0.000 OA
BRANCH  18  20
ATOM     19  C   UNL     1       1.610   2.533  21.914  0.00  0.00    +0.000 C 
ATOM     20  C   UNL     1       1.164   3.450  20.787  0.00  0.00    +0.000 C 
ENDBRANCH  18  20
ENDBRANCH  16  18
ENDBRANCH   7  16
ENDBRANCH   1   8
BRANCH   4  21
ATOM     21  S   UNL     1       0.353  10.083  21.250  0.00  0.00    +0.000 S 
ATOM     22  O   UNL     1      -0.668   9.914  22.266  0.00  0.00    +0.000 OA
ATOM     23  O   UNL     1       1.528  10.879  21.536  0.00  0.00    +0.000 OA
BRANCH  21  24
ATOM     24  C   UNL     1      -0.448  10.735  19.796  0.00  0.00    +0.000 A 
ATOM     25  C   UNL     1      -0.206  12.051  19.390  0.00  0.00    +0.000 A 
ATOM     26  C   UNL     1      -0.878  12.573  18.285  0.00  0.00    +0.000 A 
ATOM     27  C   UNL     1      -1.824  11.799  17.610  0.00  0.00    +0.000 A 
ATOM     28  C   UNL     1      -2.104  10.494  18.034  0.00  0.00    +0.000 A 
ATOM     29  C   UNL     1      -3.166   9.679  17.355  0.00  0.00    +0.000 C 
ATOM     30  C   UNL     1      -1.406   9.962  19.129  0.00  0.00    +0.000 A 
ENDBRANCH  21  24
ENDBRANCH   4  21
TORSDOF 6
ENDMDL
MODEL 9
REMARK VINA RESULT:      -7.3      4.087      6.285
REMARK  Name = 
REMARK  8 active torsions:
REMARK  status: ('A' for Active; 'I' for Inactive)
REMARK    1  A    between atoms: C_1  and  C_2
REMARK    2  A    between atoms: C_2  and  O_3
REMARK    3  A    between atoms: O_3  and  C_4
REMARK    4  A    between atoms: C_4  and  C_6
REMARK    5  A    between atoms: C_7  and  N_8
REMARK    6  A    between atoms: N_11  and  S_12
REMARK    7  A    between atoms: S_12  and  C_15
REMARK    8  A    between atoms: C_19  and  C_20
REMARK                            x       y       z     vdW  Elec       q    Type
REMARK                         _______ _______ _______ _____ _____    ______ ____
ROOT
ATOM      1  N   UNL     1       1.376   9.013  18.856  0.00  0.00    +0.000 N 
ATOM      2  C   UNL     1       2.038   7.835  19.150  0.00  0.00    +0.000 C 
ATOM      3  O   UNL     1       1.988   7.228  20.203  0.00  0.00    +0.000 OA
ATOM      4  N   UNL     1       2.804   7.326  18.103  0.00  0.00    +0.000 N 
ATOM      5  H   UNL     1       1.500   9.427  17.939  0.00  0.00    +0.000 HD
ATOM      6  H   UNL     1       2.903   7.785  17.208  0.00  0.00    +0.000 HD
ENDROOT
BRANCH   1   8
ATOM      7  C   UNL     1      -0.459  10.633  19.444  0.00  0.00    +0.000 A 
ATOM      8  C   UNL     1       0.549   9.714  19.740  0.00  0.00    +0.000 A 
ATOM      9  S   UNL     1       0.728   9.493  21.420  0.00  0.00    +0.000 S 
ATOM     10  C   UNL     1      -0.492  10.585  21.792  0.00  0.00    +0.000 A 
ATOM     11  C   UNL     1      -1.054  11.161  20.671  0.00  0.00    +0.000 A 
ATOM     12  C   UNL     1      -2.151  12.185  20.818  0.00  0.00    +0.000 C 
ATOM     13  C   UNL     1      -2.224  12.761  22.242  0.00  0.00    +0.000 C 
ATOM     14  C   UNL     1      -2.150  11.661  23.305  0.00  0.00    +0.000 C 
ATOM     15  C   UNL     1      -0.835  10.885  23.216  0.00  0.00    +0.000 C 
BRANCH   7  16
ATOM     16  C   UNL     1      -0.797  11.017  18.070  0.00  0.00    +0.000 C 
ATOM     17  O   UNL     1      -0.809  12.182  17.685  0.00  0.00    +0.000 OA
BRANCH  16  18
ATOM     18  O   UNL     1      -1.165   9.951  17.307  0.00  0.00    +0.000 OA
BRANCH  18  20
ATOM     19  C   UNL     1      -2.785  10.031  15.546  0.00  0.00    +0.000 C 
ATOM     20  C   UNL     1      -2.563   9.795  17.030  0.00  0.00    +0.000 C 
ENDBRANCH  18  20
ENDBRANCH  16  18
ENDBRANCH   7  16
ENDBRANCH   1   8
BRANCH   4  21
ATOM     21  S   UNL     1       3.789   5.980  18.277  0.00  0.00    +0.000 S 
ATOM     22  O   UNL     1       4.272   5.702  16.938  0.00  0.00    +0.000 OA
ATOM     23  O   UNL     1       4.732   6.185  19.355  0.00  0.00    +0.000 OA
BRANCH  21  24
ATOM     24  C   UNL     1       2.677   4.660  18.724  0.00  0.00    +0.000 A 
ATOM     25  C   UNL     1       1.694   4.232  17.825  0.00  0.00    +0.000 A 
ATOM     26  C   UNL     1       0.792   3.238  18.202  0.00  0.00    +0.000 A 
ATOM     27  C   UNL     1       0.839   2.699  19.487  0.00  0.00    +0.000 A 
ATOM     28  C   UNL     1       1.794   3.148  20.409  0.00  0.00    +0.000 A 
ATOM     29  C   UNL     1       1.809   2.621  21.814  0.00  0.00    +0.000 C 
ATOM     30  C   UNL     1       2.717   4.130  20.019  0.00  0.00    +0.000 A 
ENDBRANCH  21  24
ENDBRANCH   4  21
TORSDOF 6
ENDMDL
