MODEL 1
REMARK VINA RESULT:      -8.5      0.000      0.000
REMARK  Name = 
REMARK  5 active torsions:
REMARK  status: ('A' for Active; 'I' for Inactive)
REMARK    1  A    between atoms: C_6  and  C_7
REMARK    2  A    between atoms: N_17  and  C_18
REMARK    3  A    between atoms: C_18  and  C_19
REMARK    4  A    between atoms: C_19  and  N_20
REMARK    5  A    between atoms: N_23  and  C_24
REMARK                            x       y       z     vdW  Elec       q    Type
REMARK                         _______ _______ _______ _____ _____    ______ ____
ROOT
ATOM      1  O   UNL     1       0.867   8.215  21.808  0.00  0.00    +0.000 OA
ATOM      2  C   UNL     1       1.403   8.047  20.710  0.00  0.00    +0.000 A 
ATOM      3  N   UNL     1       1.984   6.828  20.421  0.00  0.00    +0.000 N 
ATOM      4  C   UNL     1       2.636   6.609  19.240  0.00  0.00    +0.000 A 
ATOM      5  C   UNL     1       3.397   5.529  18.759  0.00  0.00    +0.000 A 
ATOM      6  C   UNL     1       3.982   5.949  17.567  0.00  0.00    +0.000 A 
ATOM      7  N   UNL     1       3.395   7.157  17.243  0.00  0.00    +0.000 N 
ATOM      8  C   UNL     1       2.653   7.592  18.300  0.00  0.00    +0.000 A 
ATOM      9  C   UNL     1       2.018   8.858  18.448  0.00  0.00    +0.000 A 
ATOM     10  O   UNL     1       1.979   9.676  17.537  0.00  0.00    +0.000 OA
ATOM     11  N   UNL     1       1.431   9.027  19.703  0.00  0.00    +0.000 N 
ATOM     12  H   UNL     1       1.976   6.119  21.141  0.00  0.00    +0.000 HD
ATOM     13  H   UNL     1       3.573   7.703  16.409  0.00  0.00    +0.000 HD
ENDROOT
BRANCH   6  14
ATOM     14  C   UNL     1       5.078   5.374  16.791  0.00  0.00    +0.000 A 
ATOM     15  C   UNL     1       6.327   6.003  16.737  0.00  0.00    +0.000 A 
ATOM     16  C   UNL     1       7.327   5.516  15.892  0.00  0.00    +0.000 A 
ATOM     17  C   UNL     1       7.090   4.398  15.094  0.00  0.00    +0.000 A 
ATOM     18  C   UNL     1       5.858   3.754  15.150  0.00  0.00    +0.000 A 
ATOM     19  C   UNL     1       4.859   4.237  15.994  0.00  0.00    +0.000 A 
ENDBRANCH   6  14
BRANCH  11  20
ATOM     20  C   UNL     1       0.714  10.271  19.925  0.00  0.00    +0.000 C 
BRANCH  20  21
ATOM     21  C   UNL     1      -0.776  10.282  19.540  0.00  0.00    +0.000 C 
BRANCH  21  22
ATOM     22  N   UNL     1      -1.277  10.948  18.318  0.00  0.00    +0.000 NA
ATOM     23  C   UNL     1      -2.330  10.220  17.561  0.00  0.00    +0.000 C 
ATOM     24  C   UNL     1      -3.807  10.221  18.095  0.00  0.00    +0.000 C 
ATOM     25  N   UNL     1      -4.201  11.514  18.701  0.00  0.00    +0.000 N 
ATOM     26  C   UNL     1      -3.158  12.117  19.538  0.00  0.00    +0.000 C 
ATOM     27  C   UNL     1      -1.865  12.261  18.704  0.00  0.00    +0.000 C 
BRANCH  25  28
ATOM     28  C   UNL     1      -5.393  12.186  18.448  0.00  0.00    +0.000 A 
ATOM     29  C   UNL     1      -5.697  12.572  17.118  0.00  0.00    +0.000 A 
ATOM     30  C   UNL     1      -6.853  13.270  16.756  0.00  0.00    +0.000 A 
ATOM     31  C   UNL     1      -7.793  13.588  17.718  0.00  0.00    +0.000 A 
ATOM     32  C   UNL     1      -7.552  13.225  19.040  0.00  0.00    +0.000 A 
ATOM     33  C   UNL     1      -6.366  12.554  19.408  0.00  0.00    +0.000 A 
ATOM     34 CL   UNL     1      -6.164  12.335  21.118  0.00  0.00    +0.000 Cl
ENDBRANCH  25  28
ENDBRANCH  21  22
ENDBRANCH  20  21
ENDBRANCH  11  20
TORSDOF 5
ENDMDL
MODEL 2
REMARK VINA RESULT:      -8.3      4.027      4.744
REMARK  Name = 
REMARK  5 active torsions:
REMARK  status: ('A' for Active; 'I' for Inactive)
REMARK    1  A    between atoms: C_6  and  C_7
REMARK    2  A    between atoms: N_17  and  C_18
REMARK    3  A    between atoms: C_18  and  C_19
REMARK    4  A    between atoms: C_19  and  N_20
REMARK    5  A    between atoms: N_23  and  C_24
REMARK                            x       y       z     vdW  Elec       q    Type
REMARK                         _______ _______ _______ _____ _____    ______ ____
ROOT
ATOM      1  O   UNL     1       0.542   8.544  22.116  0.00  0.00    +0.000 OA
ATOM      2  C   UNL     1       1.097   8.321  21.037  0.00  0.00    +0.000 A 
ATOM      3  N   UNL     1       1.781   7.134  20.863  0.00  0.00    +0.000 N 
ATOM      4  C   UNL     1       2.458   6.862  19.707  0.00  0.00    +0.000 A 
ATOM      5  C   UNL     1       3.310   5.810  19.328  0.00  0.00    +0.000 A 
ATOM      6  C   UNL     1       3.865   6.165  18.101  0.00  0.00    +0.000 A 
ATOM      7  N   UNL     1       3.181   7.284  17.667  0.00  0.00    +0.000 N 
ATOM      8  C   UNL     1       2.397   7.751  18.679  0.00  0.00    +0.000 A 
ATOM      9  C   UNL     1       1.657   8.967  18.709  0.00  0.00    +0.000 A 
ATOM     10  O   UNL     1       1.555   9.690  17.726  0.00  0.00    +0.000 OA
ATOM     11  N   UNL     1       1.050   9.202  19.944  0.00  0.00    +0.000 N 
ATOM     12  H   UNL     1       1.829   6.497  21.646  0.00  0.00    +0.000 HD
ATOM     13  H   UNL     1       3.318   7.762  16.785  0.00  0.00    +0.000 HD
ENDROOT
BRANCH   6  14
ATOM     14  C   UNL     1       5.012   5.615  17.381  0.00  0.00    +0.000 A 
ATOM     15  C   UNL     1       4.839   4.929  16.173  0.00  0.00    +0.000 A 
ATOM     16  C   UNL     1       5.922   4.297  15.558  0.00  0.00    +0.000 A 
ATOM     17  C   UNL     1       7.187   4.344  16.142  0.00  0.00    +0.000 A 
ATOM     18  C   UNL     1       7.375   5.036  17.334  0.00  0.00    +0.000 A 
ATOM     19  C   UNL     1       6.295   5.669  17.949  0.00  0.00    +0.000 A 
ENDBRANCH   6  14
BRANCH  11  20
ATOM     20  C   UNL     1       0.229  10.396  20.050  0.00  0.00    +0.000 C 
BRANCH  20  21
ATOM     21  C   UNL     1       0.708  11.473  21.041  0.00  0.00    +0.000 C 
BRANCH  21  22
ATOM     22  N   UNL     1       1.776  12.441  20.708  0.00  0.00    +0.000 NA
ATOM     23  C   UNL     1       2.061  12.630  19.261  0.00  0.00    +0.000 C 
ATOM     24  C   UNL     1       1.085  13.495  18.387  0.00  0.00    +0.000 C 
ATOM     25  N   UNL     1       0.545  14.667  19.113  0.00  0.00    +0.000 N 
ATOM     26  C   UNL     1       0.166  14.380  20.501  0.00  0.00    +0.000 C 
ATOM     27  C   UNL     1       1.382  13.776  21.239  0.00  0.00    +0.000 C 
BRANCH  25  28
ATOM     28  C   UNL     1       0.480  15.962  18.608  0.00  0.00    +0.000 A 
ATOM     29  C   UNL     1      -0.771  16.628  18.580  0.00  0.00    +0.000 A 
ATOM     30  C   UNL     1      -0.954  17.919  18.074  0.00  0.00    +0.000 A 
ATOM     31  C   UNL     1       0.132  18.630  17.598  0.00  0.00    +0.000 A 
ATOM     32  C   UNL     1       1.387  18.029  17.610  0.00  0.00    +0.000 A 
ATOM     33  C   UNL     1       1.562  16.712  18.086  0.00  0.00    +0.000 A 
ATOM     34 CL   UNL     1       3.161  16.074  17.867  0.00  0.00    +0.000 Cl
ENDBRANCH  25  28
ENDBRANCH  21  22
ENDBRANCH  20  21
ENDBRANCH  11  20
TORSDOF 5
ENDMDL
MODEL 3
REMARK VINA RESULT:      -8.2      2.841      3.416
REMARK  Name = 
REMARK  5 active torsions:
REMARK  status: ('A' for Active; 'I' for Inactive)
REMARK    1  A    between atoms: C_6  and  C_7
REMARK    2  A    between atoms: N_17  and  C_18
REMARK    3  A    between atoms: C_18  and  C_19
REMARK    4  A    between atoms: C_19  and  N_20
REMARK    5  A    between atoms: N_23  and  C_24
REMARK                            x       y       z     vdW  Elec       q    Type
REMARK                         _______ _______ _______ _____ _____    ______ ____
ROOT
ATOM      1  O   UNL     1       0.579   8.730  21.910  0.00  0.00    +0.000 OA
ATOM      2  C   UNL     1       1.152   8.448  20.855  0.00  0.00    +0.000 A 
ATOM      3  N   UNL     1       1.818   7.243  20.750  0.00  0.00    +0.000 N 
ATOM      4  C   UNL     1       2.514   6.907  19.621  0.00  0.00    +0.000 A 
ATOM      5  C   UNL     1       3.355   5.825  19.309  0.00  0.00    +0.000 A 
ATOM      6  C   UNL     1       3.941   6.114  18.079  0.00  0.00    +0.000 A 
ATOM      7  N   UNL     1       3.284   7.222  17.580  0.00  0.00    +0.000 N 
ATOM      8  C   UNL     1       2.489   7.748  18.553  0.00  0.00    +0.000 A 
ATOM      9  C   UNL     1       1.769   8.976  18.512  0.00  0.00    +0.000 A 
ATOM     10  O   UNL     1       1.699   9.655  17.494  0.00  0.00    +0.000 OA
ATOM     11  N   UNL     1       1.141   9.278  19.721  0.00  0.00    +0.000 N 
ATOM     12  H   UNL     1       1.840   6.642  21.562  0.00  0.00    +0.000 HD
ATOM     13  H   UNL     1       3.447   7.657  16.680  0.00  0.00    +0.000 HD
ENDROOT
BRANCH   6  14
ATOM     14  C   UNL     1       5.091   5.513  17.408  0.00  0.00    +0.000 A 
ATOM     15  C   UNL     1       6.194   5.059  18.142  0.00  0.00    +0.000 A 
ATOM     16  C   UNL     1       7.340   4.605  17.486  0.00  0.00    +0.000 A 
ATOM     17  C   UNL     1       7.396   4.598  16.093  0.00  0.00    +0.000 A 
ATOM     18  C   UNL     1       6.301   5.031  15.352  0.00  0.00    +0.000 A 
ATOM     19  C   UNL     1       5.155   5.484  16.005  0.00  0.00    +0.000 A 
ENDBRANCH   6  14
BRANCH  11  20
ATOM     20  C   UNL     1       0.339  10.489  19.755  0.00  0.00    +0.000 C 
BRANCH  20  21
ATOM     21  C   UNL     1       1.012  11.742  20.345  0.00  0.00    +0.000 C 
BRANCH  21  22
ATOM     22  N   UNL     1       0.529  13.111  20.063  0.00  0.00    +0.000 NA
ATOM     23  C   UNL     1      -0.842  13.218  19.496  0.00  0.00    +0.000 C 
ATOM     24  C   UNL     1      -2.085  13.036  20.437  0.00  0.00    +0.000 C 
ATOM     25  N   UNL     1      -1.880  13.617  21.784  0.00  0.00    +0.000 N 
ATOM     26  C   UNL     1      -0.545  13.367  22.339  0.00  0.00    +0.000 C 
ATOM     27  C   UNL     1       0.518  13.879  21.341  0.00  0.00    +0.000 C 
BRANCH  25  28
ATOM     28  C   UNL     1      -2.795  14.420  22.457  0.00  0.00    +0.000 A 
ATOM     29  C   UNL     1      -2.834  15.808  22.170  0.00  0.00    +0.000 A 
ATOM     30  C   UNL     1      -3.695  16.710  22.803  0.00  0.00    +0.000 A 
ATOM     31  C   UNL     1      -4.600  16.250  23.742  0.00  0.00    +0.000 A 
ATOM     32  C   UNL     1      -4.614  14.895  24.056  0.00  0.00    +0.000 A 
ATOM     33  C   UNL     1      -3.717  13.994  23.443  0.00  0.00    +0.000 A 
ATOM     34 CL   UNL     1      -3.768  12.381  24.082  0.00  0.00    +0.000 Cl
ENDBRANCH  25  28
ENDBRANCH  21  22
ENDBRANCH  20  21
ENDBRANCH  11  20
TORSDOF 5
ENDMDL
MODEL 4
REMARK VINA RESULT:      -8.1      2.171      2.868
REMARK  Name = 
REMARK  5 active torsions:
REMARK  status: ('A' for Active; 'I' for Inactive)
REMARK    1  A    between atoms: C_6  and  C_7
REMARK    2  A    between atoms: N_17  and  C_18
REMARK    3  A    between atoms: C_18  and  C_19
REMARK    4  A    between atoms: C_19  and  N_20
REMARK    5  A    between atoms: N_23  and  C_24
REMARK                            x       y       z     vdW  Elec       q    Type
REMARK                         _______ _______ _______ _____ _____    ______ ____
ROOT
ATOM      1  O   UNL     1       0.448   8.901  21.942  0.00  0.00    +0.000 OA
ATOM      2  C   UNL     1       1.034   8.587  20.903  0.00  0.00    +0.000 A 
ATOM      3  N   UNL     1       1.652   7.354  20.824  0.00  0.00    +0.000 N 
ATOM      4  C   UNL     1       2.359   6.979  19.715  0.00  0.00    +0.000 A 
ATOM      5  C   UNL     1       3.162   5.860  19.433  0.00  0.00    +0.000 A 
ATOM      6  C   UNL     1       3.789   6.114  18.215  0.00  0.00    +0.000 A 
ATOM      7  N   UNL     1       3.193   7.245  17.691  0.00  0.00    +0.000 N 
ATOM      8  C   UNL     1       2.397   7.812  18.641  0.00  0.00    +0.000 A 
ATOM      9  C   UNL     1       1.731   9.069  18.573  0.00  0.00    +0.000 A 
ATOM     10  O   UNL     1       1.715   9.741  17.549  0.00  0.00    +0.000 OA
ATOM     11  N   UNL     1       1.087   9.407  19.764  0.00  0.00    +0.000 N 
ATOM     12  H   UNL     1       1.628   6.760  21.641  0.00  0.00    +0.000 HD
ATOM     13  H   UNL     1       3.396   7.665  16.793  0.00  0.00    +0.000 HD
ENDROOT
BRANCH   6  14
ATOM     14  C   UNL     1       4.929   5.459  17.578  0.00  0.00    +0.000 A 
ATOM     15  C   UNL     1       6.241   5.821  17.905  0.00  0.00    +0.000 A 
ATOM     16  C   UNL     1       7.320   5.283  17.201  0.00  0.00    +0.000 A 
ATOM     17  C   UNL     1       7.099   4.377  16.164  0.00  0.00    +0.000 A 
ATOM     18  C   UNL     1       5.801   3.996  15.839  0.00  0.00    +0.000 A 
ATOM     19  C   UNL     1       4.723   4.532  16.543  0.00  0.00    +0.000 A 
ENDBRANCH   6  14
BRANCH  11  20
ATOM     20  C   UNL     1       0.336  10.651  19.769  0.00  0.00    +0.000 C 
BRANCH  20  21
ATOM     21  C   UNL     1       0.925  11.805  20.601  0.00  0.00    +0.000 C 
BRANCH  21  22
ATOM     22  N   UNL     1       0.195  13.071  20.833  0.00  0.00    +0.000 NA
ATOM     23  C   UNL     1      -0.925  13.361  19.899  0.00  0.00    +0.000 C 
ATOM     24  C   UNL     1      -2.293  12.610  20.074  0.00  0.00    +0.000 C 
ATOM     25  N   UNL     1      -2.654  12.392  21.494  0.00  0.00    +0.000 N 
ATOM     26  C   UNL     1      -1.524  11.984  22.336  0.00  0.00    +0.000 C 
ATOM     27  C   UNL     1      -0.394  13.030  22.201  0.00  0.00    +0.000 C 
BRANCH  25  28
ATOM     28  C   UNL     1      -3.906  12.637  22.048  0.00  0.00    +0.000 A 
ATOM     29  C   UNL     1      -4.006  12.884  23.441  0.00  0.00    +0.000 A 
ATOM     30  C   UNL     1      -5.215  13.119  24.105  0.00  0.00    +0.000 A 
ATOM     31  C   UNL     1      -6.395  13.155  23.387  0.00  0.00    +0.000 A 
ATOM     32  C   UNL     1      -6.357  12.930  22.015  0.00  0.00    +0.000 A 
ATOM     33  C   UNL     1      -5.140  12.655  21.354  0.00  0.00    +0.000 A 
ATOM     34 CL   UNL     1      -5.309  12.235  19.678  0.00  0.00    +0.000 Cl
ENDBRANCH  25  28
ENDBRANCH  21  22
ENDBRANCH  20  21
ENDBRANCH  11  20
TORSDOF 5
ENDMDL
MODEL 5
REMARK VINA RESULT:      -8.1      4.941      7.359
REMARK  Name = 
REMARK  5 active torsions:
REMARK  status: ('A' for Active; 'I' for Inactive)
REMARK    1  A    between atoms: C_6  and  C_7
REMARK    2  A    between atoms: N_17  and  C_18
REMARK    3  A    between atoms: C_18  and  C_19
REMARK    4  A    between atoms: C_19  and  N_20
REMARK    5  A    between atoms: N_23  and  C_24
REMARK                            x       y       z     vdW  Elec       q    Type
REMARK                         _______ _______ _______ _____ _____    ______ ____
ROOT
ATOM      1  O   UNL     1       5.642   3.549  19.247  0.00  0.00    +0.000 OA
ATOM      2  C   UNL     1       5.971   4.597  18.687  0.00  0.00    +0.000 A 
ATOM      3  N   UNL     1       7.082   5.283  19.137  0.00  0.00    +0.000 N 
ATOM      4  C   UNL     1       7.457   6.477  18.585  0.00  0.00    +0.000 A 
ATOM      5  C   UNL     1       8.449   7.413  18.927  0.00  0.00    +0.000 A 
ATOM      6  C   UNL     1       8.235   8.533  18.127  0.00  0.00    +0.000 A 
ATOM      7  N   UNL     1       7.291   8.172  17.185  0.00  0.00    +0.000 N 
ATOM      8  C   UNL     1       6.761   6.963  17.523  0.00  0.00    +0.000 A 
ATOM      9  C   UNL     1       5.652   6.306  16.918  0.00  0.00    +0.000 A 
ATOM     10  O   UNL     1       5.116   6.736  15.904  0.00  0.00    +0.000 OA
ATOM     11  N   UNL     1       5.292   5.130  17.578  0.00  0.00    +0.000 N 
ATOM     12  H   UNL     1       7.573   4.914  19.939  0.00  0.00    +0.000 HD
ATOM     13  H   UNL     1       6.950   8.753  16.429  0.00  0.00    +0.000 HD
ENDROOT
BRANCH   6  14
ATOM     14  C   UNL     1       8.757   9.894  18.237  0.00  0.00    +0.000 A 
ATOM     15  C   UNL     1       9.738  10.212  19.183  0.00  0.00    +0.000 A 
ATOM     16  C   UNL     1      10.137  11.538  19.368  0.00  0.00    +0.000 A 
ATOM     17  C   UNL     1       9.562  12.557  18.610  0.00  0.00    +0.000 A 
ATOM     18  C   UNL     1       8.597  12.252  17.655  0.00  0.00    +0.000 A 
ATOM     19  C   UNL     1       8.198  10.928  17.469  0.00  0.00    +0.000 A 
ENDBRANCH   6  14
BRANCH  11  20
ATOM     20  C   UNL     1       4.202   4.365  16.998  0.00  0.00    +0.000 C 
BRANCH  20  21
ATOM     21  C   UNL     1       3.252   3.665  17.988  0.00  0.00    +0.000 C 
BRANCH  21  22
ATOM     22  N   UNL     1       1.873   4.138  18.236  0.00  0.00    +0.000 NA
ATOM     23  C   UNL     1       1.454   4.216  19.660  0.00  0.00    +0.000 C 
ATOM     24  C   UNL     1       1.958   5.406  20.551  0.00  0.00    +0.000 C 
ATOM     25  N   UNL     1       2.035   6.688  19.812  0.00  0.00    +0.000 N 
ATOM     26  C   UNL     1       2.576   6.557  18.455  0.00  0.00    +0.000 C 
ATOM     27  C   UNL     1       1.739   5.513  17.679  0.00  0.00    +0.000 C 
BRANCH  25  28
ATOM     28  C   UNL     1       1.556   7.909  20.276  0.00  0.00    +0.000 A 
ATOM     29  C   UNL     1       1.230   8.044  21.649  0.00  0.00    +0.000 A 
ATOM     30  C   UNL     1       0.720   9.216  22.217  0.00  0.00    +0.000 A 
ATOM     31  C   UNL     1       0.546  10.339  21.430  0.00  0.00    +0.000 A 
ATOM     32  C   UNL     1       0.860  10.268  20.076  0.00  0.00    +0.000 A 
ATOM     33  C   UNL     1       1.338   9.072  19.499  0.00  0.00    +0.000 A 
ATOM     34 CL   UNL     1       1.513   9.125  17.773  0.00  0.00    +0.000 Cl
ENDBRANCH  25  28
ENDBRANCH  21  22
ENDBRANCH  20  21
ENDBRANCH  11  20
TORSDOF 5
ENDMDL
MODEL 6
REMARK VINA RESULT:      -8.1      2.769      3.234
REMARK  Name = 
REMARK  5 active torsions:
REMARK  status: ('A' for Active; 'I' for Inactive)
REMARK    1  A    between atoms: C_6  and  C_7
REMARK    2  A    between atoms: N_17  and  C_18
REMARK    3  A    between atoms: C_18  and  C_19
REMARK    4  A    between atoms: C_19  and  N_20
REMARK    5  A    between atoms: N_23  and  C_24
REMARK                            x       y       z     vdW  Elec       q    Type
REMARK                         _______ _______ _______ _____ _____    ______ ____
ROOT
ATOM      1  O   UNL     1       0.575   8.855  22.016  0.00  0.00    +0.000 OA
ATOM      2  C   UNL     1       1.108   8.573  20.940  0.00  0.00    +0.000 A 
ATOM      3  N   UNL     1       1.756   7.361  20.805  0.00  0.00    +0.000 N 
ATOM      4  C   UNL     1       2.408   7.024  19.651  0.00  0.00    +0.000 A 
ATOM      5  C   UNL     1       3.225   5.934  19.304  0.00  0.00    +0.000 A 
ATOM      6  C   UNL     1       3.772   6.224  18.057  0.00  0.00    +0.000 A 
ATOM      7  N   UNL     1       3.113   7.344  17.587  0.00  0.00    +0.000 N 
ATOM      8  C   UNL     1       2.357   7.873  18.590  0.00  0.00    +0.000 A 
ATOM      9  C   UNL     1       1.652   9.109  18.581  0.00  0.00    +0.000 A 
ATOM     10  O   UNL     1       1.556   9.796  17.571  0.00  0.00    +0.000 OA
ATOM     11  N   UNL     1       1.069   9.411  19.813  0.00  0.00    +0.000 N 
ATOM     12  H   UNL     1       1.797   6.755  21.612  0.00  0.00    +0.000 HD
ATOM     13  H   UNL     1       3.251   7.783  16.685  0.00  0.00    +0.000 HD
ENDROOT
BRANCH   6  14
ATOM     14  C   UNL     1       4.892   5.613  17.343  0.00  0.00    +0.000 A 
ATOM     15  C   UNL     1       6.139   6.246  17.289  0.00  0.00    +0.000 A 
ATOM     16  C   UNL     1       7.164   5.719  16.499  0.00  0.00    +0.000 A 
ATOM     17  C   UNL     1       6.954   4.557  15.759  0.00  0.00    +0.000 A 
ATOM     18  C   UNL     1       5.724   3.910  15.817  0.00  0.00    +0.000 A 
ATOM     19  C   UNL     1       4.700   4.434  16.606  0.00  0.00    +0.000 A 
ENDBRANCH   6  14
BRANCH  11  20
ATOM     20  C   UNL     1       0.284  10.631  19.882  0.00  0.00    +0.000 C 
BRANCH  20  21
ATOM     21  C   UNL     1       0.943  11.834  20.581  0.00  0.00    +0.000 C 
BRANCH  21  22
ATOM     22  N   UNL     1       0.386  13.202  20.505  0.00  0.00    +0.000 NA
ATOM     23  C   UNL     1      -0.864  13.356  19.714  0.00  0.00    +0.000 C 
ATOM     24  C   UNL     1      -2.232  12.897  20.331  0.00  0.00    +0.000 C 
ATOM     25  N   UNL     1      -2.331  13.169  21.784  0.00  0.00    +0.000 N 
ATOM     26  C   UNL     1      -1.099  12.876  22.526  0.00  0.00    +0.000 C 
ATOM     27  C   UNL     1       0.071  13.659  21.888  0.00  0.00    +0.000 C 
BRANCH  25  28
ATOM     28  C   UNL     1      -3.426  13.747  22.418  0.00  0.00    +0.000 A 
ATOM     29  C   UNL     1      -4.439  12.905  22.945  0.00  0.00    +0.000 A 
ATOM     30  C   UNL     1      -5.591  13.379  23.580  0.00  0.00    +0.000 A 
ATOM     31  C   UNL     1      -5.770  14.739  23.752  0.00  0.00    +0.000 A 
ATOM     32  C   UNL     1      -4.803  15.612  23.264  0.00  0.00    +0.000 A 
ATOM     33  C   UNL     1      -3.660  15.132  22.590  0.00  0.00    +0.000 A 
ATOM     34 CL   UNL     1      -2.654  16.371  21.905  0.00  0.00    +0.000 Cl
ENDBRANCH  25  28
ENDBRANCH  21  22
ENDBRANCH  20  21
ENDBRANCH  11  20
TORSDOF 5
ENDMDL
MODEL 7
REMARK VINA RESULT:      -8.0      3.493      4.835
REMARK  Name = 
REMARK  5 active torsions:
REMARK  status: ('A' for Active; 'I' for Inactive)
REMARK    1  A    between atoms: C_6  and  C_7
REMARK    2  A    between atoms: N_17  and  C_18
REMARK    3  A    between atoms: C_18  and  C_19
REMARK    4  A    between atoms: C_19  and  N_20
REMARK    5  A    between atoms: N_23  and  C_24
REMARK                            x       y       z     vdW  Elec       q    Type
REMARK                         _______ _______ _______ _____ _____    ______ ____
ROOT
ATOM      1  O   UNL     1       0.825   9.482  22.993  0.00  0.00    +0.000 OA
ATOM      2  C   UNL     1       1.114   9.197  21.828  0.00  0.00    +0.000 A 
ATOM      3  N   UNL     1       1.522   7.912  21.530  0.00  0.00    +0.000 N 
ATOM      4  C   UNL     1       1.905   7.559  20.265  0.00  0.00    +0.000 A 
ATOM      5  C   UNL     1       2.462   6.383  19.733  0.00  0.00    +0.000 A 
ATOM      6  C   UNL     1       2.828   6.672  18.420  0.00  0.00    +0.000 A 
ATOM      7  N   UNL     1       2.290   7.909  18.123  0.00  0.00    +0.000 N 
ATOM      8  C   UNL     1       1.814   8.477  19.266  0.00  0.00    +0.000 A 
ATOM      9  C   UNL     1       1.329   9.805  19.434  0.00  0.00    +0.000 A 
ATOM     10  O   UNL     1       1.176  10.566  18.486  0.00  0.00    +0.000 OA
ATOM     11  N   UNL     1       1.022  10.106  20.762  0.00  0.00    +0.000 N 
ATOM     12  H   UNL     1       1.601   7.252  22.291  0.00  0.00    +0.000 HD
ATOM     13  H   UNL     1       2.342   8.383  17.229  0.00  0.00    +0.000 HD
ENDROOT
BRANCH   6  14
ATOM     14  C   UNL     1       3.695   5.947  17.494  0.00  0.00    +0.000 A 
ATOM     15  C   UNL     1       3.687   4.548  17.448  0.00  0.00    +0.000 A 
ATOM     16  C   UNL     1       4.608   3.861  16.653  0.00  0.00    +0.000 A 
ATOM     17  C   UNL     1       5.544   4.565  15.897  0.00  0.00    +0.000 A 
ATOM     18  C   UNL     1       5.552   5.955  15.921  0.00  0.00    +0.000 A 
ATOM     19  C   UNL     1       4.633   6.642  16.713  0.00  0.00    +0.000 A 
ENDBRANCH   6  14
BRANCH  11  20
ATOM     20  C   UNL     1       0.469  11.425  21.020  0.00  0.00    +0.000 C 
BRANCH  20  21
ATOM     21  C   UNL     1      -1.061  11.560  20.918  0.00  0.00    +0.000 C 
BRANCH  21  22
ATOM     22  N   UNL     1      -1.739  12.872  20.827  0.00  0.00    +0.000 NA
ATOM     23  C   UNL     1      -1.086  13.998  21.546  0.00  0.00    +0.000 C 
ATOM     24  C   UNL     1       0.185  14.679  20.926  0.00  0.00    +0.000 C 
ATOM     25  N   UNL     1       0.122  14.785  19.450  0.00  0.00    +0.000 N 
ATOM     26  C   UNL     1      -0.417  13.589  18.794  0.00  0.00    +0.000 C 
ATOM     27  C   UNL     1      -1.806  13.269  19.392  0.00  0.00    +0.000 C 
BRANCH  25  28
ATOM     28  C   UNL     1       0.431  15.925  18.716  0.00  0.00    +0.000 A 
ATOM     29  C   UNL     1      -0.615  16.806  18.339  0.00  0.00    +0.000 A 
ATOM     30  C   UNL     1      -0.420  17.966  17.583  0.00  0.00    +0.000 A 
ATOM     31  C   UNL     1       0.856  18.325  17.192  0.00  0.00    +0.000 A 
ATOM     32  C   UNL     1       1.923  17.503  17.543  0.00  0.00    +0.000 A 
ATOM     33  C   UNL     1       1.719  16.313  18.274  0.00  0.00    +0.000 A 
ATOM     34 CL   UNL     1       3.140  15.335  18.470  0.00  0.00    +0.000 Cl
ENDBRANCH  25  28
ENDBRANCH  21  22
ENDBRANCH  20  21
ENDBRANCH  11  20
TORSDOF 5
ENDMDL
MODEL 8
REMARK VINA RESULT:      -7.9      3.103      4.482
REMARK  Name = 
REMARK  5 active torsions:
REMARK  status: ('A' for Active; 'I' for Inactive)
REMARK    1  A    between atoms: C_6  and  C_7
REMARK    2  A    between atoms: N_17  and  C_18
REMARK    3  A    between atoms: C_18  and  C_19
REMARK    4  A    between atoms: C_19  and  N_20
REMARK    5  A    between atoms: N_23  and  C_24
REMARK                            x       y       z     vdW  Elec       q    Type
REMARK                         _______ _______ _______ _____ _____    ______ ____
ROOT
ATOM      1  O   UNL     1       0.546   8.657  22.178  0.00  0.00    +0.000 OA
ATOM      2  C   UNL     1       1.095   8.428  21.097  0.00  0.00    +0.000 A 
ATOM      3  N   UNL     1       1.726   7.215  20.905  0.00  0.00    +0.000 N 
ATOM      4  C   UNL     1       2.394   6.932  19.746  0.00  0.00    +0.000 A 
ATOM      5  C   UNL     1       3.201   5.850  19.352  0.00  0.00    +0.000 A 
ATOM      6  C   UNL     1       3.774   6.201  18.133  0.00  0.00    +0.000 A 
ATOM      7  N   UNL     1       3.141   7.356  17.715  0.00  0.00    +0.000 N 
ATOM      8  C   UNL     1       2.376   7.840  18.733  0.00  0.00    +0.000 A 
ATOM      9  C   UNL     1       1.690   9.086  18.782  0.00  0.00    +0.000 A 
ATOM     10  O   UNL     1       1.622   9.830  17.810  0.00  0.00    +0.000 OA
ATOM     11  N   UNL     1       1.089   9.328  20.019  0.00  0.00    +0.000 N 
ATOM     12  H   UNL     1       1.744   6.564  21.678  0.00  0.00    +0.000 HD
ATOM     13  H   UNL     1       3.302   7.842  16.842  0.00  0.00    +0.000 HD
ENDROOT
BRANCH   6  14
ATOM     14  C   UNL     1       4.898   5.613  17.406  0.00  0.00    +0.000 A 
ATOM     15  C   UNL     1       4.683   4.676  16.389  0.00  0.00    +0.000 A 
ATOM     16  C   UNL     1       5.763   4.025  15.788  0.00  0.00    +0.000 A 
ATOM     17  C   UNL     1       7.066   4.304  16.197  0.00  0.00    +0.000 A 
ATOM     18  C   UNL     1       7.294   5.245  17.196  0.00  0.00    +0.000 A 
ATOM     19  C   UNL     1       6.217   5.897  17.795  0.00  0.00    +0.000 A 
ENDBRANCH   6  14
BRANCH  11  20
ATOM     20  C   UNL     1       0.321  10.555  20.142  0.00  0.00    +0.000 C 
BRANCH  20  21
ATOM     21  C   UNL     1      -1.110  10.529  19.574  0.00  0.00    +0.000 C 
BRANCH  21  22
ATOM     22  N   UNL     1      -1.906  11.758  19.368  0.00  0.00    +0.000 NA
ATOM     23  C   UNL     1      -1.830  12.776  20.449  0.00  0.00    +0.000 C 
ATOM     24  C   UNL     1      -0.558  13.690  20.562  0.00  0.00    +0.000 C 
ATOM     25  N   UNL     1      -0.009  14.082  19.244  0.00  0.00    +0.000 N 
ATOM     26  C   UNL     1       0.002  12.994  18.260  0.00  0.00    +0.000 C 
ATOM     27  C   UNL     1      -1.429  12.425  18.124  0.00  0.00    +0.000 C 
BRANCH  25  28
ATOM     28  C   UNL     1       0.375  15.371  18.887  0.00  0.00    +0.000 A 
ATOM     29  C   UNL     1      -0.625  16.359  18.697  0.00  0.00    +0.000 A 
ATOM     30  C   UNL     1      -0.354  17.677  18.316  0.00  0.00    +0.000 A 
ATOM     31  C   UNL     1       0.956  18.085  18.142  0.00  0.00    +0.000 A 
ATOM     32  C   UNL     1       1.979  17.161  18.326  0.00  0.00    +0.000 A 
ATOM     33  C   UNL     1       1.699  15.821  18.673  0.00  0.00    +0.000 A 
ATOM     34 CL   UNL     1       3.087  14.778  18.693  0.00  0.00    +0.000 Cl
ENDBRANCH  25  28
ENDBRANCH  21  22
ENDBRANCH  20  21
ENDBRANCH  11  20
TORSDOF 5
ENDMDL
MODEL 9
REMARK VINA RESULT:      -7.9      3.752      4.557
REMARK  Name = 
REMARK  5 active torsions:
REMARK  status: ('A' for Active; 'I' for Inactive)
REMARK    1  A    between atoms: C_6  and  C_7
REMARK    2  A    between atoms: N_17  and  C_18
REMARK    3  A    between atoms: C_18  and  C_19
REMARK    4  A    between atoms: C_19  and  N_20
REMARK    5  A    between atoms: N_23  and  C_24
REMARK                            x       y       z     vdW  Elec       q    Type
REMARK                         _______ _______ _______ _____ _____    ______ ____
ROOT
ATOM      1  O   UNL     1       0.695   9.937  23.090  0.00  0.00    +0.000 OA
ATOM      2  C   UNL     1       0.974   9.610  21.934  0.00  0.00    +0.000 A 
ATOM      3  N   UNL     1       1.345   8.305  21.673  0.00  0.00    +0.000 N 
ATOM      4  C   UNL     1       1.714   7.905  20.418  0.00  0.00    +0.000 A 
ATOM      5  C   UNL     1       2.237   6.699  19.920  0.00  0.00    +0.000 A 
ATOM      6  C   UNL     1       2.608   6.938  18.599  0.00  0.00    +0.000 A 
ATOM      7  N   UNL     1       2.105   8.181  18.266  0.00  0.00    +0.000 N 
ATOM      8  C   UNL     1       1.647   8.795  19.393  0.00  0.00    +0.000 A 
ATOM      9  C   UNL     1       1.200  10.141  19.523  0.00  0.00    +0.000 A 
ATOM     10  O   UNL     1       1.066  10.878  18.553  0.00  0.00    +0.000 OA
ATOM     11  N   UNL     1       0.904  10.490  20.841  0.00  0.00    +0.000 N 
ATOM     12  H   UNL     1       1.407   7.666  22.453  0.00  0.00    +0.000 HD
ATOM     13  H   UNL     1       2.168   8.626  17.359  0.00  0.00    +0.000 HD
ENDROOT
BRANCH   6  14
ATOM     14  C   UNL     1       3.452   6.162  17.693  0.00  0.00    +0.000 A 
ATOM     15  C   UNL     1       3.357   4.767  17.642  0.00  0.00    +0.000 A 
ATOM     16  C   UNL     1       4.254   4.025  16.869  0.00  0.00    +0.000 A 
ATOM     17  C   UNL     1       5.253   4.670  16.140  0.00  0.00    +0.000 A 
ATOM     18  C   UNL     1       5.348   6.058  16.170  0.00  0.00    +0.000 A 
ATOM     19  C   UNL     1       4.452   6.799  16.940  0.00  0.00    +0.000 A 
ENDBRANCH   6  14
BRANCH  11  20
ATOM     20  C   UNL     1       0.390  11.831  21.062  0.00  0.00    +0.000 C 
BRANCH  20  21
ATOM     21  C   UNL     1      -1.076  12.078  20.661  0.00  0.00    +0.000 C 
BRANCH  21  22
ATOM     22  N   UNL     1      -2.195  11.945  21.619  0.00  0.00    +0.000 NA
ATOM     23  C   UNL     1      -1.860  12.159  23.051  0.00  0.00    +0.000 C 
ATOM     24  C   UNL     1      -1.653  13.620  23.587  0.00  0.00    +0.000 C 
ATOM     25  N   UNL     1      -2.579  14.598  22.971  0.00  0.00    +0.000 N 
ATOM     26  C   UNL     1      -2.768  14.406  21.529  0.00  0.00    +0.000 C 
ATOM     27  C   UNL     1      -3.234  12.955  21.271  0.00  0.00    +0.000 C 
BRANCH  25  28
ATOM     28  C   UNL     1      -3.307  15.559  23.665  0.00  0.00    +0.000 A 
ATOM     29  C   UNL     1      -4.720  15.448  23.716  0.00  0.00    +0.000 A 
ATOM     30  C   UNL     1      -5.549  16.368  24.365  0.00  0.00    +0.000 A 
ATOM     31  C   UNL     1      -4.992  17.440  25.037  0.00  0.00    +0.000 A 
ATOM     32  C   UNL     1      -3.609  17.594  25.030  0.00  0.00    +0.000 A 
ATOM     33  C   UNL     1      -2.777  16.684  24.341  0.00  0.00    +0.000 A 
ATOM     34 CL   UNL     1      -1.100  17.130  24.302  0.00  0.00    +0.000 Cl
ENDBRANCH  25  28
ENDBRANCH  21  22
ENDBRANCH  20  21
ENDBRANCH  11  20
TORSDOF 5
ENDMDL
