MODEL 1
REMARK VINA RESULT:      -8.8      0.000      0.000
REMARK  Name = 
REMARK  7 active torsions:
REMARK  status: ('A' for Active; 'I' for Inactive)
REMARK    1  A    between atoms: C_1  and  C_2
REMARK    2  A    between atoms: C_3  and  C_4
REMARK    3  A    between atoms: C_4  and  C_5
REMARK    4  A    between atoms: C_4  and  N_6
REMARK    5  A    between atoms: N_6  and  C_7
REMARK    6  A    between atoms: C_7  and  C_8
REMARK    7  A    between atoms: N_17  and  C_18
REMARK                            x       y       z     vdW  Elec       q    Type
REMARK                         _______ _______ _______ _____ _____    ______ ____
ROOT
ATOM      1  C   UNL     1       1.872   7.078  20.643  0.00  0.00    +0.000 C 
ATOM      2  C   UNL     1       1.972   7.945  19.437  0.00  0.00    +0.000 A 
ATOM      3  C   UNL     1       1.454   9.228  19.244  0.00  0.00    +0.000 A 
ATOM      4  C   UNL     1       1.608   9.413  17.850  0.00  0.00    +0.000 A 
ATOM      5  N   UNL     1       2.237   8.422  17.243  0.00  0.00    +0.000 NA
ATOM      6  N   UNL     1       2.554   7.543  18.218  0.00  0.00    +0.000 N 
ENDROOT
BRANCH   6   7
ATOM      7  C   UNL     1       3.453   6.455  17.914  0.00  0.00    +0.000 A 
ATOM      8  C   UNL     1       4.756   6.777  17.500  0.00  0.00    +0.000 A 
ATOM      9  C   UNL     1       5.645   5.791  17.092  0.00  0.00    +0.000 A 
ATOM     10  C   UNL     1       5.243   4.462  17.067  0.00  0.00    +0.000 A 
ATOM     11  C   UNL     1       3.956   4.089  17.470  0.00  0.00    +0.000 A 
ATOM     12  C   UNL     1       3.616   2.725  17.420  0.00  0.00    +0.000 A 
ATOM     13  C   UNL     1       2.363   2.276  17.820  0.00  0.00    +0.000 A 
ATOM     14  C   UNL     1       1.435   3.189  18.281  0.00  0.00    +0.000 A 
ATOM     15  C   UNL     1       1.764   4.551  18.337  0.00  0.00    +0.000 A 
ATOM     16  C   UNL     1       3.025   5.070  17.912  0.00  0.00    +0.000 A 
ENDBRANCH   6   7
BRANCH   3  17
ATOM     17  C   UNL     1       0.731  10.217  20.143  0.00  0.00    +0.000 C 
ATOM     18  C   UNL     1      -0.284   9.465  21.040  0.00  0.00    +0.000 C 
BRANCH  17  19
ATOM     19  N   UNL     1       0.066  11.308  19.378  0.00  0.00    +0.000 NA
ATOM     20  H   UNL     1       0.323  11.217  18.397  0.00  0.00    +0.000 HD
BRANCH  19  21
ATOM     21  C   UNL     1      -1.400  11.162  19.509  0.00  0.00    +0.000 C 
BRANCH  21  22
ATOM     22  C   UNL     1      -2.210  10.844  18.273  0.00  0.00    +0.000 A 
ATOM     23  C   UNL     1      -1.760  10.066  17.209  0.00  0.00    +0.000 A 
ATOM     24  C   UNL     1      -2.528   9.961  16.039  0.00  0.00    +0.000 A 
ATOM     25  C   UNL     1      -3.749  10.638  15.921  0.00  0.00    +0.000 A 
ATOM     26  C   UNL     1      -4.212  11.410  16.976  0.00  0.00    +0.000 A 
ATOM     27  C   UNL     1      -3.445  11.511  18.132  0.00  0.00    +0.000 A 
ATOM     28  F   UNL     1      -3.896  12.300  19.116  0.00  0.00    +0.000 F 
ENDBRANCH  21  22
ENDBRANCH  19  21
ENDBRANCH  17  19
ENDBRANCH   3  17
TORSDOF 5
ENDMDL
MODEL 2
REMARK VINA RESULT:      -8.7      0.873      2.514
REMARK  Name = 
REMARK  7 active torsions:
REMARK  status: ('A' for Active; 'I' for Inactive)
REMARK    1  A    between atoms: C_1  and  C_2
REMARK    2  A    between atoms: C_3  and  C_4
REMARK    3  A    between atoms: C_4  and  C_5
REMARK    4  A    between atoms: C_4  and  N_6
REMARK    5  A    between atoms: N_6  and  C_7
REMARK    6  A    between atoms: C_7  and  C_8
REMARK    7  A    between atoms: N_17  and  C_18
REMARK                            x       y       z     vdW  Elec       q    Type
REMARK                         _______ _______ _______ _____ _____    ______ ____
ROOT
ATOM      1  C   UNL     1       2.437   8.782  17.590  0.00  0.00    +0.000 C 
ATOM      2  C   UNL     1       2.044   8.089  18.848  0.00  0.00    +0.000 A 
ATOM      3  C   UNL     1       1.393   8.617  19.966  0.00  0.00    +0.000 A 
ATOM      4  C   UNL     1       1.552   7.591  20.926  0.00  0.00    +0.000 A 
ATOM      5  N   UNL     1       2.137   6.503  20.458  0.00  0.00    +0.000 NA
ATOM      6  N   UNL     1       2.369   6.750  19.150  0.00  0.00    +0.000 N 
ENDROOT
BRANCH   6   7
ATOM      7  C   UNL     1       2.792   5.665  18.298  0.00  0.00    +0.000 A 
ATOM      8  C   UNL     1       1.901   4.598  18.104  0.00  0.00    +0.000 A 
ATOM      9  C   UNL     1       2.275   3.471  17.381  0.00  0.00    +0.000 A 
ATOM     10  C   UNL     1       3.556   3.378  16.856  0.00  0.00    +0.000 A 
ATOM     11  C   UNL     1       4.482   4.414  17.021  0.00  0.00    +0.000 A 
ATOM     12  C   UNL     1       5.763   4.253  16.462  0.00  0.00    +0.000 A 
ATOM     13  C   UNL     1       6.729   5.246  16.570  0.00  0.00    +0.000 A 
ATOM     14  C   UNL     1       6.423   6.417  17.235  0.00  0.00    +0.000 A 
ATOM     15  C   UNL     1       5.148   6.589  17.795  0.00  0.00    +0.000 A 
ATOM     16  C   UNL     1       4.128   5.590  17.738  0.00  0.00    +0.000 A 
ENDBRANCH   6   7
BRANCH   3  17
ATOM     17  C   UNL     1       0.781   9.972  20.283  0.00  0.00    +0.000 C 
ATOM     18  C   UNL     1      -0.296   9.815  21.385  0.00  0.00    +0.000 C 
BRANCH  17  19
ATOM     19  N   UNL     1       0.222  10.644  19.077  0.00  0.00    +0.000 NA
ATOM     20  H   UNL     1       0.351  10.029  18.276  0.00  0.00    +0.000 HD
BRANCH  19  21
ATOM     21  C   UNL     1      -1.225  10.873  19.283  0.00  0.00    +0.000 C 
BRANCH  21  22
ATOM     22  C   UNL     1      -2.161  10.690  18.110  0.00  0.00    +0.000 A 
ATOM     23  C   UNL     1      -1.881   9.920  16.985  0.00  0.00    +0.000 A 
ATOM     24  C   UNL     1      -2.748   9.941  15.882  0.00  0.00    +0.000 A 
ATOM     25  C   UNL     1      -3.901  10.738  15.893  0.00  0.00    +0.000 A 
ATOM     26  C   UNL     1      -4.195  11.505  17.011  0.00  0.00    +0.000 A 
ATOM     27  C   UNL     1      -3.330  11.480  18.099  0.00  0.00    +0.000 A 
ATOM     28  F   UNL     1      -3.618  12.264  19.146  0.00  0.00    +0.000 F 
ENDBRANCH  21  22
ENDBRANCH  19  21
ENDBRANCH  17  19
ENDBRANCH   3  17
TORSDOF 5
ENDMDL
MODEL 3
REMARK VINA RESULT:      -8.6      2.907      7.969
REMARK  Name = 
REMARK  7 active torsions:
REMARK  status: ('A' for Active; 'I' for Inactive)
REMARK    1  A    between atoms: C_1  and  C_2
REMARK    2  A    between atoms: C_3  and  C_4
REMARK    3  A    between atoms: C_4  and  C_5
REMARK    4  A    between atoms: C_4  and  N_6
REMARK    5  A    between atoms: N_6  and  C_7
REMARK    6  A    between atoms: C_7  and  C_8
REMARK    7  A    between atoms: N_17  and  C_18
REMARK                            x       y       z     vdW  Elec       q    Type
REMARK                         _______ _______ _______ _____ _____    ______ ____
ROOT
ATOM      1  C   UNL     1       1.397   7.660  20.862  0.00  0.00    +0.000 C 
ATOM      2  C   UNL     1       1.758   8.049  19.471  0.00  0.00    +0.000 A 
ATOM      3  C   UNL     1       2.520   7.340  18.540  0.00  0.00    +0.000 A 
ATOM      4  C   UNL     1       2.761   8.310  17.539  0.00  0.00    +0.000 A 
ATOM      5  N   UNL     1       2.147   9.461  17.748  0.00  0.00    +0.000 NA
ATOM      6  N   UNL     1       1.446   9.295  18.891  0.00  0.00    +0.000 N 
ENDROOT
BRANCH   6   7
ATOM      7  C   UNL     1       0.482  10.300  19.271  0.00  0.00    +0.000 A 
ATOM      8  C   UNL     1       0.766  11.087  20.399  0.00  0.00    +0.000 A 
ATOM      9  C   UNL     1      -0.158  12.004  20.888  0.00  0.00    +0.000 A 
ATOM     10  C   UNL     1      -1.395  12.136  20.272  0.00  0.00    +0.000 A 
ATOM     11  C   UNL     1      -1.726  11.376  19.145  0.00  0.00    +0.000 A 
ATOM     12  C   UNL     1      -2.997  11.562  18.571  0.00  0.00    +0.000 A 
ATOM     13  C   UNL     1      -3.391  10.856  17.441  0.00  0.00    +0.000 A 
ATOM     14  C   UNL     1      -2.514   9.957  16.866  0.00  0.00    +0.000 A 
ATOM     15  C   UNL     1      -1.244   9.765  17.429  0.00  0.00    +0.000 A 
ATOM     16  C   UNL     1      -0.799  10.442  18.606  0.00  0.00    +0.000 A 
ENDBRANCH   6   7
BRANCH   3  17
ATOM     17  C   UNL     1       3.148   5.955  18.531  0.00  0.00    +0.000 C 
ATOM     18  C   UNL     1       4.689   6.078  18.632  0.00  0.00    +0.000 C 
BRANCH  17  19
ATOM     19  N   UNL     1       2.750   5.153  17.341  0.00  0.00    +0.000 NA
ATOM     20  H   UNL     1       3.577   4.684  16.977  0.00  0.00    +0.000 HD
BRANCH  19  21
ATOM     21  C   UNL     1       1.760   4.136  17.758  0.00  0.00    +0.000 C 
BRANCH  21  22
ATOM     22  C   UNL     1       1.906   3.500  19.122  0.00  0.00    +0.000 A 
ATOM     23  C   UNL     1       1.012   3.670  20.176  0.00  0.00    +0.000 A 
ATOM     24  C   UNL     1       1.319   3.166  21.449  0.00  0.00    +0.000 A 
ATOM     25  C   UNL     1       2.526   2.492  21.680  0.00  0.00    +0.000 A 
ATOM     26  C   UNL     1       3.422   2.309  20.637  0.00  0.00    +0.000 A 
ATOM     27  C   UNL     1       3.112   2.814  19.378  0.00  0.00    +0.000 A 
ATOM     28  F   UNL     1       4.016   2.661  18.402  0.00  0.00    +0.000 F 
ENDBRANCH  21  22
ENDBRANCH  19  21
ENDBRANCH  17  19
ENDBRANCH   3  17
TORSDOF 5
ENDMDL
MODEL 4
REMARK VINA RESULT:      -8.5      3.055      7.843
REMARK  Name = 
REMARK  7 active torsions:
REMARK  status: ('A' for Active; 'I' for Inactive)
REMARK    1  A    between atoms: C_1  and  C_2
REMARK    2  A    between atoms: C_3  and  C_4
REMARK    3  A    between atoms: C_4  and  C_5
REMARK    4  A    between atoms: C_4  and  N_6
REMARK    5  A    between atoms: N_6  and  C_7
REMARK    6  A    between atoms: C_7  and  C_8
REMARK    7  A    between atoms: N_17  and  C_18
REMARK                            x       y       z     vdW  Elec       q    Type
REMARK                         _______ _______ _______ _____ _____    ______ ____
ROOT
ATOM      1  C   UNL     1       1.948   6.233  20.177  0.00  0.00    +0.000 C 
ATOM      2  C   UNL     1       2.499   6.940  18.987  0.00  0.00    +0.000 A 
ATOM      3  C   UNL     1       3.508   6.521  18.117  0.00  0.00    +0.000 A 
ATOM      4  C   UNL     1       3.790   7.698  17.386  0.00  0.00    +0.000 A 
ATOM      5  N   UNL     1       2.994   8.713  17.674  0.00  0.00    +0.000 NA
ATOM      6  N   UNL     1       2.127   8.242  18.597  0.00  0.00    +0.000 N 
ENDROOT
BRANCH   6   7
ATOM      7  C   UNL     1       0.980   9.043  18.951  0.00  0.00    +0.000 A 
ATOM      8  C   UNL     1       0.233   9.616  17.909  0.00  0.00    +0.000 A 
ATOM      9  C   UNL     1      -0.823  10.482  18.171  0.00  0.00    +0.000 A 
ATOM     10  C   UNL     1      -1.138  10.811  19.482  0.00  0.00    +0.000 A 
ATOM     11  C   UNL     1      -0.425  10.268  20.557  0.00  0.00    +0.000 A 
ATOM     12  C   UNL     1      -0.800  10.645  21.859  0.00  0.00    +0.000 A 
ATOM     13  C   UNL     1      -0.150  10.134  22.976  0.00  0.00    +0.000 A 
ATOM     14  C   UNL     1       0.882   9.232  22.802  0.00  0.00    +0.000 A 
ATOM     15  C   UNL     1       1.262   8.848  21.508  0.00  0.00    +0.000 A 
ATOM     16  C   UNL     1       0.648   9.363  20.326  0.00  0.00    +0.000 A 
ENDBRANCH   6   7
BRANCH   3  17
ATOM     17  C   UNL     1       4.314   5.239  17.980  0.00  0.00    +0.000 C 
ATOM     18  C   UNL     1       5.758   5.573  17.531  0.00  0.00    +0.000 C 
BRANCH  17  19
ATOM     19  N   UNL     1       3.677   4.259  17.058  0.00  0.00    +0.000 NA
ATOM     20  H   UNL     1       4.251   4.184  16.220  0.00  0.00    +0.000 HD
BRANCH  19  21
ATOM     21  C   UNL     1       3.620   2.939  17.725  0.00  0.00    +0.000 C 
BRANCH  21  22
ATOM     22  C   UNL     1       2.739   2.781  18.942  0.00  0.00    +0.000 A 
ATOM     23  C   UNL     1       1.352   2.904  18.939  0.00  0.00    +0.000 A 
ATOM     24  C   UNL     1       0.640   2.896  20.149  0.00  0.00    +0.000 A 
ATOM     25  C   UNL     1       1.311   2.770  21.373  0.00  0.00    +0.000 A 
ATOM     26  C   UNL     1       2.692   2.640  21.390  0.00  0.00    +0.000 A 
ATOM     27  C   UNL     1       3.390   2.651  20.187  0.00  0.00    +0.000 A 
ATOM     28  F   UNL     1       4.726   2.567  20.238  0.00  0.00    +0.000 F 
ENDBRANCH  21  22
ENDBRANCH  19  21
ENDBRANCH  17  19
ENDBRANCH   3  17
TORSDOF 5
ENDMDL
MODEL 5
REMARK VINA RESULT:      -8.4      1.422      2.084
REMARK  Name = 
REMARK  7 active torsions:
REMARK  status: ('A' for Active; 'I' for Inactive)
REMARK    1  A    between atoms: C_1  and  C_2
REMARK    2  A    between atoms: C_3  and  C_4
REMARK    3  A    between atoms: C_4  and  C_5
REMARK    4  A    between atoms: C_4  and  N_6
REMARK    5  A    between atoms: N_6  and  C_7
REMARK    6  A    between atoms: C_7  and  C_8
REMARK    7  A    between atoms: N_17  and  C_18
REMARK                            x       y       z     vdW  Elec       q    Type
REMARK                         _______ _______ _______ _____ _____    ______ ____
ROOT
ATOM      1  C   UNL     1       2.252   9.272  17.856  0.00  0.00    +0.000 C 
ATOM      2  C   UNL     1       1.839   8.658  19.148  0.00  0.00    +0.000 A 
ATOM      3  C   UNL     1       1.117   9.236  20.194  0.00  0.00    +0.000 A 
ATOM      4  C   UNL     1       1.284   8.296  21.238  0.00  0.00    +0.000 A 
ATOM      5  N   UNL     1       1.939   7.206  20.879  0.00  0.00    +0.000 NA
ATOM      6  N   UNL     1       2.215   7.365  19.566  0.00  0.00    +0.000 N 
ENDROOT
BRANCH   6   7
ATOM      7  C   UNL     1       2.726   6.241  18.818  0.00  0.00    +0.000 A 
ATOM      8  C   UNL     1       3.726   6.489  17.863  0.00  0.00    +0.000 A 
ATOM      9  C   UNL     1       4.195   5.478  17.033  0.00  0.00    +0.000 A 
ATOM     10  C   UNL     1       3.657   4.201  17.125  0.00  0.00    +0.000 A 
ATOM     11  C   UNL     1       2.659   3.902  18.060  0.00  0.00    +0.000 A 
ATOM     12  C   UNL     1       2.161   2.587  18.098  0.00  0.00    +0.000 A 
ATOM     13  C   UNL     1       1.182   2.211  19.010  0.00  0.00    +0.000 A 
ATOM     14  C   UNL     1       0.694   3.147  19.901  0.00  0.00    +0.000 A 
ATOM     15  C   UNL     1       1.185   4.460  19.873  0.00  0.00    +0.000 A 
ATOM     16  C   UNL     1       2.169   4.908  18.938  0.00  0.00    +0.000 A 
ENDBRANCH   6   7
BRANCH   3  17
ATOM     17  C   UNL     1       0.427  10.578  20.380  0.00  0.00    +0.000 C 
ATOM     18  C   UNL     1      -0.574  10.493  21.559  0.00  0.00    +0.000 C 
BRANCH  17  19
ATOM     19  N   UNL     1      -0.242  11.055  19.139  0.00  0.00    +0.000 NA
ATOM     20  H   UNL     1       0.255  10.673  18.337  0.00  0.00    +0.000 HD
BRANCH  19  21
ATOM     21  C   UNL     1      -1.636  10.559  19.125  0.00  0.00    +0.000 C 
BRANCH  21  22
ATOM     22  C   UNL     1      -2.450  10.723  17.862  0.00  0.00    +0.000 A 
ATOM     23  C   UNL     1      -3.621  11.470  17.765  0.00  0.00    +0.000 A 
ATOM     24  C   UNL     1      -4.387  11.432  16.590  0.00  0.00    +0.000 A 
ATOM     25  C   UNL     1      -3.991  10.641  15.503  0.00  0.00    +0.000 A 
ATOM     26  C   UNL     1      -2.823   9.897  15.584  0.00  0.00    +0.000 A 
ATOM     27  C   UNL     1      -2.070   9.939  16.753  0.00  0.00    +0.000 A 
ATOM     28  F   UNL     1      -0.971   9.177  16.817  0.00  0.00    +0.000 F 
ENDBRANCH  21  22
ENDBRANCH  19  21
ENDBRANCH  17  19
ENDBRANCH   3  17
TORSDOF 5
ENDMDL
MODEL 6
REMARK VINA RESULT:      -8.4      0.989      1.539
REMARK  Name = 
REMARK  7 active torsions:
REMARK  status: ('A' for Active; 'I' for Inactive)
REMARK    1  A    between atoms: C_1  and  C_2
REMARK    2  A    between atoms: C_3  and  C_4
REMARK    3  A    between atoms: C_4  and  C_5
REMARK    4  A    between atoms: C_4  and  N_6
REMARK    5  A    between atoms: N_6  and  C_7
REMARK    6  A    between atoms: C_7  and  C_8
REMARK    7  A    between atoms: N_17  and  C_18
REMARK                            x       y       z     vdW  Elec       q    Type
REMARK                         _______ _______ _______ _____ _____    ______ ____
ROOT
ATOM      1  C   UNL     1       2.318   9.125  17.795  0.00  0.00    +0.000 C 
ATOM      2  C   UNL     1       1.901   8.499  19.080  0.00  0.00    +0.000 A 
ATOM      3  C   UNL     1       1.163   9.063  20.123  0.00  0.00    +0.000 A 
ATOM      4  C   UNL     1       1.332   8.120  21.163  0.00  0.00    +0.000 A 
ATOM      5  N   UNL     1       2.004   7.040  20.805  0.00  0.00    +0.000 NA
ATOM      6  N   UNL     1       2.289   7.209  19.495  0.00  0.00    +0.000 N 
ENDROOT
BRANCH   6   7
ATOM      7  C   UNL     1       2.821   6.095  18.747  0.00  0.00    +0.000 A 
ATOM      8  C   UNL     1       3.872   6.350  17.851  0.00  0.00    +0.000 A 
ATOM      9  C   UNL     1       4.367   5.351  17.021  0.00  0.00    +0.000 A 
ATOM     10  C   UNL     1       3.806   4.082  17.053  0.00  0.00    +0.000 A 
ATOM     11  C   UNL     1       2.757   3.776  17.928  0.00  0.00    +0.000 A 
ATOM     12  C   UNL     1       2.238   2.470  17.909  0.00  0.00    +0.000 A 
ATOM     13  C   UNL     1       1.208   2.088  18.760  0.00  0.00    +0.000 A 
ATOM     14  C   UNL     1       0.689   3.010  19.648  0.00  0.00    +0.000 A 
ATOM     15  C   UNL     1       1.201   4.315  19.677  0.00  0.00    +0.000 A 
ATOM     16  C   UNL     1       2.238   4.769  18.805  0.00  0.00    +0.000 A 
ENDBRANCH   6   7
BRANCH   3  17
ATOM     17  C   UNL     1       0.454  10.395  20.309  0.00  0.00    +0.000 C 
ATOM     18  C   UNL     1      -0.713  10.232  21.313  0.00  0.00    +0.000 C 
BRANCH  17  19
ATOM     19  N   UNL     1      -0.020  10.977  19.023  0.00  0.00    +0.000 NA
ATOM     20  H   UNL     1       0.146  10.299  18.282  0.00  0.00    +0.000 HD
BRANCH  19  21
ATOM     21  C   UNL     1      -1.473  11.239  19.122  0.00  0.00    +0.000 C 
BRANCH  21  22
ATOM     22  C   UNL     1      -2.359  10.854  17.960  0.00  0.00    +0.000 A 
ATOM     23  C   UNL     1      -1.960  10.060  16.887  0.00  0.00    +0.000 A 
ATOM     24  C   UNL     1      -2.808   9.890  15.782  0.00  0.00    +0.000 A 
ATOM     25  C   UNL     1      -4.060  10.518  15.737  0.00  0.00    +0.000 A 
ATOM     26  C   UNL     1      -4.473  11.306  16.802  0.00  0.00    +0.000 A 
ATOM     27  C   UNL     1      -3.626  11.470  17.893  0.00  0.00    +0.000 A 
ATOM     28  F   UNL     1      -4.034  12.272  18.886  0.00  0.00    +0.000 F 
ENDBRANCH  21  22
ENDBRANCH  19  21
ENDBRANCH  17  19
ENDBRANCH   3  17
TORSDOF 5
ENDMDL
MODEL 7
REMARK VINA RESULT:      -8.4      5.239      7.987
REMARK  Name = 
REMARK  7 active torsions:
REMARK  status: ('A' for Active; 'I' for Inactive)
REMARK    1  A    between atoms: C_1  and  C_2
REMARK    2  A    between atoms: C_3  and  C_4
REMARK    3  A    between atoms: C_4  and  C_5
REMARK    4  A    between atoms: C_4  and  N_6
REMARK    5  A    between atoms: N_6  and  C_7
REMARK    6  A    between atoms: C_7  and  C_8
REMARK    7  A    between atoms: N_17  and  C_18
REMARK                            x       y       z     vdW  Elec       q    Type
REMARK                         _______ _______ _______ _____ _____    ______ ____
ROOT
ATOM      1  C   UNL     1       4.489   6.692  16.794  0.00  0.00    +0.000 C 
ATOM      2  C   UNL     1       5.285   6.217  17.959  0.00  0.00    +0.000 A 
ATOM      3  C   UNL     1       6.657   6.352  18.188  0.00  0.00    +0.000 A 
ATOM      4  C   UNL     1       6.873   5.475  19.277  0.00  0.00    +0.000 A 
ATOM      5  N   UNL     1       5.768   4.929  19.754  0.00  0.00    +0.000 NA
ATOM      6  N   UNL     1       4.761   5.442  19.014  0.00  0.00    +0.000 N 
ENDROOT
BRANCH   6   7
ATOM      7  C   UNL     1       3.399   5.218  19.435  0.00  0.00    +0.000 A 
ATOM      8  C   UNL     1       2.815   6.163  20.294  0.00  0.00    +0.000 A 
ATOM      9  C   UNL     1       1.545   5.965  20.825  0.00  0.00    +0.000 A 
ATOM     10  C   UNL     1       0.842   4.806  20.525  0.00  0.00    +0.000 A 
ATOM     11  C   UNL     1       1.380   3.834  19.674  0.00  0.00    +0.000 A 
ATOM     12  C   UNL     1       0.612   2.684  19.413  0.00  0.00    +0.000 A 
ATOM     13  C   UNL     1       1.072   1.684  18.566  0.00  0.00    +0.000 A 
ATOM     14  C   UNL     1       2.307   1.825  17.962  0.00  0.00    +0.000 A 
ATOM     15  C   UNL     1       3.080   2.968  18.214  0.00  0.00    +0.000 A 
ATOM     16  C   UNL     1       2.668   4.012  19.098  0.00  0.00    +0.000 A 
ENDBRANCH   6   7
BRANCH   3  17
ATOM     17  C   UNL     1       7.780   7.067  17.455  0.00  0.00    +0.000 C 
ATOM     18  C   UNL     1       7.628   8.598  17.630  0.00  0.00    +0.000 C 
BRANCH  17  19
ATOM     19  N   UNL     1       7.852   6.695  16.015  0.00  0.00    +0.000 NA
ATOM     20  H   UNL     1       8.804   6.850  15.689  0.00  0.00    +0.000 HD
BRANCH  19  21
ATOM     21  C   UNL     1       7.520   5.260  15.873  0.00  0.00    +0.000 C 
BRANCH  21  22
ATOM     22  C   UNL     1       7.189   4.727  14.498  0.00  0.00    +0.000 A 
ATOM     23  C   UNL     1       7.834   5.106  13.324  0.00  0.00    +0.000 A 
ATOM     24  C   UNL     1       7.348   4.672  12.081  0.00  0.00    +0.000 A 
ATOM     25  C   UNL     1       6.209   3.859  12.002  0.00  0.00    +0.000 A 
ATOM     26  C   UNL     1       5.561   3.469  13.164  0.00  0.00    +0.000 A 
ATOM     27  C   UNL     1       6.047   3.904  14.392  0.00  0.00    +0.000 A 
ATOM     28  F   UNL     1       5.375   3.547  15.494  0.00  0.00    +0.000 F 
ENDBRANCH  21  22
ENDBRANCH  19  21
ENDBRANCH  17  19
ENDBRANCH   3  17
TORSDOF 5
ENDMDL
MODEL 8
REMARK VINA RESULT:      -8.3      2.581      7.658
REMARK  Name = 
REMARK  7 active torsions:
REMARK  status: ('A' for Active; 'I' for Inactive)
REMARK    1  A    between atoms: C_1  and  C_2
REMARK    2  A    between atoms: C_3  and  C_4
REMARK    3  A    between atoms: C_4  and  C_5
REMARK    4  A    between atoms: C_4  and  N_6
REMARK    5  A    between atoms: N_6  and  C_7
REMARK    6  A    between atoms: C_7  and  C_8
REMARK    7  A    between atoms: N_17  and  C_18
REMARK                            x       y       z     vdW  Elec       q    Type
REMARK                         _______ _______ _______ _____ _____    ______ ____
ROOT
ATOM      1  C   UNL     1       1.957   6.451  20.412  0.00  0.00    +0.000 C 
ATOM      2  C   UNL     1       2.461   7.064  19.152  0.00  0.00    +0.000 A 
ATOM      3  C   UNL     1       3.460   6.595  18.295  0.00  0.00    +0.000 A 
ATOM      4  C   UNL     1       3.695   7.711  17.459  0.00  0.00    +0.000 A 
ATOM      5  N   UNL     1       2.881   8.729  17.680  0.00  0.00    +0.000 NA
ATOM      6  N   UNL     1       2.048   8.320  18.662  0.00  0.00    +0.000 N 
ENDROOT
BRANCH   6   7
ATOM      7  C   UNL     1       0.891   9.123  18.976  0.00  0.00    +0.000 A 
ATOM      8  C   UNL     1       0.160   9.667  17.907  0.00  0.00    +0.000 A 
ATOM      9  C   UNL     1      -0.904  10.533  18.130  0.00  0.00    +0.000 A 
ATOM     10  C   UNL     1      -1.246  10.891  19.426  0.00  0.00    +0.000 A 
ATOM     11  C   UNL     1      -0.550  10.377  20.526  0.00  0.00    +0.000 A 
ATOM     12  C   UNL     1      -0.951  10.783  21.812  0.00  0.00    +0.000 A 
ATOM     13  C   UNL     1      -0.319  10.302  22.952  0.00  0.00    +0.000 A 
ATOM     14  C   UNL     1       0.721   9.401  22.819  0.00  0.00    +0.000 A 
ATOM     15  C   UNL     1       1.127   8.989  21.542  0.00  0.00    +0.000 A 
ATOM     16  C   UNL     1       0.532   9.473  20.337  0.00  0.00    +0.000 A 
ENDBRANCH   6   7
BRANCH   3  17
ATOM     17  C   UNL     1       4.293   5.325  18.248  0.00  0.00    +0.000 C 
ATOM     18  C   UNL     1       5.794   5.686  18.129  0.00  0.00    +0.000 C 
BRANCH  17  19
ATOM     19  N   UNL     1       3.873   4.406  17.153  0.00  0.00    +0.000 NA
ATOM     20  H   UNL     1       4.654   4.293  16.509  0.00  0.00    +0.000 HD
BRANCH  19  21
ATOM     21  C   UNL     1       3.533   3.089  17.736  0.00  0.00    +0.000 C 
BRANCH  21  22
ATOM     22  C   UNL     1       2.854   3.049  19.086  0.00  0.00    +0.000 A 
ATOM     23  C   UNL     1       3.482   2.704  20.280  0.00  0.00    +0.000 A 
ATOM     24  C   UNL     1       2.728   2.544  21.453  0.00  0.00    +0.000 A 
ATOM     25  C   UNL     1       1.339   2.722  21.440  0.00  0.00    +0.000 A 
ATOM     26  C   UNL     1       0.701   3.072  20.258  0.00  0.00    +0.000 A 
ATOM     27  C   UNL     1       1.455   3.227  19.100  0.00  0.00    +0.000 A 
ATOM     28  F   UNL     1       0.806   3.522  17.966  0.00  0.00    +0.000 F 
ENDBRANCH  21  22
ENDBRANCH  19  21
ENDBRANCH  17  19
ENDBRANCH   3  17
TORSDOF 5
ENDMDL
MODEL 9
REMARK VINA RESULT:      -8.3      2.801      8.038
REMARK  Name = 
REMARK  7 active torsions:
REMARK  status: ('A' for Active; 'I' for Inactive)
REMARK    1  A    between atoms: C_1  and  C_2
REMARK    2  A    between atoms: C_3  and  C_4
REMARK    3  A    between atoms: C_4  and  C_5
REMARK    4  A    between atoms: C_4  and  N_6
REMARK    5  A    between atoms: N_6  and  C_7
REMARK    6  A    between atoms: C_7  and  C_8
REMARK    7  A    between atoms: N_17  and  C_18
REMARK                            x       y       z     vdW  Elec       q    Type
REMARK                         _______ _______ _______ _____ _____    ______ ____
ROOT
ATOM      1  C   UNL     1       1.294   7.792  20.942  0.00  0.00    +0.000 C 
ATOM      2  C   UNL     1       1.665   8.126  19.539  0.00  0.00    +0.000 A 
ATOM      3  C   UNL     1       2.379   7.353  18.621  0.00  0.00    +0.000 A 
ATOM      4  C   UNL     1       2.665   8.283  17.594  0.00  0.00    +0.000 A 
ATOM      5  N   UNL     1       2.117   9.471  17.779  0.00  0.00    +0.000 NA
ATOM      6  N   UNL     1       1.417   9.373  18.930  0.00  0.00    +0.000 N 
ENDROOT
BRANCH   6   7
ATOM      7  C   UNL     1       0.513  10.438  19.292  0.00  0.00    +0.000 A 
ATOM      8  C   UNL     1       0.895  11.296  20.336  0.00  0.00    +0.000 A 
ATOM      9  C   UNL     1       0.035  12.280  20.810  0.00  0.00    +0.000 A 
ATOM     10  C   UNL     1      -1.234  12.412  20.264  0.00  0.00    +0.000 A 
ATOM     11  C   UNL     1      -1.663  11.583  19.221  0.00  0.00    +0.000 A 
ATOM     12  C   UNL     1      -2.961  11.774  18.714  0.00  0.00    +0.000 A 
ATOM     13  C   UNL     1      -3.450  11.001  17.668  0.00  0.00    +0.000 A 
ATOM     14  C   UNL     1      -2.642  10.030  17.111  0.00  0.00    +0.000 A 
ATOM     15  C   UNL     1      -1.345   9.832  17.607  0.00  0.00    +0.000 A 
ATOM     16  C   UNL     1      -0.803  10.578  18.698  0.00  0.00    +0.000 A 
ENDBRANCH   6   7
BRANCH   3  17
ATOM     17  C   UNL     1       2.930   5.936  18.643  0.00  0.00    +0.000 C 
ATOM     18  C   UNL     1       1.762   4.920  18.618  0.00  0.00    +0.000 C 
BRANCH  17  19
ATOM     19  N   UNL     1       3.833   5.690  19.802  0.00  0.00    +0.000 NA
ATOM     20  H   UNL     1       3.549   4.823  20.253  0.00  0.00    +0.000 HD
BRANCH  19  21
ATOM     21  C   UNL     1       5.220   5.547  19.308  0.00  0.00    +0.000 C 
BRANCH  21  22
ATOM     22  C   UNL     1       5.442   5.325  17.829  0.00  0.00    +0.000 A 
ATOM     23  C   UNL     1       5.795   6.321  16.922  0.00  0.00    +0.000 A 
ATOM     24  C   UNL     1       5.823   6.044  15.546  0.00  0.00    +0.000 A 
ATOM     25  C   UNL     1       5.493   4.770  15.066  0.00  0.00    +0.000 A 
ATOM     26  C   UNL     1       5.146   3.767  15.959  0.00  0.00    +0.000 A 
ATOM     27  C   UNL     1       5.118   4.050  17.321  0.00  0.00    +0.000 A 
ATOM     28  F   UNL     1       4.737   3.073  18.155  0.00  0.00    +0.000 F 
ENDBRANCH  21  22
ENDBRANCH  19  21
ENDBRANCH  17  19
ENDBRANCH   3  17
TORSDOF 5
ENDMDL
