MODEL 1
REMARK VINA RESULT:      -7.1      0.000      0.000
REMARK  Name = 
REMARK  7 active torsions:
REMARK  status: ('A' for Active; 'I' for Inactive)
REMARK    1  A    between atoms: C_1  and  C_2
REMARK    2  A    between atoms: C_2  and  N_3
REMARK    3  A    between atoms: N_15  and  C_16
REMARK    4  A    between atoms: C_16  and  C_17
REMARK    5  A    between atoms: C_17  and  C_18
REMARK    6  A    between atoms: C_18  and  S_19
REMARK    7  A    between atoms: S_19  and  O_22
REMARK                            x       y       z     vdW  Elec       q    Type
REMARK                         _______ _______ _______ _____ _____    ______ ____
ROOT
ATOM      1  N   UNL     1       0.825   9.792  19.379  0.00  0.00    +0.000 N 
ATOM      2  C   UNL     1       1.895   8.991  19.019  0.00  0.00    +0.000 C 
ATOM      3  O   UNL     1       2.739   9.310  18.195  0.00  0.00    +0.000 OA
ATOM      4  C   UNL     1       1.925   7.772  19.878  0.00  0.00    +0.000 C 
ATOM      5  C   UNL     1       2.268   6.499  19.534  0.00  0.00    +0.000 C 
ATOM      6  S   UNL     1       1.946   5.224  20.785  0.00  0.00    +0.000 S 
ATOM      7  C   UNL     1       2.480   3.987  19.642  0.00  0.00    +0.000 A 
ATOM      8  C   UNL     1       2.463   2.619  19.926  0.00  0.00    +0.000 A 
ATOM      9  C   UNL     1       2.939   1.727  18.974  0.00  0.00    +0.000 A 
ATOM     10  C   UNL     1       3.429   2.218  17.773  0.00  0.00    +0.000 A 
ATOM     11  C   UNL     1       3.419   3.596  17.503  0.00  0.00    +0.000 A 
ATOM     12  C   UNL     1       2.929   4.527  18.420  0.00  0.00    +0.000 A 
ATOM     13  N   UNL     1       2.773   5.933  18.313  0.00  0.00    +0.000 N 
ATOM     14  S   UNL     1       1.204   8.278  21.399  0.00  0.00    +0.000 S 
ATOM     15  C   UNL     1       0.418   9.673  20.683  0.00  0.00    +0.000 C 
ATOM     16  S   UNL     1      -0.648  10.641  21.523  0.00  0.00    +0.000 S 
ENDROOT
BRANCH   1  18
ATOM     17  C   UNL     1      -1.033  10.002  17.807  0.00  0.00    +0.000 C 
ATOM     18  C   UNL     1       0.218  10.669  18.379  0.00  0.00    +0.000 C 
ENDBRANCH   1  18
BRANCH  13  19
ATOM     19  C   UNL     1       3.310   6.757  17.209  0.00  0.00    +0.000 C 
BRANCH  19  20
ATOM     20  C   UNL     1       4.807   6.784  16.993  0.00  0.00    +0.000 C 
BRANCH  20  21
ATOM     21  C   UNL     1       5.273   6.115  15.709  0.00  0.00    +0.000 C 
BRANCH  21  22
ATOM     22  S   UNL     1       6.914   5.447  16.002  0.00  0.00    +0.000 S 
ATOM     23  O   UNL     1       6.853   4.443  17.045  0.00  0.00    +0.000 OA
ATOM     24  O   UNL     1       7.577   5.218  14.742  0.00  0.00    +0.000 OA
BRANCH  22  25
ATOM     25  O   UNL     1       7.567   6.741  16.705  0.00  0.00    +0.000 OA
ATOM     26  H   UNL     1       7.388   6.676  17.669  0.00  0.00    +0.000 HD
ENDBRANCH  22  25
ENDBRANCH  21  22
ENDBRANCH  20  21
ENDBRANCH  19  20
ENDBRANCH  13  19
TORSDOF 6
ENDMDL
MODEL 2
REMARK VINA RESULT:      -6.8      0.715      1.256
REMARK  Name = 
REMARK  7 active torsions:
REMARK  status: ('A' for Active; 'I' for Inactive)
REMARK    1  A    between atoms: C_1  and  C_2
REMARK    2  A    between atoms: C_2  and  N_3
REMARK    3  A    between atoms: N_15  and  C_16
REMARK    4  A    between atoms: C_16  and  C_17
REMARK    5  A    between atoms: C_17  and  C_18
REMARK    6  A    between atoms: C_18  and  S_19
REMARK    7  A    between atoms: S_19  and  O_22
REMARK                            x       y       z     vdW  Elec       q    Type
REMARK                         _______ _______ _______ _____ _____    ______ ____
ROOT
ATOM      1  N   UNL     1       0.915   9.722  19.328  0.00  0.00    +0.000 N 
ATOM      2  C   UNL     1       1.955   8.880  18.979  0.00  0.00    +0.000 C 
ATOM      3  O   UNL     1       2.815   9.160  18.156  0.00  0.00    +0.000 OA
ATOM      4  C   UNL     1       1.935   7.666  19.847  0.00  0.00    +0.000 C 
ATOM      5  C   UNL     1       2.233   6.380  19.514  0.00  0.00    +0.000 C 
ATOM      6  S   UNL     1       1.858   5.127  20.773  0.00  0.00    +0.000 S 
ATOM      7  C   UNL     1       2.350   3.862  19.642  0.00  0.00    +0.000 A 
ATOM      8  C   UNL     1       2.281   2.497  19.936  0.00  0.00    +0.000 A 
ATOM      9  C   UNL     1       2.729   1.581  18.994  0.00  0.00    +0.000 A 
ATOM     10  C   UNL     1       3.242   2.044  17.791  0.00  0.00    +0.000 A 
ATOM     11  C   UNL     1       3.285   3.420  17.510  0.00  0.00    +0.000 A 
ATOM     12  C   UNL     1       2.825   4.376  18.418  0.00  0.00    +0.000 A 
ATOM     13  N   UNL     1       2.722   5.786  18.300  0.00  0.00    +0.000 N 
ATOM     14  S   UNL     1       1.227   8.211  21.360  0.00  0.00    +0.000 S 
ATOM     15  C   UNL     1       0.497   9.629  20.631  0.00  0.00    +0.000 C 
ATOM     16  S   UNL     1      -0.536  10.642  21.458  0.00  0.00    +0.000 S 
ENDROOT
BRANCH   1  18
ATOM     17  C   UNL     1      -0.963  10.022  17.795  0.00  0.00    +0.000 C 
ATOM     18  C   UNL     1       0.345  10.613  18.318  0.00  0.00    +0.000 C 
ENDBRANCH   1  18
BRANCH  13  19
ATOM     19  C   UNL     1       3.295   6.581  17.193  0.00  0.00    +0.000 C 
BRANCH  19  20
ATOM     20  C   UNL     1       4.799   6.612  17.032  0.00  0.00    +0.000 C 
BRANCH  20  21
ATOM     21  C   UNL     1       5.574   6.077  18.226  0.00  0.00    +0.000 C 
BRANCH  21  22
ATOM     22  S   UNL     1       7.301   5.955  17.751  0.00  0.00    +0.000 S 
ATOM     23  O   UNL     1       7.425   6.118  16.316  0.00  0.00    +0.000 OA
ATOM     24  O   UNL     1       8.116   6.685  18.688  0.00  0.00    +0.000 OA
BRANCH  22  25
ATOM     25  O   UNL     1       7.500   4.377  18.010  0.00  0.00    +0.000 OA
ATOM     26  H   UNL     1       7.616   4.248  18.977  0.00  0.00    +0.000 HD
ENDBRANCH  22  25
ENDBRANCH  21  22
ENDBRANCH  20  21
ENDBRANCH  19  20
ENDBRANCH  13  19
TORSDOF 6
ENDMDL
MODEL 3
REMARK VINA RESULT:      -6.7      3.041      4.408
REMARK  Name = 
REMARK  7 active torsions:
REMARK  status: ('A' for Active; 'I' for Inactive)
REMARK    1  A    between atoms: C_1  and  C_2
REMARK    2  A    between atoms: C_2  and  N_3
REMARK    3  A    between atoms: N_15  and  C_16
REMARK    4  A    between atoms: C_16  and  C_17
REMARK    5  A    between atoms: C_17  and  C_18
REMARK    6  A    between atoms: C_18  and  S_19
REMARK    7  A    between atoms: S_19  and  O_22
REMARK                            x       y       z     vdW  Elec       q    Type
REMARK                         _______ _______ _______ _____ _____    ______ ____
ROOT
ATOM      1  N   UNL     1       0.757   9.648  21.251  0.00  0.00    +0.000 N 
ATOM      2  C   UNL     1       0.909   8.360  20.769  0.00  0.00    +0.000 C 
ATOM      3  O   UNL     1       0.447   7.368  21.314  0.00  0.00    +0.000 OA
ATOM      4  C   UNL     1       1.590   8.395  19.442  0.00  0.00    +0.000 C 
ATOM      5  C   UNL     1       2.502   7.521  18.933  0.00  0.00    +0.000 C 
ATOM      6  S   UNL     1       3.301   8.021  17.381  0.00  0.00    +0.000 S 
ATOM      7  C   UNL     1       4.322   6.580  17.458  0.00  0.00    +0.000 A 
ATOM      8  C   UNL     1       5.317   6.292  16.521  0.00  0.00    +0.000 A 
ATOM      9  C   UNL     1       6.041   5.114  16.647  0.00  0.00    +0.000 A 
ATOM     10  C   UNL     1       5.750   4.251  17.693  0.00  0.00    +0.000 A 
ATOM     11  C   UNL     1       4.757   4.571  18.634  0.00  0.00    +0.000 A 
ATOM     12  C   UNL     1       4.020   5.754  18.560  0.00  0.00    +0.000 A 
ATOM     13  N   UNL     1       3.036   6.284  19.434  0.00  0.00    +0.000 N 
ATOM     14  S   UNL     1       1.130   9.940  18.744  0.00  0.00    +0.000 S 
ATOM     15  C   UNL     1       0.680  10.627  20.294  0.00  0.00    +0.000 C 
ATOM     16  S   UNL     1       0.252  12.226  20.486  0.00  0.00    +0.000 S 
ENDROOT
BRANCH   1  18
ATOM     17  C   UNL     1      -0.756   9.991  23.138  0.00  0.00    +0.000 C 
ATOM     18  C   UNL     1       0.702   9.871  22.696  0.00  0.00    +0.000 C 
ENDBRANCH   1  18
BRANCH  13  19
ATOM     19  C   UNL     1       2.429   5.547  20.563  0.00  0.00    +0.000 C 
BRANCH  19  20
ATOM     20  C   UNL     1       1.320   4.562  20.267  0.00  0.00    +0.000 C 
BRANCH  20  21
ATOM     21  C   UNL     1       1.784   3.126  20.075  0.00  0.00    +0.000 C 
BRANCH  21  22
ATOM     22  S   UNL     1       1.613   2.722  18.334  0.00  0.00    +0.000 S 
ATOM     23  O   UNL     1       1.215   3.903  17.594  0.00  0.00    +0.000 OA
ATOM     24  O   UNL     1       2.707   1.879  17.921  0.00  0.00    +0.000 OA
BRANCH  22  25
ATOM     25  O   UNL     1       0.278   1.825  18.436  0.00  0.00    +0.000 OA
ATOM     26  H   UNL     1      -0.403   2.241  17.862  0.00  0.00    +0.000 HD
ENDBRANCH  22  25
ENDBRANCH  21  22
ENDBRANCH  20  21
ENDBRANCH  19  20
ENDBRANCH  13  19
TORSDOF 6
ENDMDL
MODEL 4
REMARK VINA RESULT:      -6.7      0.341      1.038
REMARK  Name = 
REMARK  7 active torsions:
REMARK  status: ('A' for Active; 'I' for Inactive)
REMARK    1  A    between atoms: C_1  and  C_2
REMARK    2  A    between atoms: C_2  and  N_3
REMARK    3  A    between atoms: N_15  and  C_16
REMARK    4  A    between atoms: C_16  and  C_17
REMARK    5  A    between atoms: C_17  and  C_18
REMARK    6  A    between atoms: C_18  and  S_19
REMARK    7  A    between atoms: S_19  and  O_22
REMARK                            x       y       z     vdW  Elec       q    Type
REMARK                         _______ _______ _______ _____ _____    ______ ____
ROOT
ATOM      1  N   UNL     1       0.743   9.801  19.522  0.00  0.00    +0.000 N 
ATOM      2  C   UNL     1       1.807   9.013  19.119  0.00  0.00    +0.000 C 
ATOM      3  O   UNL     1       2.621   9.346  18.270  0.00  0.00    +0.000 OA
ATOM      4  C   UNL     1       1.874   7.786  19.965  0.00  0.00    +0.000 C 
ATOM      5  C   UNL     1       2.216   6.519  19.597  0.00  0.00    +0.000 C 
ATOM      6  S   UNL     1       1.946   5.230  20.847  0.00  0.00    +0.000 S 
ATOM      7  C   UNL     1       2.451   4.007  19.675  0.00  0.00    +0.000 A 
ATOM      8  C   UNL     1       2.455   2.637  19.946  0.00  0.00    +0.000 A 
ATOM      9  C   UNL     1       2.906   1.757  18.971  0.00  0.00    +0.000 A 
ATOM     10  C   UNL     1       3.352   2.263  17.759  0.00  0.00    +0.000 A 
ATOM     11  C   UNL     1       3.322   3.644  17.502  0.00  0.00    +0.000 A 
ATOM     12  C   UNL     1       2.856   4.563  18.444  0.00  0.00    +0.000 A 
ATOM     13  N   UNL     1       2.685   5.969  18.356  0.00  0.00    +0.000 N 
ATOM     14  S   UNL     1       1.201   8.272  21.513  0.00  0.00    +0.000 S 
ATOM     15  C   UNL     1       0.380   9.667  20.837  0.00  0.00    +0.000 C 
ATOM     16  S   UNL     1      -0.664  10.619  21.720  0.00  0.00    +0.000 S 
ENDROOT
BRANCH   1  18
ATOM     17  C   UNL     1       0.647  12.099  18.700  0.00  0.00    +0.000 C 
ATOM     18  C   UNL     1       0.096  10.682  18.551  0.00  0.00    +0.000 C 
ENDBRANCH   1  18
BRANCH  13  19
ATOM     19  C   UNL     1       3.179   6.807  17.242  0.00  0.00    +0.000 C 
BRANCH  19  20
ATOM     20  C   UNL     1       4.674   6.964  17.067  0.00  0.00    +0.000 C 
BRANCH  20  21
ATOM     21  C   UNL     1       5.251   6.221  15.872  0.00  0.00    +0.000 C 
BRANCH  21  22
ATOM     22  S   UNL     1       6.894   5.652  16.320  0.00  0.00    +0.000 S 
ATOM     23  O   UNL     1       7.695   6.774  16.766  0.00  0.00    +0.000 OA
ATOM     24  O   UNL     1       6.796   4.423  17.068  0.00  0.00    +0.000 OA
BRANCH  22  25
ATOM     25  O   UNL     1       7.434   5.315  14.839  0.00  0.00    +0.000 OA
ATOM     26  H   UNL     1       6.653   5.105  14.281  0.00  0.00    +0.000 HD
ENDBRANCH  22  25
ENDBRANCH  21  22
ENDBRANCH  20  21
ENDBRANCH  19  20
ENDBRANCH  13  19
TORSDOF 6
ENDMDL
MODEL 5
REMARK VINA RESULT:      -6.6      2.960      4.538
REMARK  Name = 
REMARK  7 active torsions:
REMARK  status: ('A' for Active; 'I' for Inactive)
REMARK    1  A    between atoms: C_1  and  C_2
REMARK    2  A    between atoms: C_2  and  N_3
REMARK    3  A    between atoms: N_15  and  C_16
REMARK    4  A    between atoms: C_16  and  C_17
REMARK    5  A    between atoms: C_17  and  C_18
REMARK    6  A    between atoms: C_18  and  S_19
REMARK    7  A    between atoms: S_19  and  O_22
REMARK                            x       y       z     vdW  Elec       q    Type
REMARK                         _______ _______ _______ _____ _____    ______ ____
ROOT
ATOM      1  N   UNL     1       1.342   8.815  20.557  0.00  0.00    +0.000 N 
ATOM      2  C   UNL     1       1.731   7.553  20.143  0.00  0.00    +0.000 C 
ATOM      3  O   UNL     1       1.493   6.527  20.762  0.00  0.00    +0.000 OA
ATOM      4  C   UNL     1       2.347   7.635  18.786  0.00  0.00    +0.000 C 
ATOM      5  C   UNL     1       3.398   6.926  18.287  0.00  0.00    +0.000 C 
ATOM      6  S   UNL     1       4.030   7.472  16.675  0.00  0.00    +0.000 S 
ATOM      7  C   UNL     1       5.319   6.268  16.788  0.00  0.00    +0.000 A 
ATOM      8  C   UNL     1       6.320   6.120  15.825  0.00  0.00    +0.000 A 
ATOM      9  C   UNL     1       7.267   5.118  15.985  0.00  0.00    +0.000 A 
ATOM     10  C   UNL     1       7.188   4.283  17.091  0.00  0.00    +0.000 A 
ATOM     11  C   UNL     1       6.183   4.462  18.055  0.00  0.00    +0.000 A 
ATOM     12  C   UNL     1       5.223   5.470  17.947  0.00  0.00    +0.000 A 
ATOM     13  N   UNL     1       4.183   5.853  18.833  0.00  0.00    +0.000 N 
ATOM     14  S   UNL     1       1.567   9.012  18.023  0.00  0.00    +0.000 S 
ATOM     15  C   UNL     1       1.042   9.696  19.550  0.00  0.00    +0.000 C 
ATOM     16  S   UNL     1       0.310  11.188  19.670  0.00  0.00    +0.000 S 
ENDROOT
BRANCH   1  18
ATOM     17  C   UNL     1      -0.150   8.999  22.482  0.00  0.00    +0.000 C 
ATOM     18  C   UNL     1       1.291   9.115  21.987  0.00  0.00    +0.000 C 
ENDBRANCH   1  18
BRANCH  13  19
ATOM     19  C   UNL     1       3.772   5.085  20.028  0.00  0.00    +0.000 C 
BRANCH  19  20
ATOM     20  C   UNL     1       3.487   3.608  19.872  0.00  0.00    +0.000 C 
BRANCH  20  21
ATOM     21  C   UNL     1       2.021   3.228  20.015  0.00  0.00    +0.000 C 
BRANCH  21  22
ATOM     22  S   UNL     1       1.405   2.791  18.387  0.00  0.00    +0.000 S 
ATOM     23  O   UNL     1       0.147   2.082  18.514  0.00  0.00    +0.000 OA
ATOM     24  O   UNL     1       1.583   3.901  17.485  0.00  0.00    +0.000 OA
BRANCH  22  25
ATOM     25  O   UNL     1       2.490   1.654  18.028  0.00  0.00    +0.000 OA
ATOM     26  H   UNL     1       3.222   2.088  17.537  0.00  0.00    +0.000 HD
ENDBRANCH  22  25
ENDBRANCH  21  22
ENDBRANCH  20  21
ENDBRANCH  19  20
ENDBRANCH  13  19
TORSDOF 6
ENDMDL
MODEL 6
REMARK VINA RESULT:      -6.3      5.530      7.394
REMARK  Name = 
REMARK  7 active torsions:
REMARK  status: ('A' for Active; 'I' for Inactive)
REMARK    1  A    between atoms: C_1  and  C_2
REMARK    2  A    between atoms: C_2  and  N_3
REMARK    3  A    between atoms: N_15  and  C_16
REMARK    4  A    between atoms: C_16  and  C_17
REMARK    5  A    between atoms: C_17  and  C_18
REMARK    6  A    between atoms: C_18  and  S_19
REMARK    7  A    between atoms: S_19  and  O_22
REMARK                            x       y       z     vdW  Elec       q    Type
REMARK                         _______ _______ _______ _____ _____    ______ ____
ROOT
ATOM      1  N   UNL     1      -3.232  12.995  21.932  0.00  0.00    +0.000 N 
ATOM      2  C   UNL     1      -2.040  12.972  21.231  0.00  0.00    +0.000 C 
ATOM      3  O   UNL     1      -1.696  13.838  20.440  0.00  0.00    +0.000 OA
ATOM      4  C   UNL     1      -1.205  11.824  21.691  0.00  0.00    +0.000 C 
ATOM      5  C   UNL     1      -0.387  11.021  20.955  0.00  0.00    +0.000 C 
ATOM      6  S   UNL     1       0.279   9.566  21.813  0.00  0.00    +0.000 S 
ATOM      7  C   UNL     1       1.037   9.041  20.305  0.00  0.00    +0.000 A 
ATOM      8  C   UNL     1       1.759   7.852  20.181  0.00  0.00    +0.000 A 
ATOM      9  C   UNL     1       2.351   7.545  18.963  0.00  0.00    +0.000 A 
ATOM     10  C   UNL     1       2.218   8.433  17.905  0.00  0.00    +0.000 A 
ATOM     11  C   UNL     1       1.472   9.615  18.049  0.00  0.00    +0.000 A 
ATOM     12  C   UNL     1       0.842   9.953  19.248  0.00  0.00    +0.000 A 
ATOM     13  N   UNL     1       0.002  11.049  19.572  0.00  0.00    +0.000 N 
ATOM     14  S   UNL     1      -1.670  11.576  23.367  0.00  0.00    +0.000 S 
ATOM     15  C   UNL     1      -3.186  12.439  23.185  0.00  0.00    +0.000 C 
ATOM     16  S   UNL     1      -4.335  12.513  24.389  0.00  0.00    +0.000 S 
ENDROOT
BRANCH   1  18
ATOM     17  C   UNL     1      -5.164  12.500  20.522  0.00  0.00    +0.000 C 
ATOM     18  C   UNL     1      -4.419  13.578  21.309  0.00  0.00    +0.000 C 
ENDBRANCH   1  18
BRANCH  13  19
ATOM     19  C   UNL     1      -0.228  12.219  18.697  0.00  0.00    +0.000 C 
BRANCH  19  20
ATOM     20  C   UNL     1      -1.327  12.140  17.662  0.00  0.00    +0.000 C 
BRANCH  20  21
ATOM     21  C   UNL     1      -2.522  11.291  18.072  0.00  0.00    +0.000 C 
BRANCH  21  22
ATOM     22  S   UNL     1      -3.409  10.834  16.579  0.00  0.00    +0.000 S 
ATOM     23  O   UNL     1      -3.282   9.408  16.353  0.00  0.00    +0.000 OA
ATOM     24  O   UNL     1      -4.678  11.516  16.540  0.00  0.00    +0.000 OA
BRANCH  22  25
ATOM     25  O   UNL     1      -2.420  11.517  15.505  0.00  0.00    +0.000 OA
ATOM     26  H   UNL     1      -2.889  12.291  15.121  0.00  0.00    +0.000 HD
ENDBRANCH  22  25
ENDBRANCH  21  22
ENDBRANCH  20  21
ENDBRANCH  19  20
ENDBRANCH  13  19
TORSDOF 6
ENDMDL
MODEL 7
REMARK VINA RESULT:      -6.2      2.916      6.844
REMARK  Name = 
REMARK  7 active torsions:
REMARK  status: ('A' for Active; 'I' for Inactive)
REMARK    1  A    between atoms: C_1  and  C_2
REMARK    2  A    between atoms: C_2  and  N_3
REMARK    3  A    between atoms: N_15  and  C_16
REMARK    4  A    between atoms: C_16  and  C_17
REMARK    5  A    between atoms: C_17  and  C_18
REMARK    6  A    between atoms: C_18  and  S_19
REMARK    7  A    between atoms: S_19  and  O_22
REMARK                            x       y       z     vdW  Elec       q    Type
REMARK                         _______ _______ _______ _____ _____    ______ ____
ROOT
ATOM      1  N   UNL     1       4.651   4.405  17.184  0.00  0.00    +0.000 N 
ATOM      2  C   UNL     1       4.404   5.180  18.303  0.00  0.00    +0.000 C 
ATOM      3  O   UNL     1       4.598   4.806  19.450  0.00  0.00    +0.000 OA
ATOM      4  C   UNL     1       4.005   6.556  17.885  0.00  0.00    +0.000 C 
ATOM      5  C   UNL     1       3.088   7.384  18.458  0.00  0.00    +0.000 C 
ATOM      6  S   UNL     1       2.688   8.891  17.527  0.00  0.00    +0.000 S 
ATOM      7  C   UNL     1       1.467   9.299  18.737  0.00  0.00    +0.000 A 
ATOM      8  C   UNL     1       0.640  10.421  18.648  0.00  0.00    +0.000 A 
ATOM      9  C   UNL     1      -0.263  10.677  19.671  0.00  0.00    +0.000 A 
ATOM     10  C   UNL     1      -0.313   9.817  20.759  0.00  0.00    +0.000 A 
ATOM     11  C   UNL     1       0.516   8.685  20.818  0.00  0.00    +0.000 A 
ATOM     12  C   UNL     1       1.423   8.377  19.803  0.00  0.00    +0.000 A 
ATOM     13  N   UNL     1       2.288   7.263  19.646  0.00  0.00    +0.000 N 
ATOM     14  S   UNL     1       4.818   6.810  16.348  0.00  0.00    +0.000 S 
ATOM     15  C   UNL     1       5.058   5.095  16.071  0.00  0.00    +0.000 C 
ATOM     16  S   UNL     1       5.676   4.486  14.649  0.00  0.00    +0.000 S 
ENDROOT
BRANCH   1  18
ATOM     17  C   UNL     1       2.979   2.628  17.077  0.00  0.00    +0.000 C 
ATOM     18  C   UNL     1       4.460   2.957  17.259  0.00  0.00    +0.000 C 
ENDBRANCH   1  18
BRANCH  13  19
ATOM     19  C   UNL     1       2.547   6.246  20.687  0.00  0.00    +0.000 C 
BRANCH  19  20
ATOM     20  C   UNL     1       1.460   5.243  21.001  0.00  0.00    +0.000 C 
BRANCH  20  21
ATOM     21  C   UNL     1       1.257   4.177  19.934  0.00  0.00    +0.000 C 
BRANCH  21  22
ATOM     22  S   UNL     1       1.688   2.590  20.654  0.00  0.00    +0.000 S 
ATOM     23  O   UNL     1       1.340   2.581  22.061  0.00  0.00    +0.000 OA
ATOM     24  O   UNL     1       1.309   1.529  19.754  0.00  0.00    +0.000 OA
BRANCH  22  25
ATOM     25  O   UNL     1       3.291   2.750  20.621  0.00  0.00    +0.000 OA
ATOM     26  H   UNL     1       3.562   3.185  21.460  0.00  0.00    +0.000 HD
ENDBRANCH  22  25
ENDBRANCH  21  22
ENDBRANCH  20  21
ENDBRANCH  19  20
ENDBRANCH  13  19
TORSDOF 6
ENDMDL
MODEL 8
REMARK VINA RESULT:      -6.1      2.985      4.531
REMARK  Name = 
REMARK  7 active torsions:
REMARK  status: ('A' for Active; 'I' for Inactive)
REMARK    1  A    between atoms: C_1  and  C_2
REMARK    2  A    between atoms: C_2  and  N_3
REMARK    3  A    between atoms: N_15  and  C_16
REMARK    4  A    between atoms: C_16  and  C_17
REMARK    5  A    between atoms: C_17  and  C_18
REMARK    6  A    between atoms: C_18  and  S_19
REMARK    7  A    between atoms: S_19  and  O_22
REMARK                            x       y       z     vdW  Elec       q    Type
REMARK                         _______ _______ _______ _____ _____    ______ ____
ROOT
ATOM      1  N   UNL     1       1.329   8.734  20.547  0.00  0.00    +0.000 N 
ATOM      2  C   UNL     1       1.767   7.474  20.180  0.00  0.00    +0.000 C 
ATOM      3  O   UNL     1       1.587   6.466  20.847  0.00  0.00    +0.000 OA
ATOM      4  C   UNL     1       2.356   7.524  18.809  0.00  0.00    +0.000 C 
ATOM      5  C   UNL     1       3.429   6.841  18.321  0.00  0.00    +0.000 C 
ATOM      6  S   UNL     1       4.007   7.343  16.675  0.00  0.00    +0.000 S 
ATOM      7  C   UNL     1       5.351   6.204  16.815  0.00  0.00    +0.000 A 
ATOM      8  C   UNL     1       6.341   6.059  15.840  0.00  0.00    +0.000 A 
ATOM      9  C   UNL     1       7.336   5.108  16.024  0.00  0.00    +0.000 A 
ATOM     10  C   UNL     1       7.314   4.320  17.166  0.00  0.00    +0.000 A 
ATOM     11  C   UNL     1       6.318   4.496  18.141  0.00  0.00    +0.000 A 
ATOM     12  C   UNL     1       5.312   5.455  18.008  0.00  0.00    +0.000 A 
ATOM     13  N   UNL     1       4.271   5.829  18.897  0.00  0.00    +0.000 N 
ATOM     14  S   UNL     1       1.501   8.830  18.002  0.00  0.00    +0.000 S 
ATOM     15  C   UNL     1       0.971   9.556  19.509  0.00  0.00    +0.000 C 
ATOM     16  S   UNL     1       0.175  11.018  19.579  0.00  0.00    +0.000 S 
ENDROOT
BRANCH   1  18
ATOM     17  C   UNL     1      -0.150   9.012  22.471  0.00  0.00    +0.000 C 
ATOM     18  C   UNL     1       1.289   9.094  21.964  0.00  0.00    +0.000 C 
ENDBRANCH   1  18
BRANCH  13  19
ATOM     19  C   UNL     1       3.916   5.097  20.132  0.00  0.00    +0.000 C 
BRANCH  19  20
ATOM     20  C   UNL     1       3.366   3.693  20.004  0.00  0.00    +0.000 C 
BRANCH  20  21
ATOM     21  C   UNL     1       3.071   3.258  18.576  0.00  0.00    +0.000 C 
BRANCH  21  22
ATOM     22  S   UNL     1       1.297   3.373  18.323  0.00  0.00    +0.000 S 
ATOM     23  O   UNL     1       1.012   4.366  17.306  0.00  0.00    +0.000 OA
ATOM     24  O   UNL     1       0.723   2.051  18.299  0.00  0.00    +0.000 OA
BRANCH  22  25
ATOM     25  O   UNL     1       0.911   4.081  19.718  0.00  0.00    +0.000 OA
ATOM     26  H   UNL     1       1.654   3.929  20.343  0.00  0.00    +0.000 HD
ENDBRANCH  22  25
ENDBRANCH  21  22
ENDBRANCH  20  21
ENDBRANCH  19  20
ENDBRANCH  13  19
TORSDOF 6
ENDMDL
MODEL 9
REMARK VINA RESULT:      -5.8      5.066      7.198
REMARK  Name = 
REMARK  7 active torsions:
REMARK  status: ('A' for Active; 'I' for Inactive)
REMARK    1  A    between atoms: C_1  and  C_2
REMARK    2  A    between atoms: C_2  and  N_3
REMARK    3  A    between atoms: N_15  and  C_16
REMARK    4  A    between atoms: C_16  and  C_17
REMARK    5  A    between atoms: C_17  and  C_18
REMARK    6  A    between atoms: C_18  and  S_19
REMARK    7  A    between atoms: S_19  and  O_22
REMARK                            x       y       z     vdW  Elec       q    Type
REMARK                         _______ _______ _______ _____ _____    ______ ____
ROOT
ATOM      1  N   UNL     1      -3.824  12.963  21.943  0.00  0.00    +0.000 N 
ATOM      2  C   UNL     1      -2.676  13.012  21.172  0.00  0.00    +0.000 C 
ATOM      3  O   UNL     1      -2.474  13.844  20.300  0.00  0.00    +0.000 OA
ATOM      4  C   UNL     1      -1.697  11.998  21.659  0.00  0.00    +0.000 C 
ATOM      5  C   UNL     1      -0.836  11.231  20.933  0.00  0.00    +0.000 C 
ATOM      6  S   UNL     1       0.032   9.926  21.850  0.00  0.00    +0.000 S 
ATOM      7  C   UNL     1       0.760   9.368  20.340  0.00  0.00    +0.000 A 
ATOM      8  C   UNL     1       1.601   8.255  20.256  0.00  0.00    +0.000 A 
ATOM      9  C   UNL     1       2.155   7.919  19.029  0.00  0.00    +0.000 A 
ATOM     10  C   UNL     1       1.867   8.702  17.920  0.00  0.00    +0.000 A 
ATOM     11  C   UNL     1       1.005   9.806  18.025  0.00  0.00    +0.000 A 
ATOM     12  C   UNL     1       0.408  10.168  19.233  0.00  0.00    +0.000 A 
ATOM     13  N   UNL     1      -0.529  11.191  19.530  0.00  0.00    +0.000 N 
ATOM     14  S   UNL     1      -2.038  11.834  23.375  0.00  0.00    +0.000 S 
ATOM     15  C   UNL     1      -3.648  12.515  23.227  0.00  0.00    +0.000 C 
ATOM     16  S   UNL     1      -4.731  12.562  24.493  0.00  0.00    +0.000 S 
ENDROOT
BRANCH   1  18
ATOM     17  C   UNL     1      -5.677  12.208  20.541  0.00  0.00    +0.000 C 
ATOM     18  C   UNL     1      -5.100  13.366  21.355  0.00  0.00    +0.000 C 
ENDBRANCH   1  18
BRANCH  13  19
ATOM     19  C   UNL     1      -0.934  12.258  18.590  0.00  0.00    +0.000 C 
BRANCH  19  20
ATOM     20  C   UNL     1       0.094  13.293  18.190  0.00  0.00    +0.000 C 
BRANCH  20  21
ATOM     21  C   UNL     1       0.621  14.139  19.340  0.00  0.00    +0.000 C 
BRANCH  21  22
ATOM     22  S   UNL     1       2.350  13.722  19.581  0.00  0.00    +0.000 S 
ATOM     23  O   UNL     1       2.767  12.764  18.575  0.00  0.00    +0.000 OA
ATOM     24  O   UNL     1       3.102  14.917  19.873  0.00  0.00    +0.000 OA
BRANCH  22  25
ATOM     25  O   UNL     1       2.194  12.863  20.935  0.00  0.00    +0.000 OA
ATOM     26  H   UNL     1       2.253  13.489  21.691  0.00  0.00    +0.000 HD
ENDBRANCH  22  25
ENDBRANCH  21  22
ENDBRANCH  20  21
ENDBRANCH  19  20
ENDBRANCH  13  19
TORSDOF 6
ENDMDL
