MODEL 1
REMARK VINA RESULT:      -7.9      0.000      0.000
REMARK  Name = 
REMARK  4 active torsions:
REMARK  status: ('A' for Active; 'I' for Inactive)
REMARK    1  A    between atoms: C_1  and  C_2
REMARK    2  A    between atoms: N_4  and  C_5
REMARK    3  A    between atoms: C_5  and  C_6
REMARK    4  A    between atoms: C_14  and  C_15
REMARK                            x       y       z     vdW  Elec       q    Type
REMARK                         _______ _______ _______ _____ _____    ______ ____
ROOT
ATOM      1  C   UNL     1      -1.191  12.277  22.205  0.00  0.00    +0.000 C 
ATOM      2  O   UNL     1      -1.129  11.316  23.275  0.00  0.00    +0.000 OA
ATOM      3  C   UNL     1      -0.405  10.224  22.877  0.00  0.00    +0.000 C 
ATOM      4  O   UNL     1      -0.292   9.243  23.594  0.00  0.00    +0.000 OA
ATOM      5  N   UNL     1       0.086  10.431  21.603  0.00  0.00    +0.000 N 
ATOM      6  C   UNL     1       0.802   9.512  20.794  0.00  0.00    +0.000 A 
ATOM      7  C   UNL     1       1.337   8.335  21.329  0.00  0.00    +0.000 A 
ATOM      8  C   UNL     1       2.013   7.415  20.523  0.00  0.00    +0.000 A 
ATOM      9  C   UNL     1       2.172   7.635  19.149  0.00  0.00    +0.000 A 
ATOM     10  C   UNL     1       1.652   8.824  18.620  0.00  0.00    +0.000 A 
ATOM     11  C   UNL     1       0.982   9.761  19.417  0.00  0.00    +0.000 A 
ATOM     12  S   UNL     1       0.365  11.203  18.550  0.00  0.00    +0.000 S 
ATOM     13  C   UNL     1      -0.859  11.767  19.760  0.00  0.00    +0.000 C 
ATOM     14  C   UNL     1      -0.231  11.759  21.145  0.00  0.00    +0.000 C 
ENDROOT
BRANCH   9  15
ATOM     15  C   UNL     1       2.868   6.668  18.291  0.00  0.00    +0.000 A 
ATOM     16  C   UNL     1       2.486   5.324  18.236  0.00  0.00    +0.000 A 
ATOM     17  C   UNL     1       3.216   4.419  17.461  0.00  0.00    +0.000 A 
ATOM     18  C   UNL     1       4.297   4.895  16.753  0.00  0.00    +0.000 A 
ATOM     19  F   UNL     1       5.026   4.021  16.048  0.00  0.00    +0.000 F 
ATOM     20  N   UNL     1       4.687   6.182  16.735  0.00  0.00    +0.000 NA
ATOM     21  C   UNL     1       3.966   7.033  17.501  0.00  0.00    +0.000 A 
ENDBRANCH   9  15
BRANCH   1  22
ATOM     22  C   UNL     1      -0.786  13.640  22.772  0.00  0.00    +0.000 C 
BRANCH  22  26
ATOM     23  C   UNL     1      -2.752  15.538  25.387  0.00  0.00    +0.000 C 
ATOM     24  C   UNL     1      -1.553  15.035  24.640  0.00  0.00    +0.000 C 
ATOM     25  O   UNL     1      -0.399  15.313  24.968  0.00  0.00    +0.000 OA
ATOM     26  N   UNL     1      -1.850  14.224  23.570  0.00  0.00    +0.000 N 
ATOM     27  H   UNL     1      -2.762  14.343  23.136  0.00  0.00    +0.000 HD
ENDBRANCH  22  26
ENDBRANCH   1  22
TORSDOF 3
ENDMDL
MODEL 2
REMARK VINA RESULT:      -7.6      3.179      3.996
REMARK  Name = 
REMARK  4 active torsions:
REMARK  status: ('A' for Active; 'I' for Inactive)
REMARK    1  A    between atoms: C_1  and  C_2
REMARK    2  A    between atoms: N_4  and  C_5
REMARK    3  A    between atoms: C_5  and  C_6
REMARK    4  A    between atoms: C_14  and  C_15
REMARK                            x       y       z     vdW  Elec       q    Type
REMARK                         _______ _______ _______ _____ _____    ______ ____
ROOT
ATOM      1  C   UNL     1      -0.418  12.696  20.455  0.00  0.00    +0.000 C 
ATOM      2  O   UNL     1       0.409  12.956  19.307  0.00  0.00    +0.000 OA
ATOM      3  C   UNL     1       1.059  11.810  18.934  0.00  0.00    +0.000 C 
ATOM      4  O   UNL     1       1.883  11.813  18.034  0.00  0.00    +0.000 OA
ATOM      5  N   UNL     1       0.657  10.764  19.741  0.00  0.00    +0.000 N 
ATOM      6  C   UNL     1       1.158   9.436  19.747  0.00  0.00    +0.000 A 
ATOM      7  C   UNL     1       1.967   8.960  18.710  0.00  0.00    +0.000 A 
ATOM      8  C   UNL     1       2.487   7.663  18.735  0.00  0.00    +0.000 A 
ATOM      9  C   UNL     1       2.222   6.796  19.803  0.00  0.00    +0.000 A 
ATOM     10  C   UNL     1       1.396   7.271  20.830  0.00  0.00    +0.000 A 
ATOM     11  C   UNL     1       0.858   8.564  20.815  0.00  0.00    +0.000 A 
ATOM     12  S   UNL     1      -0.150   8.993  22.233  0.00  0.00    +0.000 S 
ATOM     13  C   UNL     1      -0.107  10.798  22.083  0.00  0.00    +0.000 C 
ATOM     14  C   UNL     1      -0.386  11.186  20.640  0.00  0.00    +0.000 C 
ENDROOT
BRANCH   9  15
ATOM     15  C   UNL     1       2.775   5.437  19.846  0.00  0.00    +0.000 A 
ATOM     16  C   UNL     1       2.105   4.390  20.487  0.00  0.00    +0.000 A 
ATOM     17  C   UNL     1       2.695   3.126  20.567  0.00  0.00    +0.000 A 
ATOM     18  C   UNL     1       3.932   2.949  19.989  0.00  0.00    +0.000 A 
ATOM     19  F   UNL     1       4.519   1.751  20.107  0.00  0.00    +0.000 F 
ATOM     20  N   UNL     1       4.605   3.906  19.326  0.00  0.00    +0.000 NA
ATOM     21  C   UNL     1       4.013   5.121  19.272  0.00  0.00    +0.000 A 
ENDBRANCH   9  15
BRANCH   1  22
ATOM     22  C   UNL     1      -1.820  13.236  20.159  0.00  0.00    +0.000 C 
BRANCH  22  26
ATOM     23  C   UNL     1      -4.299  11.341  18.020  0.00  0.00    +0.000 C 
ATOM     24  C   UNL     1      -3.783  12.126  19.188  0.00  0.00    +0.000 C 
ATOM     25  O   UNL     1      -4.481  12.405  20.164  0.00  0.00    +0.000 OA
ATOM     26  N   UNL     1      -2.462  12.495  19.087  0.00  0.00    +0.000 N 
ATOM     27  H   UNL     1      -2.074  12.578  18.151  0.00  0.00    +0.000 HD
ENDBRANCH  22  26
ENDBRANCH   1  22
TORSDOF 3
ENDMDL
MODEL 3
REMARK VINA RESULT:      -7.6      2.326      2.809
REMARK  Name = 
REMARK  4 active torsions:
REMARK  status: ('A' for Active; 'I' for Inactive)
REMARK    1  A    between atoms: C_1  and  C_2
REMARK    2  A    between atoms: N_4  and  C_5
REMARK    3  A    between atoms: C_5  and  C_6
REMARK    4  A    between atoms: C_14  and  C_15
REMARK                            x       y       z     vdW  Elec       q    Type
REMARK                         _______ _______ _______ _____ _____    ______ ____
ROOT
ATOM      1  C   UNL     1      -0.048  12.333  21.046  0.00  0.00    +0.000 C 
ATOM      2  O   UNL     1      -0.490  11.605  22.206  0.00  0.00    +0.000 OA
ATOM      3  C   UNL     1      -0.090  10.299  22.116  0.00  0.00    +0.000 C 
ATOM      4  O   UNL     1      -0.427   9.474  22.949  0.00  0.00    +0.000 OA
ATOM      5  N   UNL     1       0.664  10.122  20.972  0.00  0.00    +0.000 N 
ATOM      6  C   UNL     1       1.187   8.906  20.462  0.00  0.00    +0.000 A 
ATOM      7  C   UNL     1       1.214   7.743  21.240  0.00  0.00    +0.000 A 
ATOM      8  C   UNL     1       1.698   6.538  20.724  0.00  0.00    +0.000 A 
ATOM      9  C   UNL     1       2.166   6.450  19.407  0.00  0.00    +0.000 A 
ATOM     10  C   UNL     1       2.156   7.621  18.638  0.00  0.00    +0.000 A 
ATOM     11  C   UNL     1       1.684   8.839  19.144  0.00  0.00    +0.000 A 
ATOM     12  S   UNL     1       1.726  10.214  17.995  0.00  0.00    +0.000 S 
ATOM     13  C   UNL     1       0.545  11.314  18.819  0.00  0.00    +0.000 C 
ATOM     14  C   UNL     1       0.875  11.379  20.302  0.00  0.00    +0.000 C 
ENDROOT
BRANCH   9  15
ATOM     15  C   UNL     1       2.663   5.186  18.851  0.00  0.00    +0.000 A 
ATOM     16  C   UNL     1       1.959   4.488  17.864  0.00  0.00    +0.000 A 
ATOM     17  C   UNL     1       2.429   3.253  17.409  0.00  0.00    +0.000 A 
ATOM     18  C   UNL     1       3.599   2.765  17.947  0.00  0.00    +0.000 A 
ATOM     19  F   UNL     1       4.024   1.560  17.547  0.00  0.00    +0.000 F 
ATOM     20  N   UNL     1       4.339   3.409  18.867  0.00  0.00    +0.000 NA
ATOM     21  C   UNL     1       3.855   4.597  19.294  0.00  0.00    +0.000 A 
ENDBRANCH   9  15
BRANCH   1  22
ATOM     22  C   UNL     1       0.659  13.603  21.526  0.00  0.00    +0.000 C 
BRANCH  22  26
ATOM     23  C   UNL     1       4.279  14.507  20.906  0.00  0.00    +0.000 C 
ATOM     24  C   UNL     1       2.955  14.467  21.607  0.00  0.00    +0.000 C 
ATOM     25  O   UNL     1       2.739  15.076  22.656  0.00  0.00    +0.000 OA
ATOM     26  N   UNL     1       1.998  13.709  20.974  0.00  0.00    +0.000 N 
ATOM     27  H   UNL     1       2.325  12.960  20.369  0.00  0.00    +0.000 HD
ENDBRANCH  22  26
ENDBRANCH   1  22
TORSDOF 3
ENDMDL
MODEL 4
REMARK VINA RESULT:      -7.6      3.046      3.810
REMARK  Name = 
REMARK  4 active torsions:
REMARK  status: ('A' for Active; 'I' for Inactive)
REMARK    1  A    between atoms: C_1  and  C_2
REMARK    2  A    between atoms: N_4  and  C_5
REMARK    3  A    between atoms: C_5  and  C_6
REMARK    4  A    between atoms: C_14  and  C_15
REMARK                            x       y       z     vdW  Elec       q    Type
REMARK                         _______ _______ _______ _____ _____    ______ ____
ROOT
ATOM      1  C   UNL     1       0.357  12.731  20.366  0.00  0.00    +0.000 C 
ATOM      2  O   UNL     1       1.164  13.069  19.223  0.00  0.00    +0.000 OA
ATOM      3  C   UNL     1       1.687  11.931  18.670  0.00  0.00    +0.000 C 
ATOM      4  O   UNL     1       2.474  11.982  17.740  0.00  0.00    +0.000 OA
ATOM      5  N   UNL     1       1.215  10.825  19.350  0.00  0.00    +0.000 N 
ATOM      6  C   UNL     1       1.585   9.469  19.155  0.00  0.00    +0.000 A 
ATOM      7  C   UNL     1       2.306   9.067  18.026  0.00  0.00    +0.000 A 
ATOM      8  C   UNL     1       2.698   7.737  17.853  0.00  0.00    +0.000 A 
ATOM      9  C   UNL     1       2.390   6.760  18.809  0.00  0.00    +0.000 A 
ATOM     10  C   UNL     1       1.651   7.163  19.929  0.00  0.00    +0.000 A 
ATOM     11  C   UNL     1       1.240   8.490  20.112  0.00  0.00    +0.000 A 
ATOM     12  S   UNL     1       0.330   8.812  21.621  0.00  0.00    +0.000 S 
ATOM     13  C   UNL     1       0.543  10.608  21.711  0.00  0.00    +0.000 C 
ATOM     14  C   UNL     1       0.251  11.214  20.347  0.00  0.00    +0.000 C 
ENDROOT
BRANCH   9  15
ATOM     15  C   UNL     1       2.810   5.364  18.645  0.00  0.00    +0.000 A 
ATOM     16  C   UNL     1       2.152   4.496  17.768  0.00  0.00    +0.000 A 
ATOM     17  C   UNL     1       2.536   3.154  17.690  0.00  0.00    +0.000 A 
ATOM     18  C   UNL     1       3.579   2.730  18.482  0.00  0.00    +0.000 A 
ATOM     19  F   UNL     1       3.917   1.436  18.444  0.00  0.00    +0.000 F 
ATOM     20  N   UNL     1       4.275   3.527  19.314  0.00  0.00    +0.000 NA
ATOM     21  C   UNL     1       3.875   4.818  19.374  0.00  0.00    +0.000 A 
ENDBRANCH   9  15
BRANCH   1  22
ATOM     22  C   UNL     1      -0.995  13.432  20.213  0.00  0.00    +0.000 C 
BRANCH  22  26
ATOM     23  C   UNL     1      -3.863  11.657  18.498  0.00  0.00    +0.000 C 
ATOM     24  C   UNL     1      -3.120  12.375  19.585  0.00  0.00    +0.000 C 
ATOM     25  O   UNL     1      -3.611  12.595  20.693  0.00  0.00    +0.000 OA
ATOM     26  N   UNL     1      -1.842  12.752  19.247  0.00  0.00    +0.000 N 
ATOM     27  H   UNL     1      -1.645  12.890  18.259  0.00  0.00    +0.000 HD
ENDBRANCH  22  26
ENDBRANCH   1  22
TORSDOF 3
ENDMDL
MODEL 5
REMARK VINA RESULT:      -7.6      2.283      2.884
REMARK  Name = 
REMARK  4 active torsions:
REMARK  status: ('A' for Active; 'I' for Inactive)
REMARK    1  A    between atoms: C_1  and  C_2
REMARK    2  A    between atoms: N_4  and  C_5
REMARK    3  A    between atoms: C_5  and  C_6
REMARK    4  A    between atoms: C_14  and  C_15
REMARK                            x       y       z     vdW  Elec       q    Type
REMARK                         _______ _______ _______ _____ _____    ______ ____
ROOT
ATOM      1  C   UNL     1      -1.417  12.712  21.327  0.00  0.00    +0.000 C 
ATOM      2  O   UNL     1      -0.994  13.426  20.151  0.00  0.00    +0.000 OA
ATOM      3  C   UNL     1      -0.225  12.610  19.365  0.00  0.00    +0.000 C 
ATOM      4  O   UNL     1       0.315  13.030  18.355  0.00  0.00    +0.000 OA
ATOM      5  N   UNL     1      -0.162  11.349  19.924  0.00  0.00    +0.000 N 
ATOM      6  C   UNL     1       0.604  10.243  19.476  0.00  0.00    +0.000 A 
ATOM      7  C   UNL     1       1.202  10.237  18.211  0.00  0.00    +0.000 A 
ATOM      8  C   UNL     1       1.985   9.161  17.785  0.00  0.00    +0.000 A 
ATOM      9  C   UNL     1       2.205   8.052  18.613  0.00  0.00    +0.000 A 
ATOM     10  C   UNL     1       1.588   8.053  19.871  0.00  0.00    +0.000 A 
ATOM     11  C   UNL     1       0.792   9.119  20.308  0.00  0.00    +0.000 A 
ATOM     12  S   UNL     1       0.116   8.945  21.959  0.00  0.00    +0.000 S 
ATOM     13  C   UNL     1      -0.282  10.680  22.293  0.00  0.00    +0.000 C 
ATOM     14  C   UNL     1      -1.004  11.268  21.090  0.00  0.00    +0.000 C 
ENDROOT
BRANCH   9  15
ATOM     15  C   UNL     1       3.037   6.923  18.181  0.00  0.00    +0.000 A 
ATOM     16  C   UNL     1       4.185   7.109  17.405  0.00  0.00    +0.000 A 
ATOM     17  C   UNL     1       4.913   6.004  16.954  0.00  0.00    +0.000 A 
ATOM     18  C   UNL     1       4.474   4.749  17.310  0.00  0.00    +0.000 A 
ATOM     19  F   UNL     1       5.142   3.688  16.839  0.00  0.00    +0.000 F 
ATOM     20  N   UNL     1       3.402   4.510  18.086  0.00  0.00    +0.000 NA
ATOM     21  C   UNL     1       2.713   5.598  18.500  0.00  0.00    +0.000 A 
ENDBRANCH   9  15
BRANCH   1  22
ATOM     22  C   UNL     1      -2.931  12.890  21.468  0.00  0.00    +0.000 C 
BRANCH  22  26
ATOM     23  C   UNL     1      -4.501  12.349  24.867  0.00  0.00    +0.000 C 
ATOM     24  C   UNL     1      -4.077  13.083  23.630  0.00  0.00    +0.000 C 
ATOM     25  O   UNL     1      -4.283  14.286  23.466  0.00  0.00    +0.000 OA
ATOM     26  N   UNL     1      -3.424  12.306  22.703  0.00  0.00    +0.000 N 
ATOM     27  H   UNL     1      -3.621  11.308  22.713  0.00  0.00    +0.000 HD
ENDBRANCH  22  26
ENDBRANCH   1  22
TORSDOF 3
ENDMDL
MODEL 6
REMARK VINA RESULT:      -7.6      1.285      1.648
REMARK  Name = 
REMARK  4 active torsions:
REMARK  status: ('A' for Active; 'I' for Inactive)
REMARK    1  A    between atoms: C_1  and  C_2
REMARK    2  A    between atoms: N_4  and  C_5
REMARK    3  A    between atoms: C_5  and  C_6
REMARK    4  A    between atoms: C_14  and  C_15
REMARK                            x       y       z     vdW  Elec       q    Type
REMARK                         _______ _______ _______ _____ _____    ______ ____
ROOT
ATOM      1  C   UNL     1      -0.738  11.507  21.206  0.00  0.00    +0.000 C 
ATOM      2  O   UNL     1      -1.069  10.398  22.062  0.00  0.00    +0.000 OA
ATOM      3  C   UNL     1      -0.354   9.292  21.685  0.00  0.00    +0.000 C 
ATOM      4  O   UNL     1      -0.536   8.210  22.217  0.00  0.00    +0.000 OA
ATOM      5  N   UNL     1       0.499   9.620  20.650  0.00  0.00    +0.000 N 
ATOM      6  C   UNL     1       1.339   8.746  19.914  0.00  0.00    +0.000 A 
ATOM      7  C   UNL     1       1.596   7.443  20.353  0.00  0.00    +0.000 A 
ATOM      8  C   UNL     1       2.397   6.572  19.609  0.00  0.00    +0.000 A 
ATOM      9  C   UNL     1       2.964   6.971  18.392  0.00  0.00    +0.000 A 
ATOM     10  C   UNL     1       2.721   8.283  17.966  0.00  0.00    +0.000 A 
ATOM     11  C   UNL     1       1.930   9.172  18.705  0.00  0.00    +0.000 A 
ATOM     12  S   UNL     1       1.713  10.795  17.978  0.00  0.00    +0.000 S 
ATOM     13  C   UNL     1       0.243  11.328  18.892  0.00  0.00    +0.000 C 
ATOM     14  C   UNL     1       0.441  11.032  20.371  0.00  0.00    +0.000 C 
ENDROOT
BRANCH   9  15
ATOM     15  C   UNL     1       3.795   6.061  17.596  0.00  0.00    +0.000 A 
ATOM     16  C   UNL     1       4.771   6.535  16.714  0.00  0.00    +0.000 A 
ATOM     17  C   UNL     1       5.494   5.640  15.921  0.00  0.00    +0.000 A 
ATOM     18  C   UNL     1       5.226   4.296  16.050  0.00  0.00    +0.000 A 
ATOM     19  F   UNL     1       5.883   3.441  15.257  0.00  0.00    +0.000 F 
ATOM     20  N   UNL     1       4.329   3.778  16.908  0.00  0.00    +0.000 NA
ATOM     21  C   UNL     1       3.639   4.669  17.656  0.00  0.00    +0.000 A 
ENDBRANCH   9  15
BRANCH   1  22
ATOM     22  C   UNL     1      -0.401  12.706  22.097  0.00  0.00    +0.000 C 
BRANCH  22  26
ATOM     23  C   UNL     1      -2.744  14.585  24.397  0.00  0.00    +0.000 C 
ATOM     24  C   UNL     1      -1.475  14.254  23.671  0.00  0.00    +0.000 C 
ATOM     25  O   UNL     1      -0.437  14.900  23.816  0.00  0.00    +0.000 OA
ATOM     26  N   UNL     1      -1.562  13.160  22.843  0.00  0.00    +0.000 N 
ATOM     27  H   UNL     1      -2.483  12.923  22.482  0.00  0.00    +0.000 HD
ENDBRANCH  22  26
ENDBRANCH   1  22
TORSDOF 3
ENDMDL
MODEL 7
REMARK VINA RESULT:      -7.5      2.206      2.721
REMARK  Name = 
REMARK  4 active torsions:
REMARK  status: ('A' for Active; 'I' for Inactive)
REMARK    1  A    between atoms: C_1  and  C_2
REMARK    2  A    between atoms: N_4  and  C_5
REMARK    3  A    between atoms: C_5  and  C_6
REMARK    4  A    between atoms: C_14  and  C_15
REMARK                            x       y       z     vdW  Elec       q    Type
REMARK                         _______ _______ _______ _____ _____    ______ ____
ROOT
ATOM      1  C   UNL     1      -0.970  12.617  21.558  0.00  0.00    +0.000 C 
ATOM      2  O   UNL     1      -0.494  13.385  20.438  0.00  0.00    +0.000 OA
ATOM      3  C   UNL     1       0.217  12.578  19.591  0.00  0.00    +0.000 C 
ATOM      4  O   UNL     1       0.789  13.034  18.614  0.00  0.00    +0.000 OA
ATOM      5  N   UNL     1       0.190  11.278  20.054  0.00  0.00    +0.000 N 
ATOM      6  C   UNL     1       0.878  10.157  19.522  0.00  0.00    +0.000 A 
ATOM      7  C   UNL     1       1.477  10.204  18.258  0.00  0.00    +0.000 A 
ATOM      8  C   UNL     1       2.183   9.110  17.751  0.00  0.00    +0.000 A 
ATOM      9  C   UNL     1       2.322   7.930  18.492  0.00  0.00    +0.000 A 
ATOM     10  C   UNL     1       1.703   7.880  19.748  0.00  0.00    +0.000 A 
ATOM     11  C   UNL     1       0.983   8.964  20.267  0.00  0.00    +0.000 A 
ATOM     12  S   UNL     1       0.292   8.714  21.902  0.00  0.00    +0.000 S 
ATOM     13  C   UNL     1       0.017  10.443  22.366  0.00  0.00    +0.000 C 
ATOM     14  C   UNL     1      -0.659  11.169  21.213  0.00  0.00    +0.000 C 
ENDROOT
BRANCH   9  15
ATOM     15  C   UNL     1       3.073   6.780  17.974  0.00  0.00    +0.000 A 
ATOM     16  C   UNL     1       2.605   5.470  18.117  0.00  0.00    +0.000 A 
ATOM     17  C   UNL     1       3.381   4.396  17.673  0.00  0.00    +0.000 A 
ATOM     18  C   UNL     1       4.595   4.672  17.085  0.00  0.00    +0.000 A 
ATOM     19  F   UNL     1       5.361   3.643  16.703  0.00  0.00    +0.000 F 
ATOM     20  N   UNL     1       5.079   5.911  16.885  0.00  0.00    +0.000 NA
ATOM     21  C   UNL     1       4.309   6.930  17.332  0.00  0.00    +0.000 A 
ENDBRANCH   9  15
BRANCH   1  22
ATOM     22  C   UNL     1      -2.468  12.890  21.716  0.00  0.00    +0.000 C 
BRANCH  22  26
ATOM     23  C   UNL     1      -4.491  12.359  24.868  0.00  0.00    +0.000 C 
ATOM     24  C   UNL     1      -4.117  12.931  23.534  0.00  0.00    +0.000 C 
ATOM     25  O   UNL     1      -4.779  13.807  22.976  0.00  0.00    +0.000 OA
ATOM     26  N   UNL     1      -2.966  12.409  22.993  0.00  0.00    +0.000 N 
ATOM     27  H   UNL     1      -2.698  11.473  23.287  0.00  0.00    +0.000 HD
ENDBRANCH  22  26
ENDBRANCH   1  22
TORSDOF 3
ENDMDL
MODEL 8
REMARK VINA RESULT:      -7.5      2.647      3.617
REMARK  Name = 
REMARK  4 active torsions:
REMARK  status: ('A' for Active; 'I' for Inactive)
REMARK    1  A    between atoms: C_1  and  C_2
REMARK    2  A    between atoms: N_4  and  C_5
REMARK    3  A    between atoms: C_5  and  C_6
REMARK    4  A    between atoms: C_14  and  C_15
REMARK                            x       y       z     vdW  Elec       q    Type
REMARK                         _______ _______ _______ _____ _____    ______ ____
ROOT
ATOM      1  C   UNL     1      -1.829  12.851  21.424  0.00  0.00    +0.000 C 
ATOM      2  O   UNL     1      -1.615  13.441  20.129  0.00  0.00    +0.000 OA
ATOM      3  C   UNL     1      -0.865  12.599  19.352  0.00  0.00    +0.000 C 
ATOM      4  O   UNL     1      -0.487  12.931  18.241  0.00  0.00    +0.000 OA
ATOM      5  N   UNL     1      -0.615  11.429  20.042  0.00  0.00    +0.000 N 
ATOM      6  C   UNL     1       0.200  10.342  19.633  0.00  0.00    +0.000 A 
ATOM      7  C   UNL     1       0.646  10.225  18.313  0.00  0.00    +0.000 A 
ATOM      8  C   UNL     1       1.476   9.172  17.920  0.00  0.00    +0.000 A 
ATOM      9  C   UNL     1       1.897   8.200  18.837  0.00  0.00    +0.000 A 
ATOM     10  C   UNL     1       1.432   8.310  20.154  0.00  0.00    +0.000 A 
ATOM     11  C   UNL     1       0.590   9.354  20.561  0.00  0.00    +0.000 A 
ATOM     12  S   UNL     1       0.128   9.336  22.292  0.00  0.00    +0.000 S 
ATOM     13  C   UNL     1      -0.397  11.060  22.469  0.00  0.00    +0.000 C 
ATOM     14  C   UNL     1      -1.306  11.427  21.307  0.00  0.00    +0.000 C 
ENDROOT
BRANCH   9  15
ATOM     15  C   UNL     1       2.781   7.098  18.438  0.00  0.00    +0.000 A 
ATOM     16  C   UNL     1       3.820   7.283  17.522  0.00  0.00    +0.000 A 
ATOM     17  C   UNL     1       4.596   6.195  17.114  0.00  0.00    +0.000 A 
ATOM     18  C   UNL     1       4.315   4.958  17.651  0.00  0.00    +0.000 A 
ATOM     19  F   UNL     1       5.025   3.907  17.225  0.00  0.00    +0.000 F 
ATOM     20  N   UNL     1       3.355   4.728  18.564  0.00  0.00    +0.000 NA
ATOM     21  C   UNL     1       2.615   5.798  18.934  0.00  0.00    +0.000 A 
ENDBRANCH   9  15
BRANCH   1  22
ATOM     22  C   UNL     1      -3.327  12.919  21.732  0.00  0.00    +0.000 C 
BRANCH  22  26
ATOM     23  C   UNL     1      -6.097  12.295  19.233  0.00  0.00    +0.000 C 
ATOM     24  C   UNL     1      -5.408  12.347  20.563  0.00  0.00    +0.000 C 
ATOM     25  O   UNL     1      -5.944  11.968  21.606  0.00  0.00    +0.000 OA
ATOM     26  N   UNL     1      -4.125  12.838  20.521  0.00  0.00    +0.000 N 
ATOM     27  H   UNL     1      -3.892  13.464  19.753  0.00  0.00    +0.000 HD
ENDBRANCH  22  26
ENDBRANCH   1  22
TORSDOF 3
ENDMDL
MODEL 9
REMARK VINA RESULT:      -7.5      3.439      4.272
REMARK  Name = 
REMARK  4 active torsions:
REMARK  status: ('A' for Active; 'I' for Inactive)
REMARK    1  A    between atoms: C_1  and  C_2
REMARK    2  A    between atoms: N_4  and  C_5
REMARK    3  A    between atoms: C_5  and  C_6
REMARK    4  A    between atoms: C_14  and  C_15
REMARK                            x       y       z     vdW  Elec       q    Type
REMARK                         _______ _______ _______ _____ _____    ______ ____
ROOT
ATOM      1  C   UNL     1      -0.213  12.517  20.046  0.00  0.00    +0.000 C 
ATOM      2  O   UNL     1       0.662  12.776  18.933  0.00  0.00    +0.000 OA
ATOM      3  C   UNL     1       1.341  11.635  18.601  0.00  0.00    +0.000 C 
ATOM      4  O   UNL     1       2.204  11.640  17.738  0.00  0.00    +0.000 OA
ATOM      5  N   UNL     1       0.916  10.591  19.399  0.00  0.00    +0.000 N 
ATOM      6  C   UNL     1       1.432   9.270  19.440  0.00  0.00    +0.000 A 
ATOM      7  C   UNL     1       2.292   8.794  18.445  0.00  0.00    +0.000 A 
ATOM      8  C   UNL     1       2.824   7.503  18.506  0.00  0.00    +0.000 A 
ATOM      9  C   UNL     1       2.523   6.644  19.570  0.00  0.00    +0.000 A 
ATOM     10  C   UNL     1       1.646   7.118  20.554  0.00  0.00    +0.000 A 
ATOM     11  C   UNL     1       1.094   8.404  20.502  0.00  0.00    +0.000 A 
ATOM     12  S   UNL     1       0.019   8.834  21.870  0.00  0.00    +0.000 S 
ATOM     13  C   UNL     1       0.048  10.638  21.705  0.00  0.00    +0.000 C 
ATOM     14  C   UNL     1      -0.171  11.009  20.246  0.00  0.00    +0.000 C 
ENDROOT
BRANCH   9  15
ATOM     15  C   UNL     1       3.089   5.292  19.650  0.00  0.00    +0.000 A 
ATOM     16  C   UNL     1       4.369   5.000  19.169  0.00  0.00    +0.000 A 
ATOM     17  C   UNL     1       4.846   3.687  19.200  0.00  0.00    +0.000 A 
ATOM     18  C   UNL     1       4.030   2.711  19.728  0.00  0.00    +0.000 A 
ATOM     19  F   UNL     1       4.467   1.446  19.714  0.00  0.00    +0.000 F 
ATOM     20  N   UNL     1       2.808   2.939  20.241  0.00  0.00    +0.000 NA
ATOM     21  C   UNL     1       2.369   4.217  20.190  0.00  0.00    +0.000 A 
ENDBRANCH   9  15
BRANCH   1  22
ATOM     22  C   UNL     1      -1.606  13.037  19.682  0.00  0.00    +0.000 C 
BRANCH  22  26
ATOM     23  C   UNL     1      -4.002  11.074  17.511  0.00  0.00    +0.000 C 
ATOM     24  C   UNL     1      -3.533  11.903  18.668  0.00  0.00    +0.000 C 
ATOM     25  O   UNL     1      -4.273  12.228  19.598  0.00  0.00    +0.000 OA
ATOM     26  N   UNL     1      -2.205  12.257  18.614  0.00  0.00    +0.000 N 
ATOM     27  H   UNL     1      -1.773  12.297  17.694  0.00  0.00    +0.000 HD
ENDBRANCH  22  26
ENDBRANCH   1  22
TORSDOF 3
ENDMDL
