MODEL 1
REMARK VINA RESULT:      -7.8      0.000      0.000
REMARK  Name = 
REMARK  6 active torsions:
REMARK  status: ('A' for Active; 'I' for Inactive)
REMARK    1  A    between atoms: C_2  and  C_11
REMARK    2  A    between atoms: N_3  and  C_4
REMARK    3  A    between atoms: C_4  and  C_5
REMARK    4  A    between atoms: C_14  and  C_15
REMARK    5  A    between atoms: C_15  and  O_16
REMARK    6  A    between atoms: O_16  and  C_17
REMARK                            x       y       z     vdW  Elec       q    Type
REMARK                         _______ _______ _______ _____ _____    ______ ____
ROOT
ATOM      1  C   UNL     1       6.431   6.426  17.652  0.00  0.00    +0.000 A 
ATOM      2  C   UNL     1       7.394   5.981  18.537  0.00  0.00    +0.000 A 
ATOM      3  C   UNL     1       8.326   7.026  18.691  0.00  0.00    +0.000 A 
ATOM      4  C   UNL     1       7.875   8.069  17.909  0.00  0.00    +0.000 A 
ATOM      5  O   UNL     1       6.731   7.705  17.248  0.00  0.00    +0.000 OA
ENDROOT
BRANCH   1   7
ATOM      6  O   UNL     1       4.332   6.341  16.597  0.00  0.00    +0.000 OA
ATOM      7  C   UNL     1       5.228   5.755  17.205  0.00  0.00    +0.000 C 
ATOM      8  N   UNL     1       5.139   4.412  17.503  0.00  0.00    +0.000 N 
ATOM      9  H   UNL     1       5.857   4.007  18.091  0.00  0.00    +0.000 HD
BRANCH   8  10
ATOM     10  C   UNL     1       3.958   3.652  17.163  0.00  0.00    +0.000 C 
BRANCH  10  11
ATOM     11  C   UNL     1       3.098   3.365  18.360  0.00  0.00    +0.000 A 
ATOM     12  C   UNL     1       1.715   3.560  18.335  0.00  0.00    +0.000 A 
ATOM     13  C   UNL     1       0.958   3.284  19.471  0.00  0.00    +0.000 A 
ATOM     14  C   UNL     1       1.609   2.815  20.599  0.00  0.00    +0.000 A 
ATOM     15  N   UNL     1       2.941   2.610  20.662  0.00  0.00    +0.000 NA
ATOM     16  C   UNL     1       3.651   2.884  19.545  0.00  0.00    +0.000 A 
ENDBRANCH  10  11
ENDBRANCH   8  10
ENDBRANCH   1   7
BRANCH   4  17
ATOM     17  C   UNL     1       8.339   9.478  17.791  0.00  0.00    +0.000 C 
BRANCH  17  18
ATOM     18  O   UNL     1       8.803   9.917  19.070  0.00  0.00    +0.000 OA
BRANCH  18  19
ATOM     19  C   UNL     1       9.756  10.909  19.024  0.00  0.00    +0.000 A 
ATOM     20  C   UNL     1      10.519  11.182  17.879  0.00  0.00    +0.000 A 
ATOM     21  C   UNL     1      11.467  12.210  17.879  0.00  0.00    +0.000 A 
ATOM     22  C   UNL     1      11.649  12.994  19.013  0.00  0.00    +0.000 A 
ATOM     23  C   UNL     1      10.877  12.755  20.149  0.00  0.00    +0.000 A 
ATOM     24  C   UNL     1       9.932  11.722  20.155  0.00  0.00    +0.000 A 
ATOM     25 CL   UNL     1       9.014  11.470  21.597  0.00  0.00    +0.000 Cl
ENDBRANCH  18  19
ENDBRANCH  17  18
ENDBRANCH   4  17
TORSDOF 6
ENDMDL
MODEL 2
REMARK VINA RESULT:      -7.7      1.080      1.123
REMARK  Name = 
REMARK  6 active torsions:
REMARK  status: ('A' for Active; 'I' for Inactive)
REMARK    1  A    between atoms: C_2  and  C_11
REMARK    2  A    between atoms: N_3  and  C_4
REMARK    3  A    between atoms: C_4  and  C_5
REMARK    4  A    between atoms: C_14  and  C_15
REMARK    5  A    between atoms: C_15  and  O_16
REMARK    6  A    between atoms: O_16  and  C_17
REMARK                            x       y       z     vdW  Elec       q    Type
REMARK                         _______ _______ _______ _____ _____    ______ ____
ROOT
ATOM      1  C   UNL     1       6.162   6.398  17.751  0.00  0.00    +0.000 A 
ATOM      2  C   UNL     1       7.204   5.865  18.483  0.00  0.00    +0.000 A 
ATOM      3  C   UNL     1       8.208   6.851  18.549  0.00  0.00    +0.000 A 
ATOM      4  C   UNL     1       7.721   7.950  17.871  0.00  0.00    +0.000 A 
ATOM      5  O   UNL     1       6.481   7.676  17.357  0.00  0.00    +0.000 OA
ENDROOT
BRANCH   1   7
ATOM      6  O   UNL     1       4.733   4.934  16.593  0.00  0.00    +0.000 OA
ATOM      7  C   UNL     1       4.874   5.813  17.444  0.00  0.00    +0.000 C 
ATOM      8  N   UNL     1       3.802   6.299  18.162  0.00  0.00    +0.000 N 
ATOM      9  H   UNL     1       3.961   7.090  18.774  0.00  0.00    +0.000 HD
BRANCH   8  10
ATOM     10  C   UNL     1       2.459   5.836  17.899  0.00  0.00    +0.000 C 
BRANCH  10  11
ATOM     11  C   UNL     1       2.018   4.782  18.873  0.00  0.00    +0.000 A 
ATOM     12  C   UNL     1       1.350   3.629  18.455  0.00  0.00    +0.000 A 
ATOM     13  C   UNL     1       0.956   2.680  19.395  0.00  0.00    +0.000 A 
ATOM     14  C   UNL     1       1.249   2.911  20.728  0.00  0.00    +0.000 A 
ATOM     15  N   UNL     1       1.895   4.009  21.172  0.00  0.00    +0.000 NA
ATOM     16  C   UNL     1       2.268   4.913  20.238  0.00  0.00    +0.000 A 
ENDBRANCH  10  11
ENDBRANCH   8  10
ENDBRANCH   1   7
BRANCH   4  17
ATOM     17  C   UNL     1       8.247   9.336  17.744  0.00  0.00    +0.000 C 
BRANCH  17  18
ATOM     18  O   UNL     1       8.669   9.787  19.032  0.00  0.00    +0.000 OA
BRANCH  18  19
ATOM     19  C   UNL     1       9.645  10.760  19.008  0.00  0.00    +0.000 A 
ATOM     20  C   UNL     1      10.393  11.060  17.861  0.00  0.00    +0.000 A 
ATOM     21  C   UNL     1      11.363  12.067  17.884  0.00  0.00    +0.000 A 
ATOM     22  C   UNL     1      11.583  12.801  19.043  0.00  0.00    +0.000 A 
ATOM     23  C   UNL     1      10.826  12.534  20.184  0.00  0.00    +0.000 A 
ATOM     24  C   UNL     1       9.858  11.523  20.166  0.00  0.00    +0.000 A 
ATOM     25 CL   UNL     1       8.960  11.234  21.614  0.00  0.00    +0.000 Cl
ENDBRANCH  18  19
ENDBRANCH  17  18
ENDBRANCH   4  17
TORSDOF 6
ENDMDL
MODEL 3
REMARK VINA RESULT:      -7.6      5.868      8.980
REMARK  Name = 
REMARK  6 active torsions:
REMARK  status: ('A' for Active; 'I' for Inactive)
REMARK    1  A    between atoms: C_2  and  C_11
REMARK    2  A    between atoms: N_3  and  C_4
REMARK    3  A    between atoms: C_4  and  C_5
REMARK    4  A    between atoms: C_14  and  C_15
REMARK    5  A    between atoms: C_15  and  O_16
REMARK    6  A    between atoms: O_16  and  C_17
REMARK                            x       y       z     vdW  Elec       q    Type
REMARK                         _______ _______ _______ _____ _____    ______ ____
ROOT
ATOM      1  C   UNL     1       2.796   7.407  18.938  0.00  0.00    +0.000 A 
ATOM      2  C   UNL     1       3.176   7.636  17.630  0.00  0.00    +0.000 A 
ATOM      3  C   UNL     1       4.127   6.651  17.298  0.00  0.00    +0.000 A 
ATOM      4  C   UNL     1       4.267   5.852  18.414  0.00  0.00    +0.000 A 
ATOM      5  O   UNL     1       3.477   6.319  19.431  0.00  0.00    +0.000 OA
ENDROOT
BRANCH   1   7
ATOM      6  O   UNL     1       1.420   7.682  20.823  0.00  0.00    +0.000 OA
ATOM      7  C   UNL     1       1.804   8.102  19.731  0.00  0.00    +0.000 C 
ATOM      8  N   UNL     1       1.307   9.268  19.191  0.00  0.00    +0.000 N 
ATOM      9  H   UNL     1       1.584   9.510  18.248  0.00  0.00    +0.000 HD
BRANCH   8  10
ATOM     10  C   UNL     1       0.268  10.014  19.862  0.00  0.00    +0.000 C 
BRANCH  10  11
ATOM     11  C   UNL     1      -0.844  10.407  18.933  0.00  0.00    +0.000 A 
ATOM     12  C   UNL     1      -1.020   9.788  17.694  0.00  0.00    +0.000 A 
ATOM     13  C   UNL     1      -2.064  10.188  16.863  0.00  0.00    +0.000 A 
ATOM     14  C   UNL     1      -2.906  11.195  17.302  0.00  0.00    +0.000 A 
ATOM     15  N   UNL     1      -2.773  11.815  18.493  0.00  0.00    +0.000 NA
ATOM     16  C   UNL     1      -1.753  11.406  19.279  0.00  0.00    +0.000 A 
ENDBRANCH  10  11
ENDBRANCH   8  10
ENDBRANCH   1   7
BRANCH   4  17
ATOM     17  C   UNL     1       4.991   4.569  18.617  0.00  0.00    +0.000 C 
BRANCH  17  18
ATOM     18  O   UNL     1       4.100   3.488  18.333  0.00  0.00    +0.000 OA
BRANCH  18  19
ATOM     19  C   UNL     1       3.177   3.233  19.323  0.00  0.00    +0.000 A 
ATOM     20  C   UNL     1       3.530   2.740  20.587  0.00  0.00    +0.000 A 
ATOM     21  C   UNL     1       2.556   2.509  21.564  0.00  0.00    +0.000 A 
ATOM     22  C   UNL     1       1.220   2.788  21.300  0.00  0.00    +0.000 A 
ATOM     23  C   UNL     1       0.857   3.307  20.057  0.00  0.00    +0.000 A 
ATOM     24  C   UNL     1       1.828   3.534  19.075  0.00  0.00    +0.000 A 
ATOM     25 CL   UNL     1       1.312   4.169  17.553  0.00  0.00    +0.000 Cl
ENDBRANCH  18  19
ENDBRANCH  17  18
ENDBRANCH   4  17
TORSDOF 6
ENDMDL
MODEL 4
REMARK VINA RESULT:      -7.6      1.487      2.055
REMARK  Name = 
REMARK  6 active torsions:
REMARK  status: ('A' for Active; 'I' for Inactive)
REMARK    1  A    between atoms: C_2  and  C_11
REMARK    2  A    between atoms: N_3  and  C_4
REMARK    3  A    between atoms: C_4  and  C_5
REMARK    4  A    between atoms: C_14  and  C_15
REMARK    5  A    between atoms: C_15  and  O_16
REMARK    6  A    between atoms: O_16  and  C_17
REMARK                            x       y       z     vdW  Elec       q    Type
REMARK                         _______ _______ _______ _____ _____    ______ ____
ROOT
ATOM      1  C   UNL     1       6.795   6.827  17.320  0.00  0.00    +0.000 A 
ATOM      2  C   UNL     1       7.558   6.286  18.336  0.00  0.00    +0.000 A 
ATOM      3  C   UNL     1       8.407   7.308  18.804  0.00  0.00    +0.000 A 
ATOM      4  C   UNL     1       8.105   8.434  18.065  0.00  0.00    +0.000 A 
ATOM      5  O   UNL     1       7.139   8.146  17.137  0.00  0.00    +0.000 OA
ENDROOT
BRANCH   1   7
ATOM      6  O   UNL     1       5.348   6.664  15.474  0.00  0.00    +0.000 OA
ATOM      7  C   UNL     1       5.734   6.210  16.552  0.00  0.00    +0.000 C 
ATOM      8  N   UNL     1       5.173   5.077  17.099  0.00  0.00    +0.000 N 
ATOM      9  H   UNL     1       5.461   4.807  18.032  0.00  0.00    +0.000 HD
BRANCH   8  10
ATOM     10  C   UNL     1       4.065   4.409  16.455  0.00  0.00    +0.000 C 
BRANCH  10  11
ATOM     11  C   UNL     1       3.245   3.603  17.419  0.00  0.00    +0.000 A 
ATOM     12  C   UNL     1       3.835   2.720  18.326  0.00  0.00    +0.000 A 
ATOM     13  C   UNL     1       3.034   1.989  19.200  0.00  0.00    +0.000 A 
ATOM     14  C   UNL     1       1.662   2.168  19.142  0.00  0.00    +0.000 A 
ATOM     15  N   UNL     1       1.054   3.013  18.284  0.00  0.00    +0.000 NA
ATOM     16  C   UNL     1       1.856   3.711  17.449  0.00  0.00    +0.000 A 
ENDBRANCH  10  11
ENDBRANCH   8  10
ENDBRANCH   1   7
BRANCH   4  17
ATOM     17  C   UNL     1       8.544   9.849  18.209  0.00  0.00    +0.000 C 
BRANCH  17  18
ATOM     18  O   UNL     1       9.651   9.896  19.112  0.00  0.00    +0.000 OA
BRANCH  18  19
ATOM     19  C   UNL     1       9.769  11.076  19.813  0.00  0.00    +0.000 A 
ATOM     20  C   UNL     1       9.123  11.304  21.036  0.00  0.00    +0.000 A 
ATOM     21  C   UNL     1       9.286  12.515  21.716  0.00  0.00    +0.000 A 
ATOM     22  C   UNL     1      10.112  13.505  21.195  0.00  0.00    +0.000 A 
ATOM     23  C   UNL     1      10.784  13.281  19.993  0.00  0.00    +0.000 A 
ATOM     24  C   UNL     1      10.619  12.072  19.308  0.00  0.00    +0.000 A 
ATOM     25 CL   UNL     1      11.472  11.860  17.820  0.00  0.00    +0.000 Cl
ENDBRANCH  18  19
ENDBRANCH  17  18
ENDBRANCH   4  17
TORSDOF 6
ENDMDL
MODEL 5
REMARK VINA RESULT:      -7.6      0.636      1.026
REMARK  Name = 
REMARK  6 active torsions:
REMARK  status: ('A' for Active; 'I' for Inactive)
REMARK    1  A    between atoms: C_2  and  C_11
REMARK    2  A    between atoms: N_3  and  C_4
REMARK    3  A    between atoms: C_4  and  C_5
REMARK    4  A    between atoms: C_14  and  C_15
REMARK    5  A    between atoms: C_15  and  O_16
REMARK    6  A    between atoms: O_16  and  C_17
REMARK                            x       y       z     vdW  Elec       q    Type
REMARK                         _______ _______ _______ _____ _____    ______ ____
ROOT
ATOM      1  C   UNL     1       6.490   6.266  17.716  0.00  0.00    +0.000 A 
ATOM      2  C   UNL     1       7.455   5.870  18.622  0.00  0.00    +0.000 A 
ATOM      3  C   UNL     1       8.338   6.955  18.783  0.00  0.00    +0.000 A 
ATOM      4  C   UNL     1       7.858   7.972  17.984  0.00  0.00    +0.000 A 
ATOM      5  O   UNL     1       6.743   7.554  17.306  0.00  0.00    +0.000 OA
ENDROOT
BRANCH   1   7
ATOM      6  O   UNL     1       4.581   5.977  16.375  0.00  0.00    +0.000 OA
ATOM      7  C   UNL     1       5.325   5.540  17.254  0.00  0.00    +0.000 C 
ATOM      8  N   UNL     1       5.091   4.325  17.859  0.00  0.00    +0.000 N 
ATOM      9  H   UNL     1       5.677   4.064  18.643  0.00  0.00    +0.000 HD
BRANCH   8  10
ATOM     10  C   UNL     1       3.925   3.540  17.524  0.00  0.00    +0.000 C 
BRANCH  10  11
ATOM     11  C   UNL     1       3.026   3.320  18.706  0.00  0.00    +0.000 A 
ATOM     12  C   UNL     1       3.533   2.972  19.960  0.00  0.00    +0.000 A 
ATOM     13  C   UNL     1       2.660   2.774  21.028  0.00  0.00    +0.000 A 
ATOM     14  C   UNL     1       1.303   2.938  20.809  0.00  0.00    +0.000 A 
ATOM     15  N   UNL     1       0.774   3.277  19.615  0.00  0.00    +0.000 NA
ATOM     16  C   UNL     1       1.644   3.464  18.597  0.00  0.00    +0.000 A 
ENDBRANCH  10  11
ENDBRANCH   8  10
ENDBRANCH   1   7
BRANCH   4  17
ATOM     17  C   UNL     1       8.262   9.399  17.862  0.00  0.00    +0.000 C 
BRANCH  17  18
ATOM     18  O   UNL     1       8.948   9.785  19.055  0.00  0.00    +0.000 OA
BRANCH  18  19
ATOM     19  C   UNL     1       9.716  10.921  18.932  0.00  0.00    +0.000 A 
ATOM     20  C   UNL     1      10.407  11.251  17.758  0.00  0.00    +0.000 A 
ATOM     21  C   UNL     1      11.164  12.425  17.679  0.00  0.00    +0.000 A 
ATOM     22  C   UNL     1      11.223  13.294  18.762  0.00  0.00    +0.000 A 
ATOM     23  C   UNL     1      10.516  12.994  19.928  0.00  0.00    +0.000 A 
ATOM     24  C   UNL     1       9.763  11.817  20.012  0.00  0.00    +0.000 A 
ATOM     25 CL   UNL     1       8.919  11.498  21.485  0.00  0.00    +0.000 Cl
ENDBRANCH  18  19
ENDBRANCH  17  18
ENDBRANCH   4  17
TORSDOF 6
ENDMDL
MODEL 6
REMARK VINA RESULT:      -7.5      1.283      1.405
REMARK  Name = 
REMARK  6 active torsions:
REMARK  status: ('A' for Active; 'I' for Inactive)
REMARK    1  A    between atoms: C_2  and  C_11
REMARK    2  A    between atoms: N_3  and  C_4
REMARK    3  A    between atoms: C_4  and  C_5
REMARK    4  A    between atoms: C_14  and  C_15
REMARK    5  A    between atoms: C_15  and  O_16
REMARK    6  A    between atoms: O_16  and  C_17
REMARK                            x       y       z     vdW  Elec       q    Type
REMARK                         _______ _______ _______ _____ _____    ______ ____
ROOT
ATOM      1  C   UNL     1       6.161   6.254  17.850  0.00  0.00    +0.000 A 
ATOM      2  C   UNL     1       7.133   5.854  18.747  0.00  0.00    +0.000 A 
ATOM      3  C   UNL     1       8.170   6.805  18.681  0.00  0.00    +0.000 A 
ATOM      4  C   UNL     1       7.772   7.754  17.761  0.00  0.00    +0.000 A 
ATOM      5  O   UNL     1       6.557   7.413  17.227  0.00  0.00    +0.000 OA
ENDROOT
BRANCH   1   7
ATOM      6  O   UNL     1       3.883   6.320  17.273  0.00  0.00    +0.000 OA
ATOM      7  C   UNL     1       4.872   5.653  17.580  0.00  0.00    +0.000 C 
ATOM      8  N   UNL     1       4.810   4.281  17.690  0.00  0.00    +0.000 N 
ATOM      9  H   UNL     1       5.625   3.795  18.043  0.00  0.00    +0.000 HD
BRANCH   8  10
ATOM     10  C   UNL     1       3.562   3.575  17.505  0.00  0.00    +0.000 C 
BRANCH  10  11
ATOM     11  C   UNL     1       2.812   3.395  18.792  0.00  0.00    +0.000 A 
ATOM     12  C   UNL     1       1.460   3.728  18.908  0.00  0.00    +0.000 A 
ATOM     13  C   UNL     1       0.805   3.547  20.124  0.00  0.00    +0.000 A 
ATOM     14  C   UNL     1       1.524   3.031  21.189  0.00  0.00    +0.000 A 
ATOM     15  N   UNL     1       2.828   2.693  21.118  0.00  0.00    +0.000 NA
ATOM     16  C   UNL     1       3.438   2.878  19.925  0.00  0.00    +0.000 A 
ENDBRANCH  10  11
ENDBRANCH   8  10
ENDBRANCH   1   7
BRANCH   4  17
ATOM     17  C   UNL     1       8.362   9.068  17.391  0.00  0.00    +0.000 C 
BRANCH  17  18
ATOM     18  O   UNL     1       8.091  10.004  18.437  0.00  0.00    +0.000 OA
BRANCH  18  19
ATOM     19  C   UNL     1       9.070  10.955  18.622  0.00  0.00    +0.000 A 
ATOM     20  C   UNL     1      10.229  10.722  19.375  0.00  0.00    +0.000 A 
ATOM     21  C   UNL     1      11.199  11.718  19.522  0.00  0.00    +0.000 A 
ATOM     22  C   UNL     1      11.037  12.951  18.900  0.00  0.00    +0.000 A 
ATOM     23  C   UNL     1       9.903  13.188  18.123  0.00  0.00    +0.000 A 
ATOM     24  C   UNL     1       8.927  12.195  17.979  0.00  0.00    +0.000 A 
ATOM     25 CL   UNL     1       7.542  12.555  17.011  0.00  0.00    +0.000 Cl
ENDBRANCH  18  19
ENDBRANCH  17  18
ENDBRANCH   4  17
TORSDOF 6
ENDMDL
MODEL 7
REMARK VINA RESULT:      -7.4      5.362      7.248
REMARK  Name = 
REMARK  6 active torsions:
REMARK  status: ('A' for Active; 'I' for Inactive)
REMARK    1  A    between atoms: C_2  and  C_11
REMARK    2  A    between atoms: N_3  and  C_4
REMARK    3  A    between atoms: C_4  and  C_5
REMARK    4  A    between atoms: C_14  and  C_15
REMARK    5  A    between atoms: C_15  and  O_16
REMARK    6  A    between atoms: O_16  and  C_17
REMARK                            x       y       z     vdW  Elec       q    Type
REMARK                         _______ _______ _______ _____ _____    ______ ____
ROOT
ATOM      1  C   UNL     1       2.265   7.106  19.001  0.00  0.00    +0.000 A 
ATOM      2  C   UNL     1       2.004   6.627  20.270  0.00  0.00    +0.000 A 
ATOM      3  C   UNL     1       2.565   5.337  20.347  0.00  0.00    +0.000 A 
ATOM      4  C   UNL     1       3.162   5.097  19.126  0.00  0.00    +0.000 A 
ATOM      5  O   UNL     1       2.963   6.161  18.286  0.00  0.00    +0.000 OA
ENDROOT
BRANCH   1   7
ATOM      6  O   UNL     1       2.340   8.746  17.319  0.00  0.00    +0.000 OA
ATOM      7  C   UNL     1       1.953   8.402  18.436  0.00  0.00    +0.000 C 
ATOM      8  N   UNL     1       1.194   9.238  19.226  0.00  0.00    +0.000 N 
ATOM      9  H   UNL     1       0.989   8.941  20.172  0.00  0.00    +0.000 HD
BRANCH   8  10
ATOM     10  C   UNL     1       0.871  10.579  18.795  0.00  0.00    +0.000 C 
BRANCH  10  11
ATOM     11  C   UNL     1      -0.592  10.751  18.511  0.00  0.00    +0.000 A 
ATOM     12  C   UNL     1      -1.262   9.944  17.588  0.00  0.00    +0.000 A 
ATOM     13  C   UNL     1      -2.621  10.143  17.354  0.00  0.00    +0.000 A 
ATOM     14  C   UNL     1      -3.271  11.143  18.056  0.00  0.00    +0.000 A 
ATOM     15  N   UNL     1      -2.662  11.941  18.957  0.00  0.00    +0.000 NA
ATOM     16  C   UNL     1      -1.344  11.725  19.166  0.00  0.00    +0.000 A 
ENDBRANCH  10  11
ENDBRANCH   8  10
ENDBRANCH   1   7
BRANCH   4  17
ATOM     17  C   UNL     1       4.045   3.991  18.667  0.00  0.00    +0.000 C 
BRANCH  17  18
ATOM     18  O   UNL     1       4.804   4.446  17.545  0.00  0.00    +0.000 OA
BRANCH  18  19
ATOM     19  C   UNL     1       5.859   5.272  17.864  0.00  0.00    +0.000 A 
ATOM     20  C   UNL     1       6.732   5.018  18.931  0.00  0.00    +0.000 A 
ATOM     21  C   UNL     1       7.797   5.881  19.206  0.00  0.00    +0.000 A 
ATOM     22  C   UNL     1       8.019   6.996  18.406  0.00  0.00    +0.000 A 
ATOM     23  C   UNL     1       7.177   7.246  17.322  0.00  0.00    +0.000 A 
ATOM     24  C   UNL     1       6.106   6.388  17.048  0.00  0.00    +0.000 A 
ATOM     25 CL   UNL     1       5.094   6.759  15.698  0.00  0.00    +0.000 Cl
ENDBRANCH  18  19
ENDBRANCH  17  18
ENDBRANCH   4  17
TORSDOF 6
ENDMDL
MODEL 8
REMARK VINA RESULT:      -7.4      6.520      9.348
REMARK  Name = 
REMARK  6 active torsions:
REMARK  status: ('A' for Active; 'I' for Inactive)
REMARK    1  A    between atoms: C_2  and  C_11
REMARK    2  A    between atoms: N_3  and  C_4
REMARK    3  A    between atoms: C_4  and  C_5
REMARK    4  A    between atoms: C_14  and  C_15
REMARK    5  A    between atoms: C_15  and  O_16
REMARK    6  A    between atoms: O_16  and  C_17
REMARK                            x       y       z     vdW  Elec       q    Type
REMARK                         _______ _______ _______ _____ _____    ______ ____
ROOT
ATOM      1  C   UNL     1       1.681   8.655  19.098  0.00  0.00    +0.000 A 
ATOM      2  C   UNL     1       1.394   8.459  20.435  0.00  0.00    +0.000 A 
ATOM      3  C   UNL     1       0.454   9.443  20.802  0.00  0.00    +0.000 A 
ATOM      4  C   UNL     1       0.195  10.180  19.665  0.00  0.00    +0.000 A 
ATOM      5  O   UNL     1       0.958   9.723  18.622  0.00  0.00    +0.000 OA
ENDROOT
BRANCH   1   7
ATOM      6  O   UNL     1       2.956   8.308  17.154  0.00  0.00    +0.000 OA
ATOM      7  C   UNL     1       2.541   7.877  18.230  0.00  0.00    +0.000 C 
ATOM      8  N   UNL     1       2.869   6.616  18.678  0.00  0.00    +0.000 N 
ATOM      9  H   UNL     1       2.419   6.279  19.519  0.00  0.00    +0.000 HD
BRANCH   8  10
ATOM     10  C   UNL     1       3.670   5.726  17.869  0.00  0.00    +0.000 C 
BRANCH  10  11
ATOM     11  C   UNL     1       5.134   5.826  18.186  0.00  0.00    +0.000 A 
ATOM     12  C   UNL     1       6.016   6.531  17.364  0.00  0.00    +0.000 A 
ATOM     13  C   UNL     1       7.368   6.595  17.696  0.00  0.00    +0.000 A 
ATOM     14  C   UNL     1       7.795   5.954  18.847  0.00  0.00    +0.000 A 
ATOM     15  N   UNL     1       6.974   5.267  19.668  0.00  0.00    +0.000 NA
ATOM     16  C   UNL     1       5.668   5.223  19.323  0.00  0.00    +0.000 A 
ENDBRANCH  10  11
ENDBRANCH   8  10
ENDBRANCH   1   7
BRANCH   4  17
ATOM     17  C   UNL     1      -0.820  11.232  19.387  0.00  0.00    +0.000 C 
BRANCH  17  18
ATOM     18  O   UNL     1      -2.103  10.613  19.272  0.00  0.00    +0.000 OA
BRANCH  18  19
ATOM     19  C   UNL     1      -2.643  10.647  18.006  0.00  0.00    +0.000 A 
ATOM     20  C   UNL     1      -2.088   9.956  16.920  0.00  0.00    +0.000 A 
ATOM     21  C   UNL     1      -2.683  10.012  15.656  0.00  0.00    +0.000 A 
ATOM     22  C   UNL     1      -3.852  10.740  15.464  0.00  0.00    +0.000 A 
ATOM     23  C   UNL     1      -4.433  11.409  16.541  0.00  0.00    +0.000 A 
ATOM     24  C   UNL     1      -3.837  11.359  17.806  0.00  0.00    +0.000 A 
ATOM     25 CL   UNL     1      -4.600  12.218  19.097  0.00  0.00    +0.000 Cl
ENDBRANCH  18  19
ENDBRANCH  17  18
ENDBRANCH   4  17
TORSDOF 6
ENDMDL
MODEL 9
REMARK VINA RESULT:      -7.4      1.597      1.826
REMARK  Name = 
REMARK  6 active torsions:
REMARK  status: ('A' for Active; 'I' for Inactive)
REMARK    1  A    between atoms: C_2  and  C_11
REMARK    2  A    between atoms: N_3  and  C_4
REMARK    3  A    between atoms: C_4  and  C_5
REMARK    4  A    between atoms: C_14  and  C_15
REMARK    5  A    between atoms: C_15  and  O_16
REMARK    6  A    between atoms: O_16  and  C_17
REMARK                            x       y       z     vdW  Elec       q    Type
REMARK                         _______ _______ _______ _____ _____    ______ ____
ROOT
ATOM      1  C   UNL     1       6.177   6.476  17.681  0.00  0.00    +0.000 A 
ATOM      2  C   UNL     1       7.100   6.020  18.602  0.00  0.00    +0.000 A 
ATOM      3  C   UNL     1       8.153   6.956  18.629  0.00  0.00    +0.000 A 
ATOM      4  C   UNL     1       7.812   7.953  17.737  0.00  0.00    +0.000 A 
ATOM      5  O   UNL     1       6.618   7.657  17.133  0.00  0.00    +0.000 OA
ENDROOT
BRANCH   1   7
ATOM      6  O   UNL     1       4.723   5.254  16.296  0.00  0.00    +0.000 OA
ATOM      7  C   UNL     1       4.893   5.910  17.324  0.00  0.00    +0.000 C 
ATOM      8  N   UNL     1       3.861   6.149  18.205  0.00  0.00    +0.000 N 
ATOM      9  H   UNL     1       4.035   6.777  18.981  0.00  0.00    +0.000 HD
BRANCH   8  10
ATOM     10  C   UNL     1       2.521   5.687  17.924  0.00  0.00    +0.000 C 
BRANCH  10  11
ATOM     11  C   UNL     1       2.053   4.658  18.911  0.00  0.00    +0.000 A 
ATOM     12  C   UNL     1       2.229   4.825  20.287  0.00  0.00    +0.000 A 
ATOM     13  C   UNL     1       1.782   3.841  21.165  0.00  0.00    +0.000 A 
ATOM     14  C   UNL     1       1.165   2.719  20.639  0.00  0.00    +0.000 A 
ATOM     15  N   UNL     1       0.972   2.522  19.319  0.00  0.00    +0.000 NA
ATOM     16  C   UNL     1       1.414   3.493  18.489  0.00  0.00    +0.000 A 
ENDBRANCH  10  11
ENDBRANCH   8  10
ENDBRANCH   1   7
BRANCH   4  17
ATOM     17  C   UNL     1       8.436   9.273  17.456  0.00  0.00    +0.000 C 
BRANCH  17  18
ATOM     18  O   UNL     1       8.237  10.124  18.587  0.00  0.00    +0.000 OA
BRANCH  18  19
ATOM     19  C   UNL     1       9.210  11.084  18.760  0.00  0.00    +0.000 A 
ATOM     20  C   UNL     1      10.356  10.876  19.539  0.00  0.00    +0.000 A 
ATOM     21  C   UNL     1      11.322  11.878  19.673  0.00  0.00    +0.000 A 
ATOM     22  C   UNL     1      11.168  13.092  19.013  0.00  0.00    +0.000 A 
ATOM     23  C   UNL     1      10.047  13.303  18.209  0.00  0.00    +0.000 A 
ATOM     24  C   UNL     1       9.076  12.304  18.078  0.00  0.00    +0.000 A 
ATOM     25 CL   UNL     1       7.706  12.631  17.076  0.00  0.00    +0.000 Cl
ENDBRANCH  18  19
ENDBRANCH  17  18
ENDBRANCH   4  17
TORSDOF 6
ENDMDL
