MODEL 1
REMARK VINA RESULT:      -8.3      0.000      0.000
REMARK  Name = 
REMARK  8 active torsions:
REMARK  status: ('A' for Active; 'I' for Inactive)
REMARK    1  A    between atoms: C_1  and  O_2
REMARK    2  A    between atoms: O_2  and  C_3
REMARK    3  A    between atoms: C_9  and  C_10
REMARK    4  A    between atoms: C_10  and  C_11
REMARK    5  A    between atoms: N_13  and  C_14
REMARK    6  A    between atoms: C_20  and  C_21
REMARK    7  A    between atoms: C_21  and  C_22
REMARK    8  A    between atoms: C_22  and  O_24
REMARK                            x       y       z     vdW  Elec       q    Type
REMARK                         _______ _______ _______ _____ _____    ______ ____
ROOT
ATOM      1  C   UNL     1       4.058   5.554  18.541  0.00  0.00    +0.000 C 
ATOM      2  C   UNL     1       3.410   4.551  19.513  0.00  0.00    +0.000 C 
ATOM      3  N   UNL     1       2.775   3.441  18.770  0.00  0.00    +0.000 NA
ATOM      4  C   UNL     1       3.816   2.650  18.100  0.00  0.00    +0.000 C 
ATOM      5  C   UNL     1       4.568   3.511  17.080  0.00  0.00    +0.000 C 
ATOM      6  C   UNL     1       5.140   4.804  17.701  0.00  0.00    +0.000 C 
ENDROOT
BRANCH   3   7
ATOM      7  C   UNL     1       2.023   2.600  19.718  0.00  0.00    +0.000 C 
ATOM      8  C   UNL     1       2.751   2.618  21.090  0.00  0.00    +0.000 C 
ATOM      9  C   UNL     1       1.381   2.841  21.749  0.00  0.00    +0.000 C 
ATOM     10  C   UNL     1       0.901   3.424  20.404  0.00  0.00    +0.000 C 
ENDBRANCH   3   7
BRANCH   1  11
ATOM     11  C   UNL     1       2.993   6.275  17.683  0.00  0.00    +0.000 C 
BRANCH  11  18
ATOM     12  C   UNL     1       0.823   9.486  20.770  0.00  0.00    +0.000 A 
ATOM     13  C   UNL     1       0.344  10.789  20.595  0.00  0.00    +0.000 A 
ATOM     14  C   UNL     1       0.526  11.472  19.387  0.00  0.00    +0.000 A 
ATOM     15  C   UNL     1       1.180  10.862  18.305  0.00  0.00    +0.000 A 
ATOM     16  C   UNL     1       1.669   9.556  18.464  0.00  0.00    +0.000 A 
ATOM     17  N   UNL     1       2.285   8.716  17.559  0.00  0.00    +0.000 NA
ATOM     18  C   UNL     1       2.516   7.594  18.216  0.00  0.00    +0.000 A 
ATOM     19  N   UNL     1       2.148   7.725  19.533  0.00  0.00    +0.000 N 
ATOM     20  C   UNL     1       1.513   8.929  19.691  0.00  0.00    +0.000 A 
ATOM     21  H   UNL     1       2.251   7.028  20.256  0.00  0.00    +0.000 HD
BRANCH  12  23
ATOM     22  C   UNL     1      -0.233   9.296  22.861  0.00  0.00    +0.000 C 
ATOM     23  O   UNL     1       0.669   8.738  21.906  0.00  0.00    +0.000 OA
ENDBRANCH  12  23
ENDBRANCH  11  18
ENDBRANCH   1  11
BRANCH   6  24
ATOM     24  C   UNL     1       5.788   5.701  16.631  0.00  0.00    +0.000 C 
BRANCH  24  25
ATOM     25  C   UNL     1       7.113   5.175  16.121  0.00  0.00    +0.000 C 
ATOM     26  O   UNL     1       7.901   4.509  16.773  0.00  0.00    +0.000 OA
BRANCH  25  27
ATOM     27  O   UNL     1       7.373   5.552  14.848  0.00  0.00    +0.000 OA
ATOM     28  H   UNL     1       6.578   5.736  14.314  0.00  0.00    +0.000 HD
ENDBRANCH  25  27
ENDBRANCH  24  25
ENDBRANCH   6  24
TORSDOF 7
ENDMDL
MODEL 2
REMARK VINA RESULT:      -8.2      1.064      1.225
REMARK  Name = 
REMARK  8 active torsions:
REMARK  status: ('A' for Active; 'I' for Inactive)
REMARK    1  A    between atoms: C_1  and  O_2
REMARK    2  A    between atoms: O_2  and  C_3
REMARK    3  A    between atoms: C_9  and  C_10
REMARK    4  A    between atoms: C_10  and  C_11
REMARK    5  A    between atoms: N_13  and  C_14
REMARK    6  A    between atoms: C_20  and  C_21
REMARK    7  A    between atoms: C_21  and  C_22
REMARK    8  A    between atoms: C_22  and  O_24
REMARK                            x       y       z     vdW  Elec       q    Type
REMARK                         _______ _______ _______ _____ _____    ______ ____
ROOT
ATOM      1  C   UNL     1       3.977   6.102  18.758  0.00  0.00    +0.000 C 
ATOM      2  C   UNL     1       3.350   4.962  19.581  0.00  0.00    +0.000 C 
ATOM      3  N   UNL     1       2.909   3.862  18.695  0.00  0.00    +0.000 NA
ATOM      4  C   UNL     1       4.086   3.236  18.078  0.00  0.00    +0.000 C 
ATOM      5  C   UNL     1       4.836   4.250  17.208  0.00  0.00    +0.000 C 
ATOM      6  C   UNL     1       5.206   5.535  17.979  0.00  0.00    +0.000 C 
ENDROOT
BRANCH   3   7
ATOM      7  C   UNL     1       2.163   2.874  19.496  0.00  0.00    +0.000 C 
ATOM      8  C   UNL     1       2.832   2.754  20.893  0.00  0.00    +0.000 C 
ATOM      9  C   UNL     1       1.426   2.827  21.508  0.00  0.00    +0.000 C 
ATOM     10  C   UNL     1       0.972   3.551  20.223  0.00  0.00    +0.000 C 
ENDBRANCH   3   7
BRANCH   1  11
ATOM     11  C   UNL     1       2.927   6.785  17.851  0.00  0.00    +0.000 C 
BRANCH  11  18
ATOM     12  C   UNL     1       0.252   9.676  20.858  0.00  0.00    +0.000 A 
ATOM     13  C   UNL     1      -0.287  10.958  20.703  0.00  0.00    +0.000 A 
ATOM     14  C   UNL     1      -0.025  11.721  19.560  0.00  0.00    +0.000 A 
ATOM     15  C   UNL     1       0.775  11.216  18.523  0.00  0.00    +0.000 A 
ATOM     16  C   UNL     1       1.326   9.933  18.662  0.00  0.00    +0.000 A 
ATOM     17  N   UNL     1       2.084   9.185  17.784  0.00  0.00    +0.000 NA
ATOM     18  C   UNL     1       2.316   8.040  18.400  0.00  0.00    +0.000 A 
ATOM     19  N   UNL     1       1.805   8.070  19.676  0.00  0.00    +0.000 N 
ATOM     20  C   UNL     1       1.084   9.225  19.830  0.00  0.00    +0.000 A 
ATOM     21  H   UNL     1       1.877   7.338  20.367  0.00  0.00    +0.000 HD
BRANCH  12  23
ATOM     22  C   UNL     1      -0.095   9.533  23.177  0.00  0.00    +0.000 C 
ATOM     23  O   UNL     1       0.029   8.853  21.928  0.00  0.00    +0.000 OA
ENDBRANCH  12  23
ENDBRANCH  11  18
ENDBRANCH   1  11
BRANCH   6  24
ATOM     24  C   UNL     1       5.854   6.579  17.051  0.00  0.00    +0.000 C 
BRANCH  24  25
ATOM     25  C   UNL     1       7.215   7.047  17.523  0.00  0.00    +0.000 C 
ATOM     26  O   UNL     1       7.782   8.056  17.137  0.00  0.00    +0.000 OA
BRANCH  25  27
ATOM     27  O   UNL     1       7.782   6.198  18.411  0.00  0.00    +0.000 OA
ATOM     28  H   UNL     1       7.973   5.311  18.054  0.00  0.00    +0.000 HD
ENDBRANCH  25  27
ENDBRANCH  24  25
ENDBRANCH   6  24
TORSDOF 7
ENDMDL
MODEL 3
REMARK VINA RESULT:      -8.2      1.114      2.013
REMARK  Name = 
REMARK  8 active torsions:
REMARK  status: ('A' for Active; 'I' for Inactive)
REMARK    1  A    between atoms: C_1  and  O_2
REMARK    2  A    between atoms: O_2  and  C_3
REMARK    3  A    between atoms: C_9  and  C_10
REMARK    4  A    between atoms: C_10  and  C_11
REMARK    5  A    between atoms: N_13  and  C_14
REMARK    6  A    between atoms: C_20  and  C_21
REMARK    7  A    between atoms: C_21  and  C_22
REMARK    8  A    between atoms: C_22  and  O_24
REMARK                            x       y       z     vdW  Elec       q    Type
REMARK                         _______ _______ _______ _____ _____    ______ ____
ROOT
ATOM      1  C   UNL     1       4.232   5.764  18.543  0.00  0.00    +0.000 C 
ATOM      2  C   UNL     1       3.409   4.736  19.342  0.00  0.00    +0.000 C 
ATOM      3  N   UNL     1       2.550   3.940  18.438  0.00  0.00    +0.000 NA
ATOM      4  C   UNL     1       3.399   3.108  17.573  0.00  0.00    +0.000 C 
ATOM      5  C   UNL     1       4.294   3.989  16.695  0.00  0.00    +0.000 C 
ATOM      6  C   UNL     1       5.125   4.997  17.518  0.00  0.00    +0.000 C 
ENDROOT
BRANCH   3   7
ATOM      7  C   UNL     1       1.658   3.093  19.248  0.00  0.00    +0.000 C 
ATOM      8  C   UNL     1       2.479   2.471  20.412  0.00  0.00    +0.000 C 
ATOM      9  C   UNL     1       1.326   2.854  21.352  0.00  0.00    +0.000 C 
ATOM     10  C   UNL     1       0.938   3.941  20.329  0.00  0.00    +0.000 C 
ENDBRANCH   3   7
BRANCH   1  11
ATOM     11  C   UNL     1       3.321   6.834  17.898  0.00  0.00    +0.000 C 
BRANCH  11  18
ATOM     12  C   UNL     1       0.557  10.527  19.706  0.00  0.00    +0.000 A 
ATOM     13  C   UNL     1       0.071  10.803  20.989  0.00  0.00    +0.000 A 
ATOM     14  C   UNL     1       0.253   9.900  22.042  0.00  0.00    +0.000 A 
ATOM     15  C   UNL     1       0.946   8.696  21.849  0.00  0.00    +0.000 A 
ATOM     16  C   UNL     1       1.439   8.401  20.568  0.00  0.00    +0.000 A 
ATOM     17  N   UNL     1       2.196   7.336  20.124  0.00  0.00    +0.000 NA
ATOM     18  C   UNL     1       2.409   7.562  18.840  0.00  0.00    +0.000 A 
ATOM     19  N   UNL     1       1.739   8.690  18.434  0.00  0.00    +0.000 N 
ATOM     20  C   UNL     1       1.198   9.297  19.536  0.00  0.00    +0.000 A 
ATOM     21  H   UNL     1       1.707   9.063  17.496  0.00  0.00    +0.000 HD
BRANCH  12  23
ATOM     22  C   UNL     1      -0.884  11.811  18.365  0.00  0.00    +0.000 C 
ATOM     23  O   UNL     1       0.445  11.361  18.626  0.00  0.00    +0.000 OA
ENDBRANCH  12  23
ENDBRANCH  11  18
ENDBRANCH   1  11
BRANCH   6  24
ATOM     24  C   UNL     1       5.926   5.943  16.604  0.00  0.00    +0.000 C 
BRANCH  24  25
ATOM     25  C   UNL     1       7.132   5.289  15.963  0.00  0.00    +0.000 C 
ATOM     26  O   UNL     1       7.460   5.416  14.795  0.00  0.00    +0.000 OA
BRANCH  25  27
ATOM     27  O   UNL     1       7.815   4.495  16.819  0.00  0.00    +0.000 OA
ATOM     28  H   UNL     1       7.305   4.216  17.603  0.00  0.00    +0.000 HD
ENDBRANCH  25  27
ENDBRANCH  24  25
ENDBRANCH   6  24
TORSDOF 7
ENDMDL
MODEL 4
REMARK VINA RESULT:      -8.0      1.464      2.193
REMARK  Name = 
REMARK  8 active torsions:
REMARK  status: ('A' for Active; 'I' for Inactive)
REMARK    1  A    between atoms: C_1  and  O_2
REMARK    2  A    between atoms: O_2  and  C_3
REMARK    3  A    between atoms: C_9  and  C_10
REMARK    4  A    between atoms: C_10  and  C_11
REMARK    5  A    between atoms: N_13  and  C_14
REMARK    6  A    between atoms: C_20  and  C_21
REMARK    7  A    between atoms: C_21  and  C_22
REMARK    8  A    between atoms: C_22  and  O_24
REMARK                            x       y       z     vdW  Elec       q    Type
REMARK                         _______ _______ _______ _____ _____    ______ ____
ROOT
ATOM      1  C   UNL     1       4.196   5.943  18.890  0.00  0.00    +0.000 C 
ATOM      2  C   UNL     1       3.524   4.792  19.660  0.00  0.00    +0.000 C 
ATOM      3  N   UNL     1       2.908   3.827  18.724  0.00  0.00    +0.000 NA
ATOM      4  C   UNL     1       3.966   3.158  17.954  0.00  0.00    +0.000 C 
ATOM      5  C   UNL     1       4.742   4.177  17.114  0.00  0.00    +0.000 C 
ATOM      6  C   UNL     1       5.298   5.343  17.960  0.00  0.00    +0.000 C 
ENDROOT
BRANCH   3   7
ATOM      7  C   UNL     1       2.133   2.839  19.496  0.00  0.00    +0.000 C 
ATOM      8  C   UNL     1       2.808   2.646  20.881  0.00  0.00    +0.000 C 
ATOM      9  C   UNL     1       1.411   2.749  21.511  0.00  0.00    +0.000 C 
ATOM     10  C   UNL     1       0.974   3.534  20.257  0.00  0.00    +0.000 C 
ENDBRANCH   3   7
BRANCH   1  11
ATOM     11  C   UNL     1       3.151   6.804  18.142  0.00  0.00    +0.000 C 
BRANCH  11  18
ATOM     12  C   UNL     1       0.659  10.776  19.742  0.00  0.00    +0.000 A 
ATOM     13  C   UNL     1       0.104  11.106  20.984  0.00  0.00    +0.000 A 
ATOM     14  C   UNL     1       0.104  10.193  22.043  0.00  0.00    +0.000 A 
ATOM     15  C   UNL     1       0.679   8.921  21.899  0.00  0.00    +0.000 A 
ATOM     16  C   UNL     1       1.239   8.572  20.661  0.00  0.00    +0.000 A 
ATOM     17  N   UNL     1       1.911   7.430  20.273  0.00  0.00    +0.000 NA
ATOM     18  C   UNL     1       2.249   7.628  19.012  0.00  0.00    +0.000 A 
ATOM     19  N   UNL     1       1.737   8.820  18.559  0.00  0.00    +0.000 N 
ATOM     20  C   UNL     1       1.177   9.485  19.618  0.00  0.00    +0.000 A 
ATOM     21  H   UNL     1       1.821   9.191  17.624  0.00  0.00    +0.000 HD
BRANCH  12  23
ATOM     22  C   UNL     1       1.926  12.378  18.581  0.00  0.00    +0.000 C 
ATOM     23  O   UNL     1       0.724  11.614  18.662  0.00  0.00    +0.000 OA
ENDBRANCH  12  23
ENDBRANCH  11  18
ENDBRANCH   1  11
BRANCH   6  24
ATOM     24  C   UNL     1       5.972   6.407  17.075  0.00  0.00    +0.000 C 
BRANCH  24  25
ATOM     25  C   UNL     1       7.286   6.913  17.631  0.00  0.00    +0.000 C 
ATOM     26  O   UNL     1       7.900   6.402  18.554  0.00  0.00    +0.000 OA
BRANCH  25  27
ATOM     27  O   UNL     1       7.716   8.040  17.019  0.00  0.00    +0.000 OA
ATOM     28  H   UNL     1       8.686   8.115  16.949  0.00  0.00    +0.000 HD
ENDBRANCH  25  27
ENDBRANCH  24  25
ENDBRANCH   6  24
TORSDOF 7
ENDMDL
MODEL 5
REMARK VINA RESULT:      -7.9      2.513      4.206
REMARK  Name = 
REMARK  8 active torsions:
REMARK  status: ('A' for Active; 'I' for Inactive)
REMARK    1  A    between atoms: C_1  and  O_2
REMARK    2  A    between atoms: O_2  and  C_3
REMARK    3  A    between atoms: C_9  and  C_10
REMARK    4  A    between atoms: C_10  and  C_11
REMARK    5  A    between atoms: N_13  and  C_14
REMARK    6  A    between atoms: C_20  and  C_21
REMARK    7  A    between atoms: C_21  and  C_22
REMARK    8  A    between atoms: C_22  and  O_24
REMARK                            x       y       z     vdW  Elec       q    Type
REMARK                         _______ _______ _______ _____ _____    ______ ____
ROOT
ATOM      1  C   UNL     1       3.191   5.744  17.744  0.00  0.00    +0.000 C 
ATOM      2  C   UNL     1       4.602   6.111  17.250  0.00  0.00    +0.000 C 
ATOM      3  N   UNL     1       5.629   5.334  17.978  0.00  0.00    +0.000 NA
ATOM      4  C   UNL     1       5.498   3.913  17.628  0.00  0.00    +0.000 C 
ATOM      5  C   UNL     1       4.129   3.379  18.061  0.00  0.00    +0.000 C 
ATOM      6  C   UNL     1       2.960   4.218  17.501  0.00  0.00    +0.000 C 
ENDROOT
BRANCH   3   7
ATOM      7  C   UNL     1       6.963   5.834  17.602  0.00  0.00    +0.000 C 
ATOM      8  C   UNL     1       6.870   7.363  17.343  0.00  0.00    +0.000 C 
ATOM      9  C   UNL     1       8.146   7.525  18.183  0.00  0.00    +0.000 C 
ATOM     10  C   UNL     1       7.786   6.191  18.868  0.00  0.00    +0.000 C 
ENDBRANCH   3   7
BRANCH   1  11
ATOM     11  C   UNL     1       2.979   6.179  19.213  0.00  0.00    +0.000 C 
BRANCH  11  18
ATOM     12  C   UNL     1      -0.112   9.531  21.152  0.00  0.00    +0.000 A 
ATOM     13  C   UNL     1      -0.618  10.742  20.667  0.00  0.00    +0.000 A 
ATOM     14  C   UNL     1      -0.183  11.272  19.447  0.00  0.00    +0.000 A 
ATOM     15  C   UNL     1       0.763  10.595  18.662  0.00  0.00    +0.000 A 
ATOM     16  C   UNL     1       1.283   9.380  19.134  0.00  0.00    +0.000 A 
ATOM     17  N   UNL     1       2.162   8.494  18.545  0.00  0.00    +0.000 NA
ATOM     18  C   UNL     1       2.295   7.500  19.405  0.00  0.00    +0.000 A 
ATOM     19  N   UNL     1       1.598   7.767  20.558  0.00  0.00    +0.000 N 
ATOM     20  C   UNL     1       0.864   8.909  20.371  0.00  0.00    +0.000 A 
ATOM     21  H   UNL     1       1.562   7.187  21.384  0.00  0.00    +0.000 HD
BRANCH  12  23
ATOM     22  C   UNL     1      -0.037   9.587  23.500  0.00  0.00    +0.000 C 
ATOM     23  O   UNL     1      -0.497   8.929  22.320  0.00  0.00    +0.000 OA
ENDBRANCH  12  23
ENDBRANCH  11  18
ENDBRANCH   1  11
BRANCH   6  24
ATOM     24  C   UNL     1       1.606   3.729  18.045  0.00  0.00    +0.000 C 
BRANCH  24  25
ATOM     25  C   UNL     1       1.733   2.684  19.133  0.00  0.00    +0.000 C 
ATOM     26  O   UNL     1       1.943   2.921  20.312  0.00  0.00    +0.000 OA
BRANCH  25  27
ATOM     27  O   UNL     1       1.626   1.420  18.663  0.00  0.00    +0.000 OA
ATOM     28  H   UNL     1       1.440   0.751  19.347  0.00  0.00    +0.000 HD
ENDBRANCH  25  27
ENDBRANCH  24  25
ENDBRANCH   6  24
TORSDOF 7
ENDMDL
MODEL 6
REMARK VINA RESULT:      -7.9      2.478      4.305
REMARK  Name = 
REMARK  8 active torsions:
REMARK  status: ('A' for Active; 'I' for Inactive)
REMARK    1  A    between atoms: C_1  and  O_2
REMARK    2  A    between atoms: O_2  and  C_3
REMARK    3  A    between atoms: C_9  and  C_10
REMARK    4  A    between atoms: C_10  and  C_11
REMARK    5  A    between atoms: N_13  and  C_14
REMARK    6  A    between atoms: C_20  and  C_21
REMARK    7  A    between atoms: C_21  and  C_22
REMARK    8  A    between atoms: C_22  and  O_24
REMARK                            x       y       z     vdW  Elec       q    Type
REMARK                         _______ _______ _______ _____ _____    ______ ____
ROOT
ATOM      1  C   UNL     1       2.407   4.985  18.260  0.00  0.00    +0.000 C 
ATOM      2  C   UNL     1       3.356   4.659  17.092  0.00  0.00    +0.000 C 
ATOM      3  N   UNL     1       4.531   3.900  17.572  0.00  0.00    +0.000 NA
ATOM      4  C   UNL     1       4.094   2.578  18.043  0.00  0.00    +0.000 C 
ATOM      5  C   UNL     1       3.130   2.723  19.225  0.00  0.00    +0.000 C 
ATOM      6  C   UNL     1       1.933   3.644  18.905  0.00  0.00    +0.000 C 
ENDROOT
BRANCH   3   7
ATOM      7  C   UNL     1       5.493   3.757  16.464  0.00  0.00    +0.000 C 
ATOM      8  C   UNL     1       5.306   4.946  15.483  0.00  0.00    +0.000 C 
ATOM      9  C   UNL     1       6.835   5.097  15.466  0.00  0.00    +0.000 C 
ATOM     10  C   UNL     1       6.854   4.398  16.841  0.00  0.00    +0.000 C 
ENDBRANCH   3   7
BRANCH   1  11
ATOM     11  C   UNL     1       3.064   5.961  19.263  0.00  0.00    +0.000 C 
BRANCH  11  18
ATOM     12  C   UNL     1       0.164   9.542  21.083  0.00  0.00    +0.000 A 
ATOM     13  C   UNL     1      -0.356  10.714  20.521  0.00  0.00    +0.000 A 
ATOM     14  C   UNL     1       0.002  11.120  19.232  0.00  0.00    +0.000 A 
ATOM     15  C   UNL     1       0.882  10.353  18.452  0.00  0.00    +0.000 A 
ATOM     16  C   UNL     1       1.415   9.177  19.000  0.00  0.00    +0.000 A 
ATOM     17  N   UNL     1       2.239   8.222  18.438  0.00  0.00    +0.000 NA
ATOM     18  C   UNL     1       2.416   7.309  19.376  0.00  0.00    +0.000 A 
ATOM     19  N   UNL     1       1.803   7.695  20.543  0.00  0.00    +0.000 N 
ATOM     20  C   UNL     1       1.075   8.830  20.299  0.00  0.00    +0.000 A 
ATOM     21  H   UNL     1       1.815   7.195  21.420  0.00  0.00    +0.000 HD
BRANCH  12  23
ATOM     22  C   UNL     1      -0.705  10.030  23.211  0.00  0.00    +0.000 C 
ATOM     23  O   UNL     1      -0.150   9.059  22.325  0.00  0.00    +0.000 OA
ENDBRANCH  12  23
ENDBRANCH  11  18
ENDBRANCH   1  11
BRANCH   6  24
ATOM     24  C   UNL     1       1.046   3.863  20.145  0.00  0.00    +0.000 C 
BRANCH  24  25
ATOM     25  C   UNL     1       1.715   3.469  21.445  0.00  0.00    +0.000 C 
ATOM     26  O   UNL     1       1.515   2.428  22.049  0.00  0.00    +0.000 OA
BRANCH  25  27
ATOM     27  O   UNL     1       2.554   4.421  21.913  0.00  0.00    +0.000 OA
ATOM     28  H   UNL     1       2.347   4.730  22.815  0.00  0.00    +0.000 HD
ENDBRANCH  25  27
ENDBRANCH  24  25
ENDBRANCH   6  24
TORSDOF 7
ENDMDL
MODEL 7
REMARK VINA RESULT:      -7.8      2.679      4.633
REMARK  Name = 
REMARK  8 active torsions:
REMARK  status: ('A' for Active; 'I' for Inactive)
REMARK    1  A    between atoms: C_1  and  O_2
REMARK    2  A    between atoms: O_2  and  C_3
REMARK    3  A    between atoms: C_9  and  C_10
REMARK    4  A    between atoms: C_10  and  C_11
REMARK    5  A    between atoms: N_13  and  C_14
REMARK    6  A    between atoms: C_20  and  C_21
REMARK    7  A    between atoms: C_21  and  C_22
REMARK    8  A    between atoms: C_22  and  O_24
REMARK                            x       y       z     vdW  Elec       q    Type
REMARK                         _______ _______ _______ _____ _____    ______ ____
ROOT
ATOM      1  C   UNL     1       2.995   5.899  18.001  0.00  0.00    +0.000 C 
ATOM      2  C   UNL     1       4.358   6.285  17.398  0.00  0.00    +0.000 C 
ATOM      3  N   UNL     1       5.424   5.395  17.906  0.00  0.00    +0.000 NA
ATOM      4  C   UNL     1       5.197   4.032  17.404  0.00  0.00    +0.000 C 
ATOM      5  C   UNL     1       3.862   3.488  17.922  0.00  0.00    +0.000 C 
ATOM      6  C   UNL     1       2.675   4.423  17.604  0.00  0.00    +0.000 C 
ENDROOT
BRANCH   3   7
ATOM      7  C   UNL     1       6.729   5.900  17.444  0.00  0.00    +0.000 C 
ATOM      8  C   UNL     1       6.636   7.440  17.266  0.00  0.00    +0.000 C 
ATOM      9  C   UNL     1       7.979   7.549  18.003  0.00  0.00    +0.000 C 
ATOM     10  C   UNL     1       7.659   6.187  18.653  0.00  0.00    +0.000 C 
ENDBRANCH   3   7
BRANCH   1  11
ATOM     11  C   UNL     1       2.962   6.154  19.526  0.00  0.00    +0.000 C 
BRANCH  11  18
ATOM     12  C   UNL     1       0.815  10.609  19.813  0.00  0.00    +0.000 A 
ATOM     13  C   UNL     1       0.010  11.210  20.788  0.00  0.00    +0.000 A 
ATOM     14  C   UNL     1      -0.421  10.496  21.911  0.00  0.00    +0.000 A 
ATOM     15  C   UNL     1      -0.044   9.159  22.105  0.00  0.00    +0.000 A 
ATOM     16  C   UNL     1       0.761   8.540  21.136  0.00  0.00    +0.000 A 
ATOM     17  N   UNL     1       1.318   7.277  21.110  0.00  0.00    +0.000 NA
ATOM     18  C   UNL     1       2.007   7.215  19.985  0.00  0.00    +0.000 A 
ATOM     19  N   UNL     1       1.836   8.366  19.254  0.00  0.00    +0.000 N 
ATOM     20  C   UNL     1       1.130   9.263  20.011  0.00  0.00    +0.000 A 
ATOM     21  H   UNL     1       2.224   8.560  18.343  0.00  0.00    +0.000 HD
BRANCH  12  23
ATOM     22  C   UNL     1       1.296  12.663  18.777  0.00  0.00    +0.000 C 
ATOM     23  O   UNL     1       1.300  11.238  18.698  0.00  0.00    +0.000 OA
ENDBRANCH  12  23
ENDBRANCH  11  18
ENDBRANCH   1  11
BRANCH   6  24
ATOM     24  C   UNL     1       1.369   3.908  18.235  0.00  0.00    +0.000 C 
BRANCH  24  25
ATOM     25  C   UNL     1       1.565   2.710  19.140  0.00  0.00    +0.000 C 
ATOM     26  O   UNL     1       1.819   2.766  20.332  0.00  0.00    +0.000 OA
BRANCH  25  27
ATOM     27  O   UNL     1       1.467   1.533  18.481  0.00  0.00    +0.000 OA
ATOM     28  H   UNL     1       1.493   0.746  19.057  0.00  0.00    +0.000 HD
ENDBRANCH  25  27
ENDBRANCH  24  25
ENDBRANCH   6  24
TORSDOF 7
ENDMDL
MODEL 8
REMARK VINA RESULT:      -7.7      1.906      2.630
REMARK  Name = 
REMARK  8 active torsions:
REMARK  status: ('A' for Active; 'I' for Inactive)
REMARK    1  A    between atoms: C_1  and  O_2
REMARK    2  A    between atoms: O_2  and  C_3
REMARK    3  A    between atoms: C_9  and  C_10
REMARK    4  A    between atoms: C_10  and  C_11
REMARK    5  A    between atoms: N_13  and  C_14
REMARK    6  A    between atoms: C_20  and  C_21
REMARK    7  A    between atoms: C_21  and  C_22
REMARK    8  A    between atoms: C_22  and  O_24
REMARK                            x       y       z     vdW  Elec       q    Type
REMARK                         _______ _______ _______ _____ _____    ______ ____
ROOT
ATOM      1  C   UNL     1       3.491   6.764  18.619  0.00  0.00    +0.000 C 
ATOM      2  C   UNL     1       2.663   5.698  19.359  0.00  0.00    +0.000 C 
ATOM      3  N   UNL     1       2.133   4.696  18.408  0.00  0.00    +0.000 NA
ATOM      4  C   UNL     1       3.252   3.932  17.838  0.00  0.00    +0.000 C 
ATOM      5  C   UNL     1       4.187   4.858  17.053  0.00  0.00    +0.000 C 
ATOM      6  C   UNL     1       4.678   6.056  17.893  0.00  0.00    +0.000 C 
ENDROOT
BRANCH   3   7
ATOM      7  C   UNL     1       1.211   3.797  19.125  0.00  0.00    +0.000 C 
ATOM      8  C   UNL     1       1.992   2.530  19.569  0.00  0.00    +0.000 C 
ATOM      9  C   UNL     1       1.330   2.676  20.947  0.00  0.00    +0.000 C 
ATOM     10  C   UNL     1       1.145   4.174  20.628  0.00  0.00    +0.000 C 
ENDBRANCH   3   7
BRANCH   1  11
ATOM     11  C   UNL     1       2.603   7.613  17.678  0.00  0.00    +0.000 C 
BRANCH  11  18
ATOM     12  C   UNL     1       1.655  12.342  18.810  0.00  0.00    +0.000 A 
ATOM     13  C   UNL     1       0.954  12.940  19.864  0.00  0.00    +0.000 A 
ATOM     14  C   UNL     1       0.264  12.168  20.804  0.00  0.00    +0.000 A 
ATOM     15  C   UNL     1       0.268  10.767  20.731  0.00  0.00    +0.000 A 
ATOM     16  C   UNL     1       0.964  10.150  19.679  0.00  0.00    +0.000 A 
ATOM     17  N   UNL     1       1.178   8.813  19.410  0.00  0.00    +0.000 NA
ATOM     18  C   UNL     1       1.918   8.784  18.317  0.00  0.00    +0.000 A 
ATOM     19  N   UNL     1       2.108  10.056  17.833  0.00  0.00    +0.000 N 
ATOM     20  C   UNL     1       1.597  10.949  18.737  0.00  0.00    +0.000 A 
ATOM     21  H   UNL     1       2.607  10.308  16.992  0.00  0.00    +0.000 HD
BRANCH  12  23
ATOM     22  C   UNL     1       2.606  14.393  18.167  0.00  0.00    +0.000 C 
ATOM     23  O   UNL     1       2.375  13.018  17.862  0.00  0.00    +0.000 OA
ENDBRANCH  12  23
ENDBRANCH  11  18
ENDBRANCH   1  11
BRANCH   6  24
ATOM     24  C   UNL     1       5.520   7.028  17.045  0.00  0.00    +0.000 C 
BRANCH  24  25
ATOM     25  C   UNL     1       7.012   6.792  17.157  0.00  0.00    +0.000 C 
ATOM     26  O   UNL     1       7.708   7.136  18.098  0.00  0.00    +0.000 OA
BRANCH  25  27
ATOM     27  O   UNL     1       7.529   6.180  16.067  0.00  0.00    +0.000 OA
ATOM     28  H   UNL     1       7.805   6.788  15.357  0.00  0.00    +0.000 HD
ENDBRANCH  25  27
ENDBRANCH  24  25
ENDBRANCH   6  24
TORSDOF 7
ENDMDL
MODEL 9
REMARK VINA RESULT:      -7.7      2.659      4.434
REMARK  Name = 
REMARK  8 active torsions:
REMARK  status: ('A' for Active; 'I' for Inactive)
REMARK    1  A    between atoms: C_1  and  O_2
REMARK    2  A    between atoms: O_2  and  C_3
REMARK    3  A    between atoms: C_9  and  C_10
REMARK    4  A    between atoms: C_10  and  C_11
REMARK    5  A    between atoms: N_13  and  C_14
REMARK    6  A    between atoms: C_20  and  C_21
REMARK    7  A    between atoms: C_21  and  C_22
REMARK    8  A    between atoms: C_22  and  O_24
REMARK                            x       y       z     vdW  Elec       q    Type
REMARK                         _______ _______ _______ _____ _____    ______ ____
ROOT
ATOM      1  C   UNL     1       2.988   4.946  18.403  0.00  0.00    +0.000 C 
ATOM      2  C   UNL     1       3.918   5.370  17.251  0.00  0.00    +0.000 C 
ATOM      3  N   UNL     1       5.332   5.127  17.607  0.00  0.00    +0.000 NA
ATOM      4  C   UNL     1       5.560   3.679  17.721  0.00  0.00    +0.000 C 
ATOM      5  C   UNL     1       4.700   3.090  18.843  0.00  0.00    +0.000 C 
ATOM      6  C   UNL     1       3.201   3.424  18.680  0.00  0.00    +0.000 C 
ENDROOT
BRANCH   3   7
ATOM      7  C   UNL     1       6.195   5.699  16.557  0.00  0.00    +0.000 C 
ATOM      8  C   UNL     1       7.230   4.627  16.119  0.00  0.00    +0.000 C 
ATOM      9  C   UNL     1       6.912   4.999  14.663  0.00  0.00    +0.000 C 
ATOM     10  C   UNL     1       5.546   5.514  15.160  0.00  0.00    +0.000 C 
ENDBRANCH   3   7
BRANCH   1  11
ATOM     11  C   UNL     1       3.192   5.841  19.648  0.00  0.00    +0.000 C 
BRANCH  11  18
ATOM     12  C   UNL     1      -0.067   9.335  20.957  0.00  0.00    +0.000 A 
ATOM     13  C   UNL     1      -0.570  10.457  20.288  0.00  0.00    +0.000 A 
ATOM     14  C   UNL     1      -0.080  10.832  19.033  0.00  0.00    +0.000 A 
ATOM     15  C   UNL     1       0.921  10.082  18.396  0.00  0.00    +0.000 A 
ATOM     16  C   UNL     1       1.439   8.955  19.053  0.00  0.00    +0.000 A 
ATOM     17  N   UNL     1       2.367   8.024  18.634  0.00  0.00    +0.000 NA
ATOM     18  C   UNL     1       2.473   7.157  19.625  0.00  0.00    +0.000 A 
ATOM     19  N   UNL     1       1.708   7.555  20.694  0.00  0.00    +0.000 N 
ATOM     20  C   UNL     1       0.963   8.642  20.318  0.00  0.00    +0.000 A 
ATOM     21  H   UNL     1       1.638   7.090  21.587  0.00  0.00    +0.000 HD
BRANCH  12  23
ATOM     22  C   UNL     1      -0.172   9.734  23.270  0.00  0.00    +0.000 C 
ATOM     23  O   UNL     1      -0.504   8.884  22.173  0.00  0.00    +0.000 OA
ENDBRANCH  12  23
ENDBRANCH  11  18
ENDBRANCH   1  11
BRANCH   6  24
ATOM     24  C   UNL     1       2.379   2.919  19.880  0.00  0.00    +0.000 C 
BRANCH  24  25
ATOM     25  C   UNL     1       0.883   2.962  19.650  0.00  0.00    +0.000 C 
ATOM     26  O   UNL     1       0.274   2.256  18.862  0.00  0.00    +0.000 OA
BRANCH  25  27
ATOM     27  O   UNL     1       0.265   3.908  20.393  0.00  0.00    +0.000 OA
ATOM     28  H   UNL     1      -0.194   4.592  19.871  0.00  0.00    +0.000 HD
ENDBRANCH  25  27
ENDBRANCH  24  25
ENDBRANCH   6  24
TORSDOF 7
ENDMDL
