MODEL 1
REMARK VINA RESULT:      -7.4      0.000      0.000
REMARK  Name = 
REMARK  6 active torsions:
REMARK  status: ('A' for Active; 'I' for Inactive)
REMARK    1  A    between atoms: C_1  and  C_2
REMARK    2  A    between atoms: C_3  and  C_4
REMARK    3  A    between atoms: C_4  and  C_5
REMARK    4  A    between atoms: C_4  and  C_6
REMARK    5  A    between atoms: N_16  and  C_17
REMARK    6  A    between atoms: C_20  and  C_21
REMARK                            x       y       z     vdW  Elec       q    Type
REMARK                         _______ _______ _______ _____ _____    ______ ____
ROOT
ATOM      1  C   UNL     1      -1.088  12.143  21.626  0.00  0.00    +0.000 C 
ATOM      2  C   UNL     1      -0.265  10.904  21.460  0.00  0.00    +0.000 A 
ATOM      3  C   UNL     1       0.281  10.394  20.336  0.00  0.00    +0.000 A 
ATOM      4  N   UNL     1       0.916   9.172  20.312  0.00  0.00    +0.000 NA
ATOM      5  C   UNL     1       1.077   8.488  21.400  0.00  0.00    +0.000 A 
ATOM      6  N   UNL     1       1.675   7.255  21.446  0.00  0.00    +0.000 N 
ATOM      7  N   UNL     1       0.656   8.980  22.598  0.00  0.00    +0.000 N 
ATOM      8  C   UNL     1      -0.032  10.147  22.717  0.00  0.00    +0.000 A 
ATOM      9  O   UNL     1      -0.424  10.540  23.810  0.00  0.00    +0.000 OA
ATOM     10  H   UNL     1       2.008   6.904  22.331  0.00  0.00    +0.000 HD
ATOM     11  H   UNL     1       0.773   8.459  23.450  0.00  0.00    +0.000 HD
ENDROOT
BRANCH   6  12
ATOM     12  C   UNL     1       1.794   6.361  20.366  0.00  0.00    +0.000 A 
ATOM     13  C   UNL     1       1.235   5.079  20.460  0.00  0.00    +0.000 A 
ATOM     14  C   UNL     1       1.458   4.129  19.457  0.00  0.00    +0.000 A 
ATOM     15  C   UNL     1       2.240   4.452  18.344  0.00  0.00    +0.000 A 
ATOM     16  C   UNL     1       2.767   5.734  18.220  0.00  0.00    +0.000 A 
ATOM     17  C   UNL     1       2.548   6.673  19.226  0.00  0.00    +0.000 A 
BRANCH  15  18
ATOM     18  C   UNL     1       2.525   3.466  17.344  0.00  0.00    +0.000 C 
ATOM     19  N   UNL     1       2.762   2.660  16.541  0.00  0.00    +0.000 NA
ENDBRANCH  15  18
ENDBRANCH   6  12
BRANCH   3  20
ATOM     20  C   UNL     1       0.286  11.117  18.971  0.00  0.00    +0.000 C 
ATOM     21  C   UNL     1       1.570  10.783  18.185  0.00  0.00    +0.000 C 
BRANCH  20  22
ATOM     22  C   UNL     1      -0.991  10.889  18.174  0.00  0.00    +0.000 A 
ATOM     23  C   UNL     1      -2.012  11.845  18.227  0.00  0.00    +0.000 A 
ATOM     24  F   UNL     1      -1.832  12.978  18.922  0.00  0.00    +0.000 F 
ATOM     25  C   UNL     1      -3.228  11.673  17.562  0.00  0.00    +0.000 A 
ATOM     26  C   UNL     1      -3.450  10.524  16.809  0.00  0.00    +0.000 A 
ATOM     27  C   UNL     1      -2.444   9.568  16.716  0.00  0.00    +0.000 A 
ATOM     28  C   UNL     1      -1.233   9.754  17.393  0.00  0.00    +0.000 A 
ATOM     29  F   UNL     1      -0.305   8.797  17.259  0.00  0.00    +0.000 F 
ENDBRANCH  20  22
ENDBRANCH   3  20
TORSDOF 4
ENDMDL
MODEL 2
REMARK VINA RESULT:      -7.3      2.599      4.012
REMARK  Name = 
REMARK  6 active torsions:
REMARK  status: ('A' for Active; 'I' for Inactive)
REMARK    1  A    between atoms: C_1  and  C_2
REMARK    2  A    between atoms: C_3  and  C_4
REMARK    3  A    between atoms: C_4  and  C_5
REMARK    4  A    between atoms: C_4  and  C_6
REMARK    5  A    between atoms: N_16  and  C_17
REMARK    6  A    between atoms: C_20  and  C_21
REMARK                            x       y       z     vdW  Elec       q    Type
REMARK                         _______ _______ _______ _____ _____    ______ ____
ROOT
ATOM      1  C   UNL     1       0.241  14.070  18.865  0.00  0.00    +0.000 C 
ATOM      2  C   UNL     1       0.721  12.677  18.600  0.00  0.00    +0.000 A 
ATOM      3  C   UNL     1       0.065  11.510  18.768  0.00  0.00    +0.000 A 
ATOM      4  N   UNL     1       0.677  10.288  18.598  0.00  0.00    +0.000 NA
ATOM      5  C   UNL     1       1.907  10.214  18.197  0.00  0.00    +0.000 A 
ATOM      6  N   UNL     1       2.586   9.033  18.031  0.00  0.00    +0.000 N 
ATOM      7  N   UNL     1       2.608  11.341  17.896  0.00  0.00    +0.000 N 
ATOM      8  C   UNL     1       2.112  12.592  18.086  0.00  0.00    +0.000 A 
ATOM      9  O   UNL     1       2.788  13.585  17.836  0.00  0.00    +0.000 OA
ATOM     10  H   UNL     1       3.425   9.025  17.472  0.00  0.00    +0.000 HD
ATOM     11  H   UNL     1       3.563  11.297  17.585  0.00  0.00    +0.000 HD
ENDROOT
BRANCH   6  12
ATOM     12  C   UNL     1       2.274   7.813  18.659  0.00  0.00    +0.000 A 
ATOM     13  C   UNL     1       1.869   7.805  20.000  0.00  0.00    +0.000 A 
ATOM     14  C   UNL     1       1.688   6.596  20.682  0.00  0.00    +0.000 A 
ATOM     15  C   UNL     1       1.904   5.380  20.028  0.00  0.00    +0.000 A 
ATOM     16  C   UNL     1       2.267   5.374  18.684  0.00  0.00    +0.000 A 
ATOM     17  C   UNL     1       2.455   6.582  18.013  0.00  0.00    +0.000 A 
BRANCH  15  18
ATOM     18  C   UNL     1       1.781   4.141  20.736  0.00  0.00    +0.000 C 
ATOM     19  N   UNL     1       1.682   3.129  21.300  0.00  0.00    +0.000 NA
ENDBRANCH  15  18
ENDBRANCH   6  12
BRANCH   3  20
ATOM     20  C   UNL     1      -1.431  11.403  19.135  0.00  0.00    +0.000 C 
ATOM     21  C   UNL     1      -2.023  10.075  18.618  0.00  0.00    +0.000 C 
BRANCH  20  22
ATOM     22  C   UNL     1      -1.699  11.652  20.612  0.00  0.00    +0.000 A 
ATOM     23  C   UNL     1      -2.643  12.617  20.985  0.00  0.00    +0.000 A 
ATOM     24  F   UNL     1      -3.347  13.262  20.043  0.00  0.00    +0.000 F 
ATOM     25  C   UNL     1      -2.899  12.931  22.321  0.00  0.00    +0.000 A 
ATOM     26  C   UNL     1      -2.210  12.270  23.333  0.00  0.00    +0.000 A 
ATOM     27  C   UNL     1      -1.284  11.288  22.995  0.00  0.00    +0.000 A 
ATOM     28  C   UNL     1      -1.037  10.988  21.651  0.00  0.00    +0.000 A 
ATOM     29  F   UNL     1      -0.136  10.030  21.394  0.00  0.00    +0.000 F 
ENDBRANCH  20  22
ENDBRANCH   3  20
TORSDOF 4
ENDMDL
MODEL 3
REMARK VINA RESULT:      -7.3      0.199      1.593
REMARK  Name = 
REMARK  6 active torsions:
REMARK  status: ('A' for Active; 'I' for Inactive)
REMARK    1  A    between atoms: C_1  and  C_2
REMARK    2  A    between atoms: C_3  and  C_4
REMARK    3  A    between atoms: C_4  and  C_5
REMARK    4  A    between atoms: C_4  and  C_6
REMARK    5  A    between atoms: N_16  and  C_17
REMARK    6  A    between atoms: C_20  and  C_21
REMARK                            x       y       z     vdW  Elec       q    Type
REMARK                         _______ _______ _______ _____ _____    ______ ____
ROOT
ATOM      1  C   UNL     1      -1.274  12.161  21.652  0.00  0.00    +0.000 C 
ATOM      2  C   UNL     1      -0.413  10.950  21.476  0.00  0.00    +0.000 A 
ATOM      3  C   UNL     1       0.129  10.455  20.343  0.00  0.00    +0.000 A 
ATOM      4  N   UNL     1       0.805   9.256  20.311  0.00  0.00    +0.000 NA
ATOM      5  C   UNL     1       1.010   8.582  21.399  0.00  0.00    +0.000 A 
ATOM      6  N   UNL     1       1.651   7.370  21.437  0.00  0.00    +0.000 N 
ATOM      7  N   UNL     1       0.595   9.064  22.602  0.00  0.00    +0.000 N 
ATOM      8  C   UNL     1      -0.130  10.207  22.730  0.00  0.00    +0.000 A 
ATOM      9  O   UNL     1      -0.516  10.591  23.829  0.00  0.00    +0.000 OA
ATOM     10  H   UNL     1       2.012   7.034  22.317  0.00  0.00    +0.000 HD
ATOM     11  H   UNL     1       0.745   8.551  23.453  0.00  0.00    +0.000 HD
ENDROOT
BRANCH   6  12
ATOM     12  C   UNL     1       1.780   6.476  20.358  0.00  0.00    +0.000 A 
ATOM     13  C   UNL     1       1.281   5.172  20.473  0.00  0.00    +0.000 A 
ATOM     14  C   UNL     1       1.520   4.226  19.468  0.00  0.00    +0.000 A 
ATOM     15  C   UNL     1       2.256   4.578  18.333  0.00  0.00    +0.000 A 
ATOM     16  C   UNL     1       2.722   5.881  18.189  0.00  0.00    +0.000 A 
ATOM     17  C   UNL     1       2.489   6.815  19.197  0.00  0.00    +0.000 A 
BRANCH  15  18
ATOM     18  C   UNL     1       2.558   3.601  17.330  0.00  0.00    +0.000 C 
ATOM     19  N   UNL     1       2.791   2.808  16.512  0.00  0.00    +0.000 NA
ENDBRANCH  15  18
ENDBRANCH   6  12
BRANCH   3  20
ATOM     20  C   UNL     1       0.084  11.173  18.976  0.00  0.00    +0.000 C 
ATOM     21  C   UNL     1       1.351  10.856  18.155  0.00  0.00    +0.000 C 
BRANCH  20  22
ATOM     22  C   UNL     1      -1.210  10.921  18.216  0.00  0.00    +0.000 A 
ATOM     23  C   UNL     1      -1.303   9.809  17.370  0.00  0.00    +0.000 A 
ATOM     24  F   UNL     1      -0.281   8.945  17.288  0.00  0.00    +0.000 F 
ATOM     25  C   UNL     1      -2.442   9.549  16.605  0.00  0.00    +0.000 A 
ATOM     26  C   UNL     1      -3.536  10.406  16.677  0.00  0.00    +0.000 A 
ATOM     27  C   UNL     1      -3.483  11.505  17.528  0.00  0.00    +0.000 A 
ATOM     28  C   UNL     1      -2.333  11.754  18.284  0.00  0.00    +0.000 A 
ATOM     29  F   UNL     1      -2.349  12.826  19.087  0.00  0.00    +0.000 F 
ENDBRANCH  20  22
ENDBRANCH   3  20
TORSDOF 4
ENDMDL
MODEL 4
REMARK VINA RESULT:      -7.2      4.077      8.160
REMARK  Name = 
REMARK  6 active torsions:
REMARK  status: ('A' for Active; 'I' for Inactive)
REMARK    1  A    between atoms: C_1  and  C_2
REMARK    2  A    between atoms: C_3  and  C_4
REMARK    3  A    between atoms: C_4  and  C_5
REMARK    4  A    between atoms: C_4  and  C_6
REMARK    5  A    between atoms: N_16  and  C_17
REMARK    6  A    between atoms: C_20  and  C_21
REMARK                            x       y       z     vdW  Elec       q    Type
REMARK                         _______ _______ _______ _____ _____    ______ ____
ROOT
ATOM      1  C   UNL     1       5.689   3.217  15.576  0.00  0.00    +0.000 C 
ATOM      2  C   UNL     1       5.215   4.504  16.173  0.00  0.00    +0.000 A 
ATOM      3  C   UNL     1       4.643   4.720  17.376  0.00  0.00    +0.000 A 
ATOM      4  N   UNL     1       4.142   5.948  17.746  0.00  0.00    +0.000 NA
ATOM      5  C   UNL     1       4.268   6.976  16.968  0.00  0.00    +0.000 A 
ATOM      6  N   UNL     1       3.771   8.221  17.261  0.00  0.00    +0.000 N 
ATOM      7  N   UNL     1       4.932   6.873  15.784  0.00  0.00    +0.000 N 
ATOM      8  C   UNL     1       5.409   5.694  15.305  0.00  0.00    +0.000 A 
ATOM      9  O   UNL     1       5.972   5.636  14.216  0.00  0.00    +0.000 OA
ATOM     10  H   UNL     1       4.127   9.021  16.759  0.00  0.00    +0.000 HD
ATOM     11  H   UNL     1       5.034   7.662  15.170  0.00  0.00    +0.000 HD
ENDROOT
BRANCH   6  12
ATOM     12  C   UNL     1       2.717   8.494  18.152  0.00  0.00    +0.000 A 
ATOM     13  C   UNL     1       1.948   9.653  17.984  0.00  0.00    +0.000 A 
ATOM     14  C   UNL     1       0.988  10.015  18.936  0.00  0.00    +0.000 A 
ATOM     15  C   UNL     1       0.782   9.218  20.065  0.00  0.00    +0.000 A 
ATOM     16  C   UNL     1       1.511   8.043  20.223  0.00  0.00    +0.000 A 
ATOM     17  C   UNL     1       2.472   7.693  19.276  0.00  0.00    +0.000 A 
BRANCH  15  18
ATOM     18  C   UNL     1      -0.155   9.613  21.074  0.00  0.00    +0.000 C 
ATOM     19  N   UNL     1      -0.908   9.944  21.896  0.00  0.00    +0.000 NA
ENDBRANCH  15  18
ENDBRANCH   6  12
BRANCH   3  20
ATOM     20  C   UNL     1       4.508   3.643  18.475  0.00  0.00    +0.000 C 
ATOM     21  C   UNL     1       5.491   3.922  19.631  0.00  0.00    +0.000 C 
BRANCH  20  22
ATOM     22  C   UNL     1       3.071   3.443  18.936  0.00  0.00    +0.000 A 
ATOM     23  C   UNL     1       2.257   2.525  18.262  0.00  0.00    +0.000 A 
ATOM     24  F   UNL     1       2.765   1.787  17.264  0.00  0.00    +0.000 F 
ATOM     25  C   UNL     1       0.916   2.332  18.600  0.00  0.00    +0.000 A 
ATOM     26  C   UNL     1       0.352   3.058  19.645  0.00  0.00    +0.000 A 
ATOM     27  C   UNL     1       1.144   3.958  20.351  0.00  0.00    +0.000 A 
ATOM     28  C   UNL     1       2.484   4.144  19.996  0.00  0.00    +0.000 A 
ATOM     29  F   UNL     1       3.192   5.023  20.718  0.00  0.00    +0.000 F 
ENDBRANCH  20  22
ENDBRANCH   3  20
TORSDOF 4
ENDMDL
MODEL 5
REMARK VINA RESULT:      -7.1      3.682      7.800
REMARK  Name = 
REMARK  6 active torsions:
REMARK  status: ('A' for Active; 'I' for Inactive)
REMARK    1  A    between atoms: C_1  and  C_2
REMARK    2  A    between atoms: C_3  and  C_4
REMARK    3  A    between atoms: C_4  and  C_5
REMARK    4  A    between atoms: C_4  and  C_6
REMARK    5  A    between atoms: N_16  and  C_17
REMARK    6  A    between atoms: C_20  and  C_21
REMARK                            x       y       z     vdW  Elec       q    Type
REMARK                         _______ _______ _______ _____ _____    ______ ____
ROOT
ATOM      1  C   UNL     1       4.681   1.998  20.072  0.00  0.00    +0.000 C 
ATOM      2  C   UNL     1       3.775   3.189  20.062  0.00  0.00    +0.000 A 
ATOM      3  C   UNL     1       3.710   4.196  19.165  0.00  0.00    +0.000 A 
ATOM      4  N   UNL     1       2.904   5.297  19.349  0.00  0.00    +0.000 NA
ATOM      5  C   UNL     1       2.112   5.375  20.371  0.00  0.00    +0.000 A 
ATOM      6  N   UNL     1       1.302   6.452  20.630  0.00  0.00    +0.000 N 
ATOM      7  N   UNL     1       2.031   4.352  21.266  0.00  0.00    +0.000 N 
ATOM      8  C   UNL     1       2.827   3.252  21.204  0.00  0.00    +0.000 A 
ATOM      9  O   UNL     1       2.748   2.366  22.049  0.00  0.00    +0.000 OA
ATOM     10  H   UNL     1       0.531   6.342  21.270  0.00  0.00    +0.000 HD
ATOM     11  H   UNL     1       1.422   4.401  22.065  0.00  0.00    +0.000 HD
ENDROOT
BRANCH   6  12
ATOM     12  C   UNL     1       1.499   7.760  20.150  0.00  0.00    +0.000 A 
ATOM     13  C   UNL     1       1.089   8.853  20.924  0.00  0.00    +0.000 A 
ATOM     14  C   UNL     1       1.149  10.154  20.409  0.00  0.00    +0.000 A 
ATOM     15  C   UNL     1       1.626  10.375  19.114  0.00  0.00    +0.000 A 
ATOM     16  C   UNL     1       2.074   9.302  18.350  0.00  0.00    +0.000 A 
ATOM     17  C   UNL     1       2.003   8.008  18.866  0.00  0.00    +0.000 A 
BRANCH  15  18
ATOM     18  C   UNL     1       1.632  11.695  18.557  0.00  0.00    +0.000 C 
ATOM     19  N   UNL     1       1.633  12.771  18.115  0.00  0.00    +0.000 NA
ENDBRANCH  15  18
ENDBRANCH   6  12
BRANCH   3  20
ATOM     20  C   UNL     1       4.495   4.222  17.836  0.00  0.00    +0.000 C 
ATOM     21  C   UNL     1       3.530   4.151  16.635  0.00  0.00    +0.000 C 
BRANCH  20  22
ATOM     22  C   UNL     1       5.483   5.378  17.753  0.00  0.00    +0.000 A 
ATOM     23  C   UNL     1       6.758   5.231  18.312  0.00  0.00    +0.000 A 
ATOM     24  F   UNL     1       7.119   4.059  18.854  0.00  0.00    +0.000 F 
ATOM     25  C   UNL     1       7.692   6.268  18.317  0.00  0.00    +0.000 A 
ATOM     26  C   UNL     1       7.370   7.495  17.743  0.00  0.00    +0.000 A 
ATOM     27  C   UNL     1       6.120   7.662  17.156  0.00  0.00    +0.000 A 
ATOM     28  C   UNL     1       5.193   6.614  17.165  0.00  0.00    +0.000 A 
ATOM     29  F   UNL     1       4.009   6.840  16.580  0.00  0.00    +0.000 F 
ENDBRANCH  20  22
ENDBRANCH   3  20
TORSDOF 4
ENDMDL
MODEL 6
REMARK VINA RESULT:      -7.1      4.090      8.033
REMARK  Name = 
REMARK  6 active torsions:
REMARK  status: ('A' for Active; 'I' for Inactive)
REMARK    1  A    between atoms: C_1  and  C_2
REMARK    2  A    between atoms: C_3  and  C_4
REMARK    3  A    between atoms: C_4  and  C_5
REMARK    4  A    between atoms: C_4  and  C_6
REMARK    5  A    between atoms: N_16  and  C_17
REMARK    6  A    between atoms: C_20  and  C_21
REMARK                            x       y       z     vdW  Elec       q    Type
REMARK                         _______ _______ _______ _____ _____    ______ ____
ROOT
ATOM      1  C   UNL     1       5.675   3.205  15.575  0.00  0.00    +0.000 C 
ATOM      2  C   UNL     1       5.207   4.494  16.173  0.00  0.00    +0.000 A 
ATOM      3  C   UNL     1       4.626   4.710  17.372  0.00  0.00    +0.000 A 
ATOM      4  N   UNL     1       4.133   5.941  17.743  0.00  0.00    +0.000 NA
ATOM      5  C   UNL     1       4.275   6.971  16.970  0.00  0.00    +0.000 A 
ATOM      6  N   UNL     1       3.787   8.219  17.264  0.00  0.00    +0.000 N 
ATOM      7  N   UNL     1       4.949   6.867  15.792  0.00  0.00    +0.000 N 
ATOM      8  C   UNL     1       5.420   5.686  15.312  0.00  0.00    +0.000 A 
ATOM      9  O   UNL     1       5.992   5.627  14.228  0.00  0.00    +0.000 OA
ATOM     10  H   UNL     1       4.154   9.018  16.770  0.00  0.00    +0.000 HD
ATOM     11  H   UNL     1       5.064   7.658  15.182  0.00  0.00    +0.000 HD
ENDROOT
BRANCH   6  12
ATOM     12  C   UNL     1       2.728   8.498  18.147  0.00  0.00    +0.000 A 
ATOM     13  C   UNL     1       1.967   9.662  17.975  0.00  0.00    +0.000 A 
ATOM     14  C   UNL     1       1.001  10.029  18.919  0.00  0.00    +0.000 A 
ATOM     15  C   UNL     1       0.781   9.231  20.045  0.00  0.00    +0.000 A 
ATOM     16  C   UNL     1       1.501   8.051  20.207  0.00  0.00    +0.000 A 
ATOM     17  C   UNL     1       2.468   7.696  19.268  0.00  0.00    +0.000 A 
BRANCH  15  18
ATOM     18  C   UNL     1      -0.162   9.632  21.047  0.00  0.00    +0.000 C 
ATOM     19  N   UNL     1      -0.924   9.968  21.858  0.00  0.00    +0.000 NA
ENDBRANCH  15  18
ENDBRANCH   6  12
BRANCH   3  20
ATOM     20  C   UNL     1       4.472   3.630  18.465  0.00  0.00    +0.000 C 
ATOM     21  C   UNL     1       5.448   3.894  19.630  0.00  0.00    +0.000 C 
BRANCH  20  22
ATOM     22  C   UNL     1       3.029   3.441  18.913  0.00  0.00    +0.000 A 
ATOM     23  C   UNL     1       2.560   4.144  20.029  0.00  0.00    +0.000 A 
ATOM     24  F   UNL     1       3.361   5.022  20.650  0.00  0.00    +0.000 F 
ATOM     25  C   UNL     1       1.265   3.977  20.523  0.00  0.00    +0.000 A 
ATOM     26  C   UNL     1       0.391   3.094  19.895  0.00  0.00    +0.000 A 
ATOM     27  C   UNL     1       0.820   2.401  18.768  0.00  0.00    +0.000 A 
ATOM     28  C   UNL     1       2.123   2.576  18.289  0.00  0.00    +0.000 A 
ATOM     29  F   UNL     1       2.472   1.881  17.198  0.00  0.00    +0.000 F 
ENDBRANCH  20  22
ENDBRANCH   3  20
TORSDOF 4
ENDMDL
MODEL 7
REMARK VINA RESULT:      -7.1      1.786      3.186
REMARK  Name = 
REMARK  6 active torsions:
REMARK  status: ('A' for Active; 'I' for Inactive)
REMARK    1  A    between atoms: C_1  and  C_2
REMARK    2  A    between atoms: C_3  and  C_4
REMARK    3  A    between atoms: C_4  and  C_5
REMARK    4  A    between atoms: C_4  and  C_6
REMARK    5  A    between atoms: N_16  and  C_17
REMARK    6  A    between atoms: C_20  and  C_21
REMARK                            x       y       z     vdW  Elec       q    Type
REMARK                         _______ _______ _______ _____ _____    ______ ____
ROOT
ATOM      1  C   UNL     1      -1.849  12.333  21.233  0.00  0.00    +0.000 C 
ATOM      2  C   UNL     1      -0.841  11.230  21.162  0.00  0.00    +0.000 A 
ATOM      3  C   UNL     1      -0.158  10.774  20.091  0.00  0.00    +0.000 A 
ATOM      4  N   UNL     1       0.653   9.663  20.151  0.00  0.00    +0.000 NA
ATOM      5  C   UNL     1       0.850   9.047  21.273  0.00  0.00    +0.000 A 
ATOM      6  N   UNL     1       1.623   7.921  21.401  0.00  0.00    +0.000 N 
ATOM      7  N   UNL     1       0.289   9.506  22.425  0.00  0.00    +0.000 N 
ATOM      8  C   UNL     1      -0.573  10.557  22.459  0.00  0.00    +0.000 A 
ATOM      9  O   UNL     1      -1.085  10.920  23.513  0.00  0.00    +0.000 OA
ATOM     10  H   UNL     1       1.951   7.653  22.316  0.00  0.00    +0.000 HD
ATOM     11  H   UNL     1       0.431   9.036  23.302  0.00  0.00    +0.000 HD
ENDROOT
BRANCH   6  12
ATOM     12  C   UNL     1       1.940   7.022  20.366  0.00  0.00    +0.000 A 
ATOM     13  C   UNL     1       1.803   5.643  20.576  0.00  0.00    +0.000 A 
ATOM     14  C   UNL     1       2.241   4.728  19.612  0.00  0.00    +0.000 A 
ATOM     15  C   UNL     1       2.816   5.182  18.422  0.00  0.00    +0.000 A 
ATOM     16  C   UNL     1       2.920   6.549  18.183  0.00  0.00    +0.000 A 
ATOM     17  C   UNL     1       2.491   7.455  19.151  0.00  0.00    +0.000 A 
BRANCH  15  18
ATOM     18  C   UNL     1       3.324   4.252  17.458  0.00  0.00    +0.000 C 
ATOM     19  N   UNL     1       3.747   3.500  16.678  0.00  0.00    +0.000 NA
ENDBRANCH  15  18
ENDBRANCH   6  12
BRANCH   3  20
ATOM     20  C   UNL     1      -0.180  11.447  18.701  0.00  0.00    +0.000 C 
ATOM     21  C   UNL     1      -1.629  11.747  18.266  0.00  0.00    +0.000 C 
BRANCH  20  22
ATOM     22  C   UNL     1       0.743  12.654  18.611  0.00  0.00    +0.000 A 
ATOM     23  C   UNL     1       2.096  12.462  18.306  0.00  0.00    +0.000 A 
ATOM     24  F   UNL     1       2.550  11.230  18.032  0.00  0.00    +0.000 F 
ATOM     25  C   UNL     1       3.006  13.519  18.260  0.00  0.00    +0.000 A 
ATOM     26  C   UNL     1       2.574  14.818  18.513  0.00  0.00    +0.000 A 
ATOM     27  C   UNL     1       1.230  15.044  18.794  0.00  0.00    +0.000 A 
ATOM     28  C   UNL     1       0.332  13.972  18.841  0.00  0.00    +0.000 A 
ATOM     29  F   UNL     1      -0.948  14.258  19.113  0.00  0.00    +0.000 F 
ENDBRANCH  20  22
ENDBRANCH   3  20
TORSDOF 4
ENDMDL
MODEL 8
REMARK VINA RESULT:      -7.0      3.884      8.154
REMARK  Name = 
REMARK  6 active torsions:
REMARK  status: ('A' for Active; 'I' for Inactive)
REMARK    1  A    between atoms: C_1  and  C_2
REMARK    2  A    between atoms: C_3  and  C_4
REMARK    3  A    between atoms: C_4  and  C_5
REMARK    4  A    between atoms: C_4  and  C_6
REMARK    5  A    between atoms: N_16  and  C_17
REMARK    6  A    between atoms: C_20  and  C_21
REMARK                            x       y       z     vdW  Elec       q    Type
REMARK                         _______ _______ _______ _____ _____    ______ ____
ROOT
ATOM      1  C   UNL     1      -1.850   9.805  17.048  0.00  0.00    +0.000 C 
ATOM      2  C   UNL     1      -2.234  10.943  17.940  0.00  0.00    +0.000 A 
ATOM      3  C   UNL     1      -1.448  11.692  18.742  0.00  0.00    +0.000 A 
ATOM      4  N   UNL     1      -1.960  12.635  19.606  0.00  0.00    +0.000 NA
ATOM      5  C   UNL     1      -3.230  12.892  19.627  0.00  0.00    +0.000 A 
ATOM      6  N   UNL     1      -3.811  13.799  20.477  0.00  0.00    +0.000 N 
ATOM      7  N   UNL     1      -4.080  12.263  18.770  0.00  0.00    +0.000 N 
ATOM      8  C   UNL     1      -3.681  11.277  17.924  0.00  0.00    +0.000 A 
ATOM      9  O   UNL     1      -4.484  10.710  17.191  0.00  0.00    +0.000 OA
ATOM     10  H   UNL     1      -4.734  14.146  20.267  0.00  0.00    +0.000 HD
ATOM     11  H   UNL     1      -5.068  12.452  18.778  0.00  0.00    +0.000 HD
ENDROOT
BRANCH   6  12
ATOM     12  C   UNL     1      -3.272  14.238  21.701  0.00  0.00    +0.000 A 
ATOM     13  C   UNL     1      -2.591  15.461  21.761  0.00  0.00    +0.000 A 
ATOM     14  C   UNL     1      -1.929  15.852  22.930  0.00  0.00    +0.000 A 
ATOM     15  C   UNL     1      -1.946  15.025  24.057  0.00  0.00    +0.000 A 
ATOM     16  C   UNL     1      -2.653  13.826  24.023  0.00  0.00    +0.000 A 
ATOM     17  C   UNL     1      -3.302  13.439  22.852  0.00  0.00    +0.000 A 
BRANCH  15  18
ATOM     18  C   UNL     1      -1.220  15.388  25.237  0.00  0.00    +0.000 C 
ATOM     19  N   UNL     1      -0.638  15.691  26.197  0.00  0.00    +0.000 NA
ENDBRANCH  15  18
ENDBRANCH   6  12
BRANCH   3  20
ATOM     20  C   UNL     1       0.093  11.604  18.771  0.00  0.00    +0.000 C 
ATOM     21  C   UNL     1       0.701  12.914  19.313  0.00  0.00    +0.000 C 
BRANCH  20  22
ATOM     22  C   UNL     1       0.604  10.359  19.482  0.00  0.00    +0.000 A 
ATOM     23  C   UNL     1       1.361   9.423  18.767  0.00  0.00    +0.000 A 
ATOM     24  F   UNL     1       1.683   9.662  17.487  0.00  0.00    +0.000 F 
ATOM     25  C   UNL     1       1.815   8.236  19.344  0.00  0.00    +0.000 A 
ATOM     26  C   UNL     1       1.525   7.957  20.677  0.00  0.00    +0.000 A 
ATOM     27  C   UNL     1       0.797   8.880  21.420  0.00  0.00    +0.000 A 
ATOM     28  C   UNL     1       0.345  10.063  20.825  0.00  0.00    +0.000 A 
ATOM     29  F   UNL     1      -0.347  10.911  21.597  0.00  0.00    +0.000 F 
ENDBRANCH  20  22
ENDBRANCH   3  20
TORSDOF 4
ENDMDL
MODEL 9
REMARK VINA RESULT:      -7.0      2.607      4.249
REMARK  Name = 
REMARK  6 active torsions:
REMARK  status: ('A' for Active; 'I' for Inactive)
REMARK    1  A    between atoms: C_1  and  C_2
REMARK    2  A    between atoms: C_3  and  C_4
REMARK    3  A    between atoms: C_4  and  C_5
REMARK    4  A    between atoms: C_4  and  C_6
REMARK    5  A    between atoms: N_16  and  C_17
REMARK    6  A    between atoms: C_20  and  C_21
REMARK                            x       y       z     vdW  Elec       q    Type
REMARK                         _______ _______ _______ _____ _____    ______ ____
ROOT
ATOM      1  C   UNL     1       0.312  14.062  18.874  0.00  0.00    +0.000 C 
ATOM      2  C   UNL     1       0.777  12.665  18.605  0.00  0.00    +0.000 A 
ATOM      3  C   UNL     1       0.112  11.504  18.777  0.00  0.00    +0.000 A 
ATOM      4  N   UNL     1       0.712  10.276  18.602  0.00  0.00    +0.000 NA
ATOM      5  C   UNL     1       1.937  10.192  18.189  0.00  0.00    +0.000 A 
ATOM      6  N   UNL     1       2.605   9.006  18.017  0.00  0.00    +0.000 N 
ATOM      7  N   UNL     1       2.646  11.313  17.883  0.00  0.00    +0.000 N 
ATOM      8  C   UNL     1       2.163  12.568  18.078  0.00  0.00    +0.000 A 
ATOM      9  O   UNL     1       2.845  13.555  17.823  0.00  0.00    +0.000 OA
ATOM     10  H   UNL     1       3.439   8.990  17.450  0.00  0.00    +0.000 HD
ATOM     11  H   UNL     1       3.598  11.261  17.564  0.00  0.00    +0.000 HD
ENDROOT
BRANCH   6  12
ATOM     12  C   UNL     1       2.287   7.787  18.646  0.00  0.00    +0.000 A 
ATOM     13  C   UNL     1       1.905   7.780  19.994  0.00  0.00    +0.000 A 
ATOM     14  C   UNL     1       1.720   6.572  20.676  0.00  0.00    +0.000 A 
ATOM     15  C   UNL     1       1.908   5.355  20.014  0.00  0.00    +0.000 A 
ATOM     16  C   UNL     1       2.248   5.349  18.665  0.00  0.00    +0.000 A 
ATOM     17  C   UNL     1       2.441   6.556  17.994  0.00  0.00    +0.000 A 
BRANCH  15  18
ATOM     18  C   UNL     1       1.781   4.116  20.721  0.00  0.00    +0.000 C 
ATOM     19  N   UNL     1       1.668   3.114  21.300  0.00  0.00    +0.000 NA
ENDBRANCH  15  18
ENDBRANCH   6  12
BRANCH   3  20
ATOM     20  C   UNL     1      -1.382  11.410  19.157  0.00  0.00    +0.000 C 
ATOM     21  C   UNL     1      -1.963  10.043  18.739  0.00  0.00    +0.000 C 
BRANCH  20  22
ATOM     22  C   UNL     1      -1.647  11.762  20.614  0.00  0.00    +0.000 A 
ATOM     23  C   UNL     1      -1.029  11.014  21.623  0.00  0.00    +0.000 A 
ATOM     24  F   UNL     1      -0.162  10.044  21.300  0.00  0.00    +0.000 F 
ATOM     25  C   UNL     1      -1.269  11.251  22.978  0.00  0.00    +0.000 A 
ATOM     26  C   UNL     1      -2.143  12.265  23.361  0.00  0.00    +0.000 A 
ATOM     27  C   UNL     1      -2.752  13.042  22.381  0.00  0.00    +0.000 A 
ATOM     28  C   UNL     1      -2.504  12.788  21.028  0.00  0.00    +0.000 A 
ATOM     29  F   UNL     1      -3.120  13.574  20.135  0.00  0.00    +0.000 F 
ENDBRANCH  20  22
ENDBRANCH   3  20
TORSDOF 4
ENDMDL
