MODEL 1
REMARK VINA RESULT:      -6.5      0.000      0.000
REMARK  Name = 
REMARK  1 active torsions:
REMARK  status: ('A' for Active; 'I' for Inactive)
REMARK    1  A    between atoms: C_4  and  C_5
REMARK                            x       y       z     vdW  Elec       q    Type
REMARK                         _______ _______ _______ _____ _____    ______ ____
ROOT
ATOM      1  O   UNL     1       2.493   7.745  18.632  0.00  0.00    +0.000 OA
ATOM      2  C   UNL     1       3.340   6.864  18.609  0.00  0.00    +0.000 C 
ATOM      3  C   UNL     1       4.660   6.732  17.713  0.00  0.00    +0.000 C 
ATOM      4  C   UNL     1       4.770   6.753  16.347  0.00  0.00    +0.000 C 
ATOM      5  N   UNL     1       5.353   5.717  18.293  0.00  0.00    +0.000 NA
ATOM      6  C   UNL     1       4.365   4.990  18.604  0.00  0.00    +0.000 C 
ATOM      7  C   UNL     1       4.019   3.594  18.112  0.00  0.00    +0.000 C 
ATOM      8 BR   UNL     1       2.415   3.680  16.988  0.00  0.00    +0.000 Br
ATOM      9  C   UNL     1       3.932   2.934  19.261  0.00  0.00    +0.000 C 
ATOM     10  C   UNL     1       3.050   3.535  20.292  0.00  0.00    +0.000 C 
ATOM     11 BR   UNL     1       2.539   2.344  21.624  0.00  0.00    +0.000 Br
ATOM     12  C   UNL     1       2.713   4.852  20.184  0.00  0.00    +0.000 C 
ATOM     13  N   UNL     1       3.343   5.614  19.215  0.00  0.00    +0.000 N 
ENDROOT
BRANCH   4  14
ATOM     14  C   UNL     1       5.425   5.499  15.663  0.00  0.00    +0.000 A 
ATOM     15  C   UNL     1       6.814   5.461  15.456  0.00  0.00    +0.000 A 
ATOM     16  C   UNL     1       7.377   4.697  14.403  0.00  0.00    +0.000 A 
ATOM     17  C   UNL     1       6.561   3.989  13.522  0.00  0.00    +0.000 A 
ATOM     18 CL   UNL     1       7.207   3.290  12.087  0.00  0.00    +0.000 Cl
ATOM     19  C   UNL     1       5.205   3.902  13.780  0.00  0.00    +0.000 A 
ATOM     20  C   UNL     1       4.672   4.562  14.902  0.00  0.00    +0.000 A 
ENDBRANCH   4  14
TORSDOF 1
ENDMDL
MODEL 2
REMARK VINA RESULT:      -6.2      2.420      3.313
REMARK  Name = 
REMARK  1 active torsions:
REMARK  status: ('A' for Active; 'I' for Inactive)
REMARK    1  A    between atoms: C_4  and  C_5
REMARK                            x       y       z     vdW  Elec       q    Type
REMARK                         _______ _______ _______ _____ _____    ______ ____
ROOT
ATOM      1  O   UNL     1       3.138   2.250  20.172  0.00  0.00    +0.000 OA
ATOM      2  C   UNL     1       3.004   3.096  19.301  0.00  0.00    +0.000 C 
ATOM      3  C   UNL     1       3.355   3.025  17.740  0.00  0.00    +0.000 C 
ATOM      4  C   UNL     1       4.553   2.728  17.146  0.00  0.00    +0.000 C 
ATOM      5  N   UNL     1       2.753   4.127  17.217  0.00  0.00    +0.000 NA
ATOM      6  C   UNL     1       2.969   4.916  18.182  0.00  0.00    +0.000 C 
ATOM      7  C   UNL     1       3.799   6.189  18.203  0.00  0.00    +0.000 C 
ATOM      8 BR   UNL     1       5.401   5.901  19.294  0.00  0.00    +0.000 Br
ATOM      9  C   UNL     1       2.904   7.068  18.641  0.00  0.00    +0.000 C 
ATOM     10  C   UNL     1       2.184   6.699  19.884  0.00  0.00    +0.000 C 
ATOM     11 BR   UNL     1       1.377   8.142  20.735  0.00  0.00    +0.000 Br
ATOM     12  C   UNL     1       2.168   5.393  20.274  0.00  0.00    +0.000 C 
ATOM     13  N   UNL     1       2.678   4.442  19.406  0.00  0.00    +0.000 N 
ENDROOT
BRANCH   4  14
ATOM     14  C   UNL     1       5.161   3.810  16.181  0.00  0.00    +0.000 A 
ATOM     15  C   UNL     1       4.724   3.882  14.848  0.00  0.00    +0.000 A 
ATOM     16  C   UNL     1       5.566   4.392  13.827  0.00  0.00    +0.000 A 
ATOM     17  C   UNL     1       6.866   4.803  14.117  0.00  0.00    +0.000 A 
ATOM     18 CL   UNL     1       7.982   5.161  12.855  0.00  0.00    +0.000 Cl
ATOM     19  C   UNL     1       7.275   4.867  15.436  0.00  0.00    +0.000 A 
ATOM     20  C   UNL     1       6.387   4.478  16.455  0.00  0.00    +0.000 A 
ENDBRANCH   4  14
TORSDOF 1
ENDMDL
MODEL 3
REMARK VINA RESULT:      -5.8      3.504      5.222
REMARK  Name = 
REMARK  1 active torsions:
REMARK  status: ('A' for Active; 'I' for Inactive)
REMARK    1  A    between atoms: C_4  and  C_5
REMARK                            x       y       z     vdW  Elec       q    Type
REMARK                         _______ _______ _______ _____ _____    ______ ____
ROOT
ATOM      1  O   UNL     1       5.003   6.675  15.519  0.00  0.00    +0.000 OA
ATOM      2  C   UNL     1       4.763   6.393  16.683  0.00  0.00    +0.000 C 
ATOM      3  C   UNL     1       5.240   5.137  17.554  0.00  0.00    +0.000 C 
ATOM      4  C   UNL     1       5.079   3.803  17.288  0.00  0.00    +0.000 C 
ATOM      5  N   UNL     1       4.912   5.476  18.829  0.00  0.00    +0.000 NA
ATOM      6  C   UNL     1       3.824   6.069  18.575  0.00  0.00    +0.000 C 
ATOM      7  C   UNL     1       2.414   5.700  19.009  0.00  0.00    +0.000 C 
ATOM      8 BR   UNL     1       1.385   5.117  17.446  0.00  0.00    +0.000 Br
ATOM      9  C   UNL     1       2.035   6.819  19.615  0.00  0.00    +0.000 C 
ATOM     10  C   UNL     1       2.206   8.071  18.838  0.00  0.00    +0.000 C 
ATOM     11 BR   UNL     1       1.191   9.491  19.477  0.00  0.00    +0.000 Br
ATOM     12  C   UNL     1       3.062   8.076  17.777  0.00  0.00    +0.000 C 
ATOM     13  N   UNL     1       3.861   6.964  17.572  0.00  0.00    +0.000 N 
ENDROOT
BRANCH   4  14
ATOM     14  C   UNL     1       4.313   2.947  18.361  0.00  0.00    +0.000 A 
ATOM     15  C   UNL     1       3.027   2.459  18.077  0.00  0.00    +0.000 A 
ATOM     16  C   UNL     1       2.095   2.200  19.114  0.00  0.00    +0.000 A 
ATOM     17  C   UNL     1       2.421   2.458  20.444  0.00  0.00    +0.000 A 
ATOM     18 CL   UNL     1       1.218   2.411  21.675  0.00  0.00    +0.000 Cl
ATOM     19  C   UNL     1       3.720   2.812  20.764  0.00  0.00    +0.000 A 
ATOM     20  C   UNL     1       4.673   2.945  19.738  0.00  0.00    +0.000 A 
ENDBRANCH   4  14
TORSDOF 1
ENDMDL
MODEL 4
REMARK VINA RESULT:      -5.6      9.876     12.417
REMARK  Name = 
REMARK  1 active torsions:
REMARK  status: ('A' for Active; 'I' for Inactive)
REMARK    1  A    between atoms: C_4  and  C_5
REMARK                            x       y       z     vdW  Elec       q    Type
REMARK                         _______ _______ _______ _____ _____    ______ ____
ROOT
ATOM      1  O   UNL     1       1.789  14.386  22.111  0.00  0.00    +0.000 OA
ATOM      2  C   UNL     1       0.784  13.995  21.536  0.00  0.00    +0.000 C 
ATOM      3  C   UNL     1      -0.735  14.481  21.682  0.00  0.00    +0.000 C 
ATOM      4  C   UNL     1      -1.508  14.539  22.811  0.00  0.00    +0.000 C 
ATOM      5  N   UNL     1      -1.368  13.906  20.625  0.00  0.00    +0.000 NA
ATOM      6  C   UNL     1      -0.740  12.807  20.626  0.00  0.00    +0.000 C 
ATOM      7  C   UNL     1      -1.276  11.405  20.866  0.00  0.00    +0.000 C 
ATOM      8 BR   UNL     1      -0.589  10.731  22.574  0.00  0.00    +0.000 Br
ATOM      9  C   UNL     1      -0.882  10.789  19.757  0.00  0.00    +0.000 C 
ATOM     10  C   UNL     1       0.554  10.924  19.413  0.00  0.00    +0.000 C 
ATOM     11 BR   UNL     1       1.157   9.642  18.208  0.00  0.00    +0.000 Br
ATOM     12  C   UNL     1       1.275  11.935  19.976  0.00  0.00    +0.000 C 
ATOM     13  N   UNL     1       0.599  12.894  20.711  0.00  0.00    +0.000 N 
ENDROOT
BRANCH   4  14
ATOM     14  C   UNL     1      -2.852  13.723  22.802  0.00  0.00    +0.000 A 
ATOM     15  C   UNL     1      -3.951  14.196  22.066  0.00  0.00    +0.000 A 
ATOM     16  C   UNL     1      -5.279  13.867  22.440  0.00  0.00    +0.000 A 
ATOM     17  C   UNL     1      -5.528  13.092  23.571  0.00  0.00    +0.000 A 
ATOM     18 CL   UNL     1      -7.126  12.918  24.189  0.00  0.00    +0.000 Cl
ATOM     19  C   UNL     1      -4.466  12.506  24.235  0.00  0.00    +0.000 A 
ATOM     20  C   UNL     1      -3.155  12.736  23.781  0.00  0.00    +0.000 A 
ENDBRANCH   4  14
TORSDOF 1
ENDMDL
MODEL 5
REMARK VINA RESULT:      -5.4      3.840      6.053
REMARK  Name = 
REMARK  1 active torsions:
REMARK  status: ('A' for Active; 'I' for Inactive)
REMARK    1  A    between atoms: C_4  and  C_5
REMARK                            x       y       z     vdW  Elec       q    Type
REMARK                         _______ _______ _______ _____ _____    ______ ____
ROOT
ATOM      1  O   UNL     1       4.874   4.381  14.399  0.00  0.00    +0.000 OA
ATOM      2  C   UNL     1       5.140   4.364  15.592  0.00  0.00    +0.000 C 
ATOM      3  C   UNL     1       4.635   3.371  16.741  0.00  0.00    +0.000 C 
ATOM      4  C   UNL     1       3.349   3.078  17.113  0.00  0.00    +0.000 C 
ATOM      5  N   UNL     1       5.451   3.643  17.794  0.00  0.00    +0.000 NA
ATOM      6  C   UNL     1       5.544   4.893  17.622  0.00  0.00    +0.000 C 
ATOM      7  C   UNL     1       5.082   6.016  18.536  0.00  0.00    +0.000 C 
ATOM      8 BR   UNL     1       3.573   6.951  17.705  0.00  0.00    +0.000 Br
ATOM      9  C   UNL     1       6.214   6.693  18.697  0.00  0.00    +0.000 C 
ATOM     10  C   UNL     1       6.929   7.072  17.454  0.00  0.00    +0.000 C 
ATOM     11 BR   UNL     1       8.164   8.441  17.690  0.00  0.00    +0.000 Br
ATOM     12  C   UNL     1       6.639   6.408  16.299  0.00  0.00    +0.000 C 
ATOM     13  N   UNL     1       5.816   5.296  16.369  0.00  0.00    +0.000 N 
ENDROOT
BRANCH   4  14
ATOM     14  C   UNL     1       2.955   3.357  18.609  0.00  0.00    +0.000 A 
ATOM     15  C   UNL     1       3.647   2.708  19.645  0.00  0.00    +0.000 A 
ATOM     16  C   UNL     1       3.028   2.462  20.898  0.00  0.00    +0.000 A 
ATOM     17  C   UNL     1       1.702   2.828  21.120  0.00  0.00    +0.000 A 
ATOM     18 CL   UNL     1       0.861   2.293  22.523  0.00  0.00    +0.000 Cl
ATOM     19  C   UNL     1       1.042   3.583  20.167  0.00  0.00    +0.000 A 
ATOM     20  C   UNL     1       1.707   3.931  18.978  0.00  0.00    +0.000 A 
ENDBRANCH   4  14
TORSDOF 1
ENDMDL
MODEL 6
REMARK VINA RESULT:      -5.3     10.058     12.673
REMARK  Name = 
REMARK  1 active torsions:
REMARK  status: ('A' for Active; 'I' for Inactive)
REMARK    1  A    between atoms: C_4  and  C_5
REMARK                            x       y       z     vdW  Elec       q    Type
REMARK                         _______ _______ _______ _____ _____    ______ ____
ROOT
ATOM      1  O   UNL     1      -0.453   9.174  22.052  0.00  0.00    +0.000 OA
ATOM      2  C   UNL     1      -0.403  10.393  22.110  0.00  0.00    +0.000 C 
ATOM      3  C   UNL     1      -1.140  11.403  23.110  0.00  0.00    +0.000 C 
ATOM      4  C   UNL     1      -2.480  11.532  23.360  0.00  0.00    +0.000 C 
ATOM      5  N   UNL     1      -0.515  12.592  22.898  0.00  0.00    +0.000 NA
ATOM      6  C   UNL     1      -0.349  12.479  21.649  0.00  0.00    +0.000 C 
ATOM      7  C   UNL     1      -0.926  13.332  20.531  0.00  0.00    +0.000 C 
ATOM      8 BR   UNL     1      -2.229  12.278  19.515  0.00  0.00    +0.000 Br
ATOM      9  C   UNL     1       0.182  13.712  19.904  0.00  0.00    +0.000 C 
ATOM     10  C   UNL     1       1.120  12.627  19.524  0.00  0.00    +0.000 C 
ATOM     11 BR   UNL     1       2.340  13.121  18.212  0.00  0.00    +0.000 Br
ATOM     12  C   UNL     1       1.017  11.419  20.146  0.00  0.00    +0.000 C 
ATOM     13  N   UNL     1       0.156  11.307  21.226  0.00  0.00    +0.000 N 
ENDROOT
BRANCH   4  14
ATOM     14  C   UNL     1      -3.123  12.944  23.104  0.00  0.00    +0.000 A 
ATOM     15  C   UNL     1      -2.900  13.989  24.015  0.00  0.00    +0.000 A 
ATOM     16  C   UNL     1      -3.839  15.041  24.169  0.00  0.00    +0.000 A 
ATOM     17  C   UNL     1      -5.028  15.045  23.442  0.00  0.00    +0.000 A 
ATOM     18 CL   UNL     1      -6.289  16.155  23.817  0.00  0.00    +0.000 Cl
ATOM     19  C   UNL     1      -5.213  14.103  22.447  0.00  0.00    +0.000 A 
ATOM     20  C   UNL     1      -4.217  13.137  22.215  0.00  0.00    +0.000 A 
ENDBRANCH   4  14
TORSDOF 1
ENDMDL
MODEL 7
REMARK VINA RESULT:      -5.3      8.956     11.404
REMARK  Name = 
REMARK  1 active torsions:
REMARK  status: ('A' for Active; 'I' for Inactive)
REMARK    1  A    between atoms: C_4  and  C_5
REMARK                            x       y       z     vdW  Elec       q    Type
REMARK                         _______ _______ _______ _____ _____    ______ ____
ROOT
ATOM      1  O   UNL     1       1.714  10.329  17.918  0.00  0.00    +0.000 OA
ATOM      2  C   UNL     1       1.628  11.059  18.894  0.00  0.00    +0.000 C 
ATOM      3  C   UNL     1       0.804  10.861  20.253  0.00  0.00    +0.000 C 
ATOM      4  C   UNL     1      -0.537  10.633  20.414  0.00  0.00    +0.000 C 
ATOM      5  N   UNL     1       1.288  11.830  21.076  0.00  0.00    +0.000 NA
ATOM      6  C   UNL     1       1.439  12.736  20.205  0.00  0.00    +0.000 C 
ATOM      7  C   UNL     1       0.747  14.085  20.106  0.00  0.00    +0.000 C 
ATOM      8 BR   UNL     1      -0.452  14.088  18.555  0.00  0.00    +0.000 Br
ATOM      9  C   UNL     1       1.792  14.905  20.079  0.00  0.00    +0.000 C 
ATOM     10  C   UNL     1       2.837  14.595  19.073  0.00  0.00    +0.000 C 
ATOM     11 BR   UNL     1       3.966  16.025  18.705  0.00  0.00    +0.000 Br
ATOM     12  C   UNL     1       2.883  13.343  18.534  0.00  0.00    +0.000 C 
ATOM     13  N   UNL     1       2.063  12.366  19.073  0.00  0.00    +0.000 N 
ENDROOT
BRANCH   4  14
ATOM     14  C   UNL     1      -1.339  11.665  21.287  0.00  0.00    +0.000 A 
ATOM     15  C   UNL     1      -1.307  11.569  22.688  0.00  0.00    +0.000 A 
ATOM     16  C   UNL     1      -2.381  12.049  23.480  0.00  0.00    +0.000 A 
ATOM     17  C   UNL     1      -3.514  12.599  22.884  0.00  0.00    +0.000 A 
ATOM     18 CL   UNL     1      -4.928  12.929  23.810  0.00  0.00    +0.000 Cl
ATOM     19  C   UNL     1      -3.516  12.826  21.520  0.00  0.00    +0.000 A 
ATOM     20  C   UNL     1      -2.393  12.461  20.756  0.00  0.00    +0.000 A 
ENDBRANCH   4  14
TORSDOF 1
ENDMDL
MODEL 8
REMARK VINA RESULT:      -5.3      3.743      4.684
REMARK  Name = 
REMARK  1 active torsions:
REMARK  status: ('A' for Active; 'I' for Inactive)
REMARK    1  A    between atoms: C_4  and  C_5
REMARK                            x       y       z     vdW  Elec       q    Type
REMARK                         _______ _______ _______ _____ _____    ______ ____
ROOT
ATOM      1  O   UNL     1       5.523   2.984  15.444  0.00  0.00    +0.000 OA
ATOM      2  C   UNL     1       5.161   4.018  15.987  0.00  0.00    +0.000 C 
ATOM      3  C   UNL     1       5.789   5.489  15.913  0.00  0.00    +0.000 C 
ATOM      4  C   UNL     1       7.067   5.888  16.202  0.00  0.00    +0.000 C 
ATOM      5  N   UNL     1       4.838   6.282  16.475  0.00  0.00    +0.000 NA
ATOM      6  C   UNL     1       4.455   5.479  17.376  0.00  0.00    +0.000 C 
ATOM      7  C   UNL     1       4.539   5.634  18.886  0.00  0.00    +0.000 C 
ATOM      8 BR   UNL     1       5.840   4.353  19.598  0.00  0.00    +0.000 Br
ATOM      9  C   UNL     1       3.265   5.474  19.228  0.00  0.00    +0.000 C 
ATOM     10  C   UNL     1       2.596   4.260  18.699  0.00  0.00    +0.000 C 
ATOM     11 BR   UNL     1       1.045   3.804  19.616  0.00  0.00    +0.000 Br
ATOM     12  C   UNL     1       3.145   3.618  17.630  0.00  0.00    +0.000 C 
ATOM     13  N   UNL     1       4.208   4.220  16.976  0.00  0.00    +0.000 N 
ENDROOT
BRANCH   4  14
ATOM     14  C   UNL     1       7.241   6.986  17.313  0.00  0.00    +0.000 A 
ATOM     15  C   UNL     1       7.017   8.337  17.000  0.00  0.00    +0.000 A 
ATOM     16  C   UNL     1       7.667   9.373  17.719  0.00  0.00    +0.000 A 
ATOM     17  C   UNL     1       8.574   9.073  18.734  0.00  0.00    +0.000 A 
ATOM     18 CL   UNL     1       9.568  10.299  19.421  0.00  0.00    +0.000 Cl
ATOM     19  C   UNL     1       8.713   7.762  19.149  0.00  0.00    +0.000 A 
ATOM     20  C   UNL     1       7.968   6.752  18.513  0.00  0.00    +0.000 A 
ENDBRANCH   4  14
TORSDOF 1
ENDMDL
MODEL 9
REMARK VINA RESULT:      -5.3      7.679      9.536
REMARK  Name = 
REMARK  1 active torsions:
REMARK  status: ('A' for Active; 'I' for Inactive)
REMARK    1  A    between atoms: C_4  and  C_5
REMARK                            x       y       z     vdW  Elec       q    Type
REMARK                         _______ _______ _______ _____ _____    ______ ____
ROOT
ATOM      1  O   UNL     1      -4.021  12.511  19.880  0.00  0.00    +0.000 OA
ATOM      2  C   UNL     1      -2.809  12.619  19.769  0.00  0.00    +0.000 C 
ATOM      3  C   UNL     1      -1.781  11.773  18.878  0.00  0.00    +0.000 C 
ATOM      4  C   UNL     1      -1.574  10.419  18.867  0.00  0.00    +0.000 C 
ATOM      5  N   UNL     1      -0.629  12.493  18.931  0.00  0.00    +0.000 NA
ATOM      6  C   UNL     1      -0.719  12.875  20.134  0.00  0.00    +0.000 C 
ATOM      7  C   UNL     1       0.198  12.559  21.304  0.00  0.00    +0.000 C 
ATOM      8 BR   UNL     1      -0.744  11.402  22.575  0.00  0.00    +0.000 Br
ATOM      9  C   UNL     1       0.524  13.782  21.708  0.00  0.00    +0.000 C 
ATOM     10  C   UNL     1      -0.608  14.709  21.956  0.00  0.00    +0.000 C 
ATOM     11 BR   UNL     1      -0.157  16.172  23.009  0.00  0.00    +0.000 Br
ATOM     12  C   UNL     1      -1.823  14.426  21.407  0.00  0.00    +0.000 C 
ATOM     13  N   UNL     1      -1.909  13.380  20.504  0.00  0.00    +0.000 N 
ENDROOT
BRANCH   4  14
ATOM     14  C   UNL     1      -0.119   9.915  19.181  0.00  0.00    +0.000 A 
ATOM     15  C   UNL     1       0.792   9.713  18.131  0.00  0.00    +0.000 A 
ATOM     16  C   UNL     1       1.850   8.775  18.248  0.00  0.00    +0.000 A 
ATOM     17  C   UNL     1       1.991   8.003  19.400  0.00  0.00    +0.000 A 
ATOM     18 CL   UNL     1       3.090   6.678  19.447  0.00  0.00    +0.000 Cl
ATOM     19  C   UNL     1       1.192   8.273  20.496  0.00  0.00    +0.000 A 
ATOM     20  C   UNL     1       0.227   9.293  20.413  0.00  0.00    +0.000 A 
ENDBRANCH   4  14
TORSDOF 1
ENDMDL
