MODEL 1
REMARK VINA RESULT:      -7.4      0.000      0.000
REMARK  Name = 
REMARK  9 active torsions:
REMARK  status: ('A' for Active; 'I' for Inactive)
REMARK    1  A    between atoms: C_1  and  O_2
REMARK    2  A    between atoms: O_2  and  C_3
REMARK    3  A    between atoms: C_8  and  N_9
REMARK    4  A    between atoms: N_12  and  C_13
REMARK    5  A    between atoms: C_13  and  C_14
REMARK    6  A    between atoms: C_19  and  C_20
REMARK    7  A    between atoms: C_21  and  C_22
REMARK    8  A    between atoms: N_24  and  C_25
REMARK    9  A    between atoms: N_24  and  C_26
REMARK                            x       y       z     vdW  Elec       q    Type
REMARK                         _______ _______ _______ _____ _____    ______ ____
ROOT
ATOM      1  C   UNL     1       0.680   8.152  21.057  0.00  0.00    +0.000 C 
ENDROOT
BRANCH   1   2
ATOM      2  C   UNL     1       1.753   7.499  20.181  0.00  0.00    +0.000 C 
ATOM      3  O   UNL     1       2.212   8.102  19.215  0.00  0.00    +0.000 OA
ATOM      4  N   UNL     1       2.080   6.221  20.595  0.00  0.00    +0.000 N 
ATOM      5  C   UNL     1       3.057   5.431  20.058  0.00  0.00    +0.000 A 
ATOM      6  N   UNL     1       3.078   4.134  20.227  0.00  0.00    +0.000 NA
ATOM      7  C   UNL     1       4.083   3.553  19.446  0.00  0.00    +0.000 A 
ATOM      8  C   UNL     1       3.981   2.070  19.324  0.00  0.00    +0.000 C 
ATOM      9  C   UNL     1       4.947   4.466  18.835  0.00  0.00    +0.000 A 
ATOM     10  S   UNL     1       4.366   6.070  19.201  0.00  0.00    +0.000 S 
ATOM     11  H   UNL     1       1.483   5.767  21.273  0.00  0.00    +0.000 HD
BRANCH   9  12
ATOM     12  C   UNL     1       6.076   4.435  17.901  0.00  0.00    +0.000 C 
ATOM     13  O   UNL     1       7.228   4.362  18.346  0.00  0.00    +0.000 OA
ATOM     14  N   UNL     1       5.920   4.418  16.505  0.00  0.00    +0.000 N 
ATOM     15  C   UNL     1       4.687   4.485  15.750  0.00  0.00    +0.000 C 
ATOM     16  C   UNL     1       7.114   4.226  15.684  0.00  0.00    +0.000 C 
ENDBRANCH   9  12
ENDBRANCH   1   2
BRANCH   1  20
ATOM     17  N   UNL     1      -1.026  11.143  22.449  0.00  0.00    +0.000 N 
ATOM     18  C   UNL     1      -0.613  11.024  21.045  0.00  0.00    +0.000 C 
ATOM     19  C   UNL     1       0.876  10.605  20.986  0.00  0.00    +0.000 C 
ATOM     20  N   UNL     1       1.219   9.352  21.726  0.00  0.00    +0.000 NA
ATOM     21  C   UNL     1       0.685   9.470  23.106  0.00  0.00    +0.000 C 
ATOM     22  C   UNL     1      -0.792   9.930  23.246  0.00  0.00    +0.000 C 
BRANCH  17  28
ATOM     23  C   UNL     1      -1.156  13.554  23.033  0.00  0.00    +0.000 A 
ATOM     24  C   UNL     1      -1.891  14.607  23.610  0.00  0.00    +0.000 A 
ATOM     25  C   UNL     1      -3.179  14.401  24.095  0.00  0.00    +0.000 A 
ATOM     26  C   UNL     1      -3.744  13.140  24.010  0.00  0.00    +0.000 A 
ATOM     27  C   UNL     1      -3.016  12.088  23.446  0.00  0.00    +0.000 A 
ATOM     28  C   UNL     1      -1.703  12.245  22.952  0.00  0.00    +0.000 A 
BRANCH  23  30
ATOM     29  C   UNL     1       0.510  15.089  22.326  0.00  0.00    +0.000 C 
ATOM     30  O   UNL     1       0.155  13.746  22.649  0.00  0.00    +0.000 OA
ENDBRANCH  23  30
ENDBRANCH  17  28
ENDBRANCH   1  20
TORSDOF 5
ENDMDL
MODEL 2
REMARK VINA RESULT:      -7.4      1.039      1.504
REMARK  Name = 
REMARK  9 active torsions:
REMARK  status: ('A' for Active; 'I' for Inactive)
REMARK    1  A    between atoms: C_1  and  O_2
REMARK    2  A    between atoms: O_2  and  C_3
REMARK    3  A    between atoms: C_8  and  N_9
REMARK    4  A    between atoms: N_12  and  C_13
REMARK    5  A    between atoms: C_13  and  C_14
REMARK    6  A    between atoms: C_19  and  C_20
REMARK    7  A    between atoms: C_21  and  C_22
REMARK    8  A    between atoms: N_24  and  C_25
REMARK    9  A    between atoms: N_24  and  C_26
REMARK                            x       y       z     vdW  Elec       q    Type
REMARK                         _______ _______ _______ _____ _____    ______ ____
ROOT
ATOM      1  C   UNL     1       1.471   8.464  21.263  0.00  0.00    +0.000 C 
ENDROOT
BRANCH   1   2
ATOM      2  C   UNL     1       2.103   7.697  20.098  0.00  0.00    +0.000 C 
ATOM      3  O   UNL     1       2.194   8.222  18.992  0.00  0.00    +0.000 OA
ATOM      4  N   UNL     1       2.498   6.419  20.447  0.00  0.00    +0.000 N 
ATOM      5  C   UNL     1       3.161   5.538  19.641  0.00  0.00    +0.000 A 
ATOM      6  N   UNL     1       3.180   4.252  19.879  0.00  0.00    +0.000 NA
ATOM      7  C   UNL     1       3.788   3.566  18.822  0.00  0.00    +0.000 A 
ATOM      8  C   UNL     1       3.575   2.090  18.849  0.00  0.00    +0.000 C 
ATOM      9  C   UNL     1       4.403   4.386  17.872  0.00  0.00    +0.000 A 
ATOM     10  S   UNL     1       4.082   6.042  18.316  0.00  0.00    +0.000 S 
ATOM     11  H   UNL     1       2.178   6.041  21.328  0.00  0.00    +0.000 HD
BRANCH   9  12
ATOM     12  C   UNL     1       5.095   4.231  16.589  0.00  0.00    +0.000 C 
ATOM     13  O   UNL     1       4.436   3.985  15.571  0.00  0.00    +0.000 OA
ATOM     14  N   UNL     1       6.479   4.412  16.436  0.00  0.00    +0.000 N 
ATOM     15  C   UNL     1       7.454   4.712  17.463  0.00  0.00    +0.000 C 
ATOM     16  C   UNL     1       7.027   4.388  15.081  0.00  0.00    +0.000 C 
ENDBRANCH   9  12
ENDBRANCH   1   2
BRANCH   1  20
ATOM     17  N   UNL     1      -0.706  11.227  22.455  0.00  0.00    +0.000 N 
ATOM     18  C   UNL     1      -0.536   9.959  23.176  0.00  0.00    +0.000 C 
ATOM     19  C   UNL     1      -0.782   8.782  22.202  0.00  0.00    +0.000 C 
ATOM     20  N   UNL     1       0.061   8.784  20.968  0.00  0.00    +0.000 NA
ATOM     21  C   UNL     1      -0.055  10.120  20.332  0.00  0.00    +0.000 C 
ATOM     22  C   UNL     1       0.138  11.352  21.258  0.00  0.00    +0.000 C 
BRANCH  17  28
ATOM     23  C   UNL     1      -1.046  13.618  23.038  0.00  0.00    +0.000 A 
ATOM     24  C   UNL     1      -1.884  14.609  23.584  0.00  0.00    +0.000 A 
ATOM     25  C   UNL     1      -3.173  14.303  24.011  0.00  0.00    +0.000 A 
ATOM     26  C   UNL     1      -3.636  13.003  23.898  0.00  0.00    +0.000 A 
ATOM     27  C   UNL     1      -2.805  12.012  23.365  0.00  0.00    +0.000 A 
ATOM     28  C   UNL     1      -1.487  12.271  22.929  0.00  0.00    +0.000 A 
BRANCH  23  30
ATOM     29  C   UNL     1       0.481  15.204  22.150  0.00  0.00    +0.000 C 
ATOM     30  O   UNL     1       0.262  13.911  22.712  0.00  0.00    +0.000 OA
ENDBRANCH  23  30
ENDBRANCH  17  28
ENDBRANCH   1  20
TORSDOF 5
ENDMDL
MODEL 3
REMARK VINA RESULT:      -7.3      0.975      1.160
REMARK  Name = 
REMARK  9 active torsions:
REMARK  status: ('A' for Active; 'I' for Inactive)
REMARK    1  A    between atoms: C_1  and  O_2
REMARK    2  A    between atoms: O_2  and  C_3
REMARK    3  A    between atoms: C_8  and  N_9
REMARK    4  A    between atoms: N_12  and  C_13
REMARK    5  A    between atoms: C_13  and  C_14
REMARK    6  A    between atoms: C_19  and  C_20
REMARK    7  A    between atoms: C_21  and  C_22
REMARK    8  A    between atoms: N_24  and  C_25
REMARK    9  A    between atoms: N_24  and  C_26
REMARK                            x       y       z     vdW  Elec       q    Type
REMARK                         _______ _______ _______ _____ _____    ______ ____
ROOT
ATOM      1  C   UNL     1       0.887   7.930  21.142  0.00  0.00    +0.000 C 
ENDROOT
BRANCH   1   2
ATOM      2  C   UNL     1       1.717   7.326  20.006  0.00  0.00    +0.000 C 
ATOM      3  O   UNL     1       1.940   7.980  18.990  0.00  0.00    +0.000 OA
ATOM      4  N   UNL     1       2.121   6.029  20.265  0.00  0.00    +0.000 N 
ATOM      5  C   UNL     1       2.936   5.271  19.473  0.00  0.00    +0.000 A 
ATOM      6  N   UNL     1       2.984   3.967  19.566  0.00  0.00    +0.000 NA
ATOM      7  C   UNL     1       3.771   3.430  18.542  0.00  0.00    +0.000 A 
ATOM      8  C   UNL     1       3.630   1.956  18.373  0.00  0.00    +0.000 C 
ATOM      9  C   UNL     1       4.475   4.376  17.791  0.00  0.00    +0.000 A 
ATOM     10  S   UNL     1       4.011   5.957  18.365  0.00  0.00    +0.000 S 
ATOM     11  H   UNL     1       1.696   5.540  21.041  0.00  0.00    +0.000 HD
BRANCH   9  12
ATOM     12  C   UNL     1       5.351   4.396  16.617  0.00  0.00    +0.000 C 
ATOM     13  O   UNL     1       4.857   4.267  15.490  0.00  0.00    +0.000 OA
ATOM     14  N   UNL     1       6.735   4.621  16.693  0.00  0.00    +0.000 N 
ATOM     15  C   UNL     1       7.539   4.809  17.883  0.00  0.00    +0.000 C 
ATOM     16  C   UNL     1       7.475   4.776  15.442  0.00  0.00    +0.000 C 
ENDBRANCH   9  12
ENDBRANCH   1   2
BRANCH   1  20
ATOM     17  N   UNL     1      -0.790  10.994  22.404  0.00  0.00    +0.000 N 
ATOM     18  C   UNL     1      -0.607  10.698  20.978  0.00  0.00    +0.000 C 
ATOM     19  C   UNL     1       0.879  10.355  20.715  0.00  0.00    +0.000 C 
ATOM     20  N   UNL     1       1.435   9.241  21.542  0.00  0.00    +0.000 NA
ATOM     21  C   UNL     1       1.130   9.527  22.967  0.00  0.00    +0.000 C 
ATOM     22  C   UNL     1      -0.334   9.922  23.300  0.00  0.00    +0.000 C 
BRANCH  17  28
ATOM     23  C   UNL     1      -0.905  13.428  22.888  0.00  0.00    +0.000 A 
ATOM     24  C   UNL     1      -1.629  14.508  23.428  0.00  0.00    +0.000 A 
ATOM     25  C   UNL     1      -2.913  14.328  23.936  0.00  0.00    +0.000 A 
ATOM     26  C   UNL     1      -3.483  13.066  23.910  0.00  0.00    +0.000 A 
ATOM     27  C   UNL     1      -2.766  11.989  23.382  0.00  0.00    +0.000 A 
ATOM     28  C   UNL     1      -1.457  12.119  22.867  0.00  0.00    +0.000 A 
BRANCH  23  30
ATOM     29  C   UNL     1       0.574  14.187  21.193  0.00  0.00    +0.000 C 
ATOM     30  O   UNL     1       0.402  13.599  22.481  0.00  0.00    +0.000 OA
ENDBRANCH  23  30
ENDBRANCH  17  28
ENDBRANCH   1  20
TORSDOF 5
ENDMDL
MODEL 4
REMARK VINA RESULT:      -7.3      7.169     10.441
REMARK  Name = 
REMARK  9 active torsions:
REMARK  status: ('A' for Active; 'I' for Inactive)
REMARK    1  A    between atoms: C_1  and  O_2
REMARK    2  A    between atoms: O_2  and  C_3
REMARK    3  A    between atoms: C_8  and  N_9
REMARK    4  A    between atoms: N_12  and  C_13
REMARK    5  A    between atoms: C_13  and  C_14
REMARK    6  A    between atoms: C_19  and  C_20
REMARK    7  A    between atoms: C_21  and  C_22
REMARK    8  A    between atoms: N_24  and  C_25
REMARK    9  A    between atoms: N_24  and  C_26
REMARK                            x       y       z     vdW  Elec       q    Type
REMARK                         _______ _______ _______ _____ _____    ______ ____
ROOT
ATOM      1  C   UNL     1       7.739   6.983  18.350  0.00  0.00    +0.000 C 
ENDROOT
BRANCH   1   2
ATOM      2  C   UNL     1       8.217   8.397  18.010  0.00  0.00    +0.000 C 
ATOM      3  O   UNL     1       7.987   8.877  16.903  0.00  0.00    +0.000 OA
ATOM      4  N   UNL     1       8.912   8.993  19.046  0.00  0.00    +0.000 N 
ATOM      5  C   UNL     1       9.385  10.275  19.060  0.00  0.00    +0.000 A 
ATOM      6  N   UNL     1      10.330  10.662  19.877  0.00  0.00    +0.000 NA
ATOM      7  C   UNL     1      10.735  11.967  19.577  0.00  0.00    +0.000 A 
ATOM      8  C   UNL     1      12.009  12.377  20.234  0.00  0.00    +0.000 C 
ATOM      9  C   UNL     1       9.935  12.624  18.638  0.00  0.00    +0.000 A 
ATOM     10  S   UNL     1       8.732  11.489  18.082  0.00  0.00    +0.000 S 
ATOM     11  H   UNL     1       9.209   8.416  19.821  0.00  0.00    +0.000 HD
BRANCH   9  12
ATOM     12  C   UNL     1       9.922  13.908  17.931  0.00  0.00    +0.000 C 
ATOM     13  O   UNL     1       8.942  14.653  18.047  0.00  0.00    +0.000 OA
ATOM     14  N   UNL     1      11.004  14.376  17.167  0.00  0.00    +0.000 N 
ATOM     15  C   UNL     1      12.253  13.699  16.891  0.00  0.00    +0.000 C 
ATOM     16  C   UNL     1      10.933  15.738  16.642  0.00  0.00    +0.000 C 
ENDBRANCH   9  12
ENDBRANCH   1   2
BRANCH   1  20
ATOM     17  N   UNL     1       4.700   4.850  18.429  0.00  0.00    +0.000 N 
ATOM     18  C   UNL     1       6.067   4.315  18.434  0.00  0.00    +0.000 C 
ATOM     19  C   UNL     1       6.867   4.948  17.271  0.00  0.00    +0.000 C 
ATOM     20  N   UNL     1       6.904   6.443  17.259  0.00  0.00    +0.000 NA
ATOM     21  C   UNL     1       5.510   6.941  17.366  0.00  0.00    +0.000 C 
ATOM     22  C   UNL     1       4.632   6.317  18.485  0.00  0.00    +0.000 C 
BRANCH  17  28
ATOM     23  C   UNL     1       3.533   2.767  19.116  0.00  0.00    +0.000 A 
ATOM     24  C   UNL     1       2.358   1.992  19.099  0.00  0.00    +0.000 A 
ATOM     25  C   UNL     1       1.194   2.468  18.502  0.00  0.00    +0.000 A 
ATOM     26  C   UNL     1       1.195   3.723  17.915  0.00  0.00    +0.000 A 
ATOM     27  C   UNL     1       2.362   4.493  17.921  0.00  0.00    +0.000 A 
ATOM     28  C   UNL     1       3.570   4.048  18.503  0.00  0.00    +0.000 A 
BRANCH  23  30
ATOM     29  C   UNL     1       4.623   1.705  20.939  0.00  0.00    +0.000 C 
ATOM     30  O   UNL     1       4.706   2.244  19.621  0.00  0.00    +0.000 OA
ENDBRANCH  23  30
ENDBRANCH  17  28
ENDBRANCH   1  20
TORSDOF 5
ENDMDL
MODEL 5
REMARK VINA RESULT:      -7.3      6.545     10.009
REMARK  Name = 
REMARK  9 active torsions:
REMARK  status: ('A' for Active; 'I' for Inactive)
REMARK    1  A    between atoms: C_1  and  O_2
REMARK    2  A    between atoms: O_2  and  C_3
REMARK    3  A    between atoms: C_8  and  N_9
REMARK    4  A    between atoms: N_12  and  C_13
REMARK    5  A    between atoms: C_13  and  C_14
REMARK    6  A    between atoms: C_19  and  C_20
REMARK    7  A    between atoms: C_21  and  C_22
REMARK    8  A    between atoms: N_24  and  C_25
REMARK    9  A    between atoms: N_24  and  C_26
REMARK                            x       y       z     vdW  Elec       q    Type
REMARK                         _______ _______ _______ _____ _____    ______ ____
ROOT
ATOM      1  C   UNL     1       7.622   6.562  18.383  0.00  0.00    +0.000 C 
ENDROOT
BRANCH   1   2
ATOM      2  C   UNL     1       8.103   7.970  18.025  0.00  0.00    +0.000 C 
ATOM      3  O   UNL     1       7.945   8.405  16.887  0.00  0.00    +0.000 OA
ATOM      4  N   UNL     1       8.714   8.616  19.084  0.00  0.00    +0.000 N 
ATOM      5  C   UNL     1       9.167   9.904  19.083  0.00  0.00    +0.000 A 
ATOM      6  N   UNL     1      10.046  10.337  19.949  0.00  0.00    +0.000 NA
ATOM      7  C   UNL     1      10.453  11.637  19.629  0.00  0.00    +0.000 A 
ATOM      8  C   UNL     1      11.672  12.092  20.358  0.00  0.00    +0.000 C 
ATOM      9  C   UNL     1       9.712  12.245  18.612  0.00  0.00    +0.000 A 
ATOM     10  S   UNL     1       8.568  11.071  18.016  0.00  0.00    +0.000 S 
ATOM     11  H   UNL     1       8.963   8.072  19.899  0.00  0.00    +0.000 HD
BRANCH   9  12
ATOM     12  C   UNL     1       9.732  13.502  17.858  0.00  0.00    +0.000 C 
ATOM     13  O   UNL     1       8.732  14.229  17.867  0.00  0.00    +0.000 OA
ATOM     14  N   UNL     1      10.862  13.965  17.165  0.00  0.00    +0.000 N 
ATOM     15  C   UNL     1      12.143  13.307  17.015  0.00  0.00    +0.000 C 
ATOM     16  C   UNL     1      10.808  15.306  16.584  0.00  0.00    +0.000 C 
ENDBRANCH   9  12
ENDBRANCH   1   2
BRANCH   1  20
ATOM     17  N   UNL     1       4.352   4.914  19.006  0.00  0.00    +0.000 N 
ATOM     18  C   UNL     1       5.612   4.179  18.840  0.00  0.00    +0.000 C 
ATOM     19  C   UNL     1       6.312   4.653  17.544  0.00  0.00    +0.000 C 
ATOM     20  N   UNL     1       6.563   6.124  17.452  0.00  0.00    +0.000 NA
ATOM     21  C   UNL     1       5.288   6.829  17.736  0.00  0.00    +0.000 C 
ATOM     22  C   UNL     1       4.507   6.376  18.999  0.00  0.00    +0.000 C 
BRANCH  17  28
ATOM     23  C   UNL     1       2.716   3.069  18.704  0.00  0.00    +0.000 A 
ATOM     24  C   UNL     1       1.446   2.535  18.996  0.00  0.00    +0.000 A 
ATOM     25  C   UNL     1       0.583   3.181  19.876  0.00  0.00    +0.000 A 
ATOM     26  C   UNL     1       0.979   4.367  20.471  0.00  0.00    +0.000 A 
ATOM     27  C   UNL     1       2.236   4.906  20.178  0.00  0.00    +0.000 A 
ATOM     28  C   UNL     1       3.142   4.295  19.283  0.00  0.00    +0.000 A 
BRANCH  23  30
ATOM     29  C   UNL     1       3.890   1.122  18.019  0.00  0.00    +0.000 C 
ATOM     30  O   UNL     1       3.521   2.474  17.754  0.00  0.00    +0.000 OA
ENDBRANCH  23  30
ENDBRANCH  17  28
ENDBRANCH   1  20
TORSDOF 5
ENDMDL
MODEL 6
REMARK VINA RESULT:      -7.2      6.116     10.213
REMARK  Name = 
REMARK  9 active torsions:
REMARK  status: ('A' for Active; 'I' for Inactive)
REMARK    1  A    between atoms: C_1  and  O_2
REMARK    2  A    between atoms: O_2  and  C_3
REMARK    3  A    between atoms: C_8  and  N_9
REMARK    4  A    between atoms: N_12  and  C_13
REMARK    5  A    between atoms: C_13  and  C_14
REMARK    6  A    between atoms: C_19  and  C_20
REMARK    7  A    between atoms: C_21  and  C_22
REMARK    8  A    between atoms: N_24  and  C_25
REMARK    9  A    between atoms: N_24  and  C_26
REMARK                            x       y       z     vdW  Elec       q    Type
REMARK                         _______ _______ _______ _____ _____    ______ ____
ROOT
ATOM      1  C   UNL     1       7.770   7.062  18.431  0.00  0.00    +0.000 C 
ENDROOT
BRANCH   1   2
ATOM      2  C   UNL     1       8.238   8.474  18.071  0.00  0.00    +0.000 C 
ATOM      3  O   UNL     1       7.923   8.973  16.994  0.00  0.00    +0.000 OA
ATOM      4  N   UNL     1       9.027   9.046  19.052  0.00  0.00    +0.000 N 
ATOM      5  C   UNL     1       9.518  10.320  19.043  0.00  0.00    +0.000 A 
ATOM      6  N   UNL     1      10.535  10.683  19.782  0.00  0.00    +0.000 NA
ATOM      7  C   UNL     1      10.932  11.987  19.465  0.00  0.00    +0.000 A 
ATOM      8  C   UNL     1      12.263  12.370  20.018  0.00  0.00    +0.000 C 
ATOM      9  C   UNL     1      10.065  12.668  18.607  0.00  0.00    +0.000 A 
ATOM     10  S   UNL     1       8.803  11.557  18.140  0.00  0.00    +0.000 S 
ATOM     11  H   UNL     1       9.380   8.453  19.791  0.00  0.00    +0.000 HD
BRANCH   9  12
ATOM     12  C   UNL     1      10.012  13.961  17.920  0.00  0.00    +0.000 C 
ATOM     13  O   UNL     1      10.638  14.112  16.864  0.00  0.00    +0.000 OA
ATOM     14  N   UNL     1       9.227  15.037  18.366  0.00  0.00    +0.000 N 
ATOM     15  C   UNL     1       8.405  15.103  19.556  0.00  0.00    +0.000 C 
ATOM     16  C   UNL     1       9.134  16.218  17.510  0.00  0.00    +0.000 C 
ENDBRANCH   9  12
ENDBRANCH   1   2
BRANCH   1  20
ATOM     17  N   UNL     1       4.736   4.925  18.274  0.00  0.00    +0.000 N 
ATOM     18  C   UNL     1       6.088   4.399  18.498  0.00  0.00    +0.000 C 
ATOM     19  C   UNL     1       7.036   4.948  17.405  0.00  0.00    +0.000 C 
ATOM     20  N   UNL     1       7.081   6.437  17.284  0.00  0.00    +0.000 NA
ATOM     21  C   UNL     1       5.687   6.934  17.172  0.00  0.00    +0.000 C 
ATOM     22  C   UNL     1       4.668   6.392  18.211  0.00  0.00    +0.000 C 
BRANCH  17  28
ATOM     23  C   UNL     1       2.328   4.531  18.743  0.00  0.00    +0.000 A 
ATOM     24  C   UNL     1       1.241   3.636  18.746  0.00  0.00    +0.000 A 
ATOM     25  C   UNL     1       1.377   2.340  18.257  0.00  0.00    +0.000 A 
ATOM     26  C   UNL     1       2.601   1.925  17.762  0.00  0.00    +0.000 A 
ATOM     27  C   UNL     1       3.688   2.806  17.765  0.00  0.00    +0.000 A 
ATOM     28  C   UNL     1       3.602   4.125  18.261  0.00  0.00    +0.000 A 
BRANCH  23  30
ATOM     29  C   UNL     1       1.846   5.782  20.702  0.00  0.00    +0.000 C 
ATOM     30  O   UNL     1       2.209   5.777  19.322  0.00  0.00    +0.000 OA
ENDBRANCH  23  30
ENDBRANCH  17  28
ENDBRANCH   1  20
TORSDOF 5
ENDMDL
MODEL 7
REMARK VINA RESULT:      -7.1      1.582      2.109
REMARK  Name = 
REMARK  9 active torsions:
REMARK  status: ('A' for Active; 'I' for Inactive)
REMARK    1  A    between atoms: C_1  and  O_2
REMARK    2  A    between atoms: O_2  and  C_3
REMARK    3  A    between atoms: C_8  and  N_9
REMARK    4  A    between atoms: N_12  and  C_13
REMARK    5  A    between atoms: C_13  and  C_14
REMARK    6  A    between atoms: C_19  and  C_20
REMARK    7  A    between atoms: C_21  and  C_22
REMARK    8  A    between atoms: N_24  and  C_25
REMARK    9  A    between atoms: N_24  and  C_26
REMARK                            x       y       z     vdW  Elec       q    Type
REMARK                         _______ _______ _______ _____ _____    ______ ____
ROOT
ATOM      1  C   UNL     1       0.922  10.525  19.076  0.00  0.00    +0.000 C 
ENDROOT
BRANCH   1   2
ATOM      2  C   UNL     1       1.615   9.311  18.451  0.00  0.00    +0.000 C 
ATOM      3  O   UNL     1       1.845   9.286  17.245  0.00  0.00    +0.000 OA
ATOM      4  N   UNL     1       1.895   8.319  19.372  0.00  0.00    +0.000 N 
ATOM      5  C   UNL     1       2.578   7.163  19.120  0.00  0.00    +0.000 A 
ATOM      6  N   UNL     1       2.496   6.118  19.903  0.00  0.00    +0.000 NA
ATOM      7  C   UNL     1       3.160   5.025  19.335  0.00  0.00    +0.000 A 
ATOM      8  C   UNL     1       2.856   3.720  19.988  0.00  0.00    +0.000 C 
ATOM      9  C   UNL     1       3.913   5.328  18.198  0.00  0.00    +0.000 A 
ATOM     10  S   UNL     1       3.652   7.012  17.824  0.00  0.00    +0.000 S 
ATOM     11  H   UNL     1       1.469   8.377  20.287  0.00  0.00    +0.000 HD
BRANCH   9  12
ATOM     12  C   UNL     1       4.715   4.609  17.204  0.00  0.00    +0.000 C 
ATOM     13  O   UNL     1       4.150   3.873  16.386  0.00  0.00    +0.000 OA
ATOM     14  N   UNL     1       6.107   4.760  17.083  0.00  0.00    +0.000 N 
ATOM     15  C   UNL     1       6.986   5.564  17.906  0.00  0.00    +0.000 C 
ATOM     16  C   UNL     1       6.771   4.114  15.953  0.00  0.00    +0.000 C 
ENDBRANCH   9  12
ENDBRANCH   1   2
BRANCH   1  20
ATOM     17  N   UNL     1      -1.149  12.157  21.693  0.00  0.00    +0.000 N 
ATOM     18  C   UNL     1      -0.057  11.220  21.989  0.00  0.00    +0.000 C 
ATOM     19  C   UNL     1      -0.253   9.930  21.157  0.00  0.00    +0.000 C 
ATOM     20  N   UNL     1      -0.367  10.131  19.680  0.00  0.00    +0.000 NA
ATOM     21  C   UNL     1      -1.403  11.165  19.433  0.00  0.00    +0.000 C 
ATOM     22  C   UNL     1      -1.295  12.472  20.265  0.00  0.00    +0.000 C 
BRANCH  17  28
ATOM     23  C   UNL     1      -1.474  13.974  23.355  0.00  0.00    +0.000 A 
ATOM     24  C   UNL     1      -2.259  14.529  24.383  0.00  0.00    +0.000 A 
ATOM     25  C   UNL     1      -3.473  13.954  24.748  0.00  0.00    +0.000 A 
ATOM     26  C   UNL     1      -3.912  12.817  24.090  0.00  0.00    +0.000 A 
ATOM     27  C   UNL     1      -3.131  12.256  23.074  0.00  0.00    +0.000 A 
ATOM     28  C   UNL     1      -1.888  12.797  22.677  0.00  0.00    +0.000 A 
BRANCH  23  30
ATOM     29  C   UNL     1      -0.219  15.651  22.237  0.00  0.00    +0.000 C 
ATOM     30  O   UNL     1      -0.227  14.494  23.071  0.00  0.00    +0.000 OA
ENDBRANCH  23  30
ENDBRANCH  17  28
ENDBRANCH   1  20
TORSDOF 5
ENDMDL
MODEL 8
REMARK VINA RESULT:      -7.1      2.000      2.964
REMARK  Name = 
REMARK  9 active torsions:
REMARK  status: ('A' for Active; 'I' for Inactive)
REMARK    1  A    between atoms: C_1  and  O_2
REMARK    2  A    between atoms: O_2  and  C_3
REMARK    3  A    between atoms: C_8  and  N_9
REMARK    4  A    between atoms: N_12  and  C_13
REMARK    5  A    between atoms: C_13  and  C_14
REMARK    6  A    between atoms: C_19  and  C_20
REMARK    7  A    between atoms: C_21  and  C_22
REMARK    8  A    between atoms: N_24  and  C_25
REMARK    9  A    between atoms: N_24  and  C_26
REMARK                            x       y       z     vdW  Elec       q    Type
REMARK                         _______ _______ _______ _____ _____    ______ ____
ROOT
ATOM      1  C   UNL     1       0.345   9.964  19.879  0.00  0.00    +0.000 C 
ENDROOT
BRANCH   1   2
ATOM      2  C   UNL     1       1.228   8.713  19.877  0.00  0.00    +0.000 C 
ATOM      3  O   UNL     1       1.302   8.008  20.880  0.00  0.00    +0.000 OA
ATOM      4  N   UNL     1       1.896   8.528  18.681  0.00  0.00    +0.000 N 
ATOM      5  C   UNL     1       2.686   7.460  18.362  0.00  0.00    +0.000 A 
ATOM      6  N   UNL     1       3.569   7.507  17.397  0.00  0.00    +0.000 NA
ATOM      7  C   UNL     1       4.348   6.345  17.387  0.00  0.00    +0.000 A 
ATOM      8  C   UNL     1       5.573   6.440  16.542  0.00  0.00    +0.000 C 
ATOM      9  C   UNL     1       3.900   5.336  18.243  0.00  0.00    +0.000 A 
ATOM     10  S   UNL     1       2.534   5.962  19.130  0.00  0.00    +0.000 S 
ATOM     11  H   UNL     1       1.910   9.288  18.015  0.00  0.00    +0.000 HD
BRANCH   9  12
ATOM     12  C   UNL     1       4.336   4.004  18.673  0.00  0.00    +0.000 C 
ATOM     13  O   UNL     1       5.362   3.893  19.354  0.00  0.00    +0.000 OA
ATOM     14  N   UNL     1       3.608   2.833  18.405  0.00  0.00    +0.000 N 
ATOM     15  C   UNL     1       2.383   2.704  17.645  0.00  0.00    +0.000 C 
ATOM     16  C   UNL     1       4.062   1.588  19.022  0.00  0.00    +0.000 C 
ENDBRANCH   9  12
ENDBRANCH   1   2
BRANCH   1  20
ATOM     17  N   UNL     1      -1.363  12.283  22.224  0.00  0.00    +0.000 N 
ATOM     18  C   UNL     1      -1.112  12.596  20.811  0.00  0.00    +0.000 C 
ATOM     19  C   UNL     1       0.381  12.348  20.491  0.00  0.00    +0.000 C 
ATOM     20  N   UNL     1       0.885  10.977  20.807  0.00  0.00    +0.000 NA
ATOM     21  C   UNL     1       0.513  10.659  22.209  0.00  0.00    +0.000 C 
ATOM     22  C   UNL     1      -0.962  10.924  22.615  0.00  0.00    +0.000 C 
BRANCH  17  28
ATOM     23  C   UNL     1      -3.449  13.130  23.273  0.00  0.00    +0.000 A 
ATOM     24  C   UNL     1      -4.066  14.070  24.122  0.00  0.00    +0.000 A 
ATOM     25  C   UNL     1      -3.312  15.013  24.814  0.00  0.00    +0.000 A 
ATOM     26  C   UNL     1      -1.936  15.029  24.663  0.00  0.00    +0.000 A 
ATOM     27  C   UNL     1      -1.319  14.104  23.815  0.00  0.00    +0.000 A 
ATOM     28  C   UNL     1      -2.041  13.136  23.082  0.00  0.00    +0.000 A 
BRANCH  23  30
ATOM     29  C   UNL     1      -5.296  12.866  21.805  0.00  0.00    +0.000 C 
ATOM     30  O   UNL     1      -4.214  12.267  22.515  0.00  0.00    +0.000 OA
ENDBRANCH  23  30
ENDBRANCH  17  28
ENDBRANCH   1  20
TORSDOF 5
ENDMDL
MODEL 9
REMARK VINA RESULT:      -7.0      6.996     10.220
REMARK  Name = 
REMARK  9 active torsions:
REMARK  status: ('A' for Active; 'I' for Inactive)
REMARK    1  A    between atoms: C_1  and  O_2
REMARK    2  A    between atoms: O_2  and  C_3
REMARK    3  A    between atoms: C_8  and  N_9
REMARK    4  A    between atoms: N_12  and  C_13
REMARK    5  A    between atoms: C_13  and  C_14
REMARK    6  A    between atoms: C_19  and  C_20
REMARK    7  A    between atoms: C_21  and  C_22
REMARK    8  A    between atoms: N_24  and  C_25
REMARK    9  A    between atoms: N_24  and  C_26
REMARK                            x       y       z     vdW  Elec       q    Type
REMARK                         _______ _______ _______ _____ _____    ______ ____
ROOT
ATOM      1  C   UNL     1       7.550   6.763  18.214  0.00  0.00    +0.000 C 
ENDROOT
BRANCH   1   2
ATOM      2  C   UNL     1       8.085   8.166  17.913  0.00  0.00    +0.000 C 
ATOM      3  O   UNL     1       7.951   8.650  16.792  0.00  0.00    +0.000 OA
ATOM      4  N   UNL     1       8.713   8.747  18.999  0.00  0.00    +0.000 N 
ATOM      5  C   UNL     1       9.213  10.017  19.050  0.00  0.00    +0.000 A 
ATOM      6  N   UNL     1      10.101  10.384  19.937  0.00  0.00    +0.000 NA
ATOM      7  C   UNL     1      10.559  11.679  19.669  0.00  0.00    +0.000 A 
ATOM      8  C   UNL     1      11.788  12.060  20.422  0.00  0.00    +0.000 C 
ATOM      9  C   UNL     1       9.847  12.353  18.673  0.00  0.00    +0.000 A 
ATOM     10  S   UNL     1       8.664  11.245  18.027  0.00  0.00    +0.000 S 
ATOM     11  H   UNL     1       8.937   8.164  19.794  0.00  0.00    +0.000 HD
BRANCH   9  12
ATOM     12  C   UNL     1       9.918  13.635  17.968  0.00  0.00    +0.000 C 
ATOM     13  O   UNL     1      10.463  13.687  16.858  0.00  0.00    +0.000 OA
ATOM     14  N   UNL     1       9.337  14.816  18.458  0.00  0.00    +0.000 N 
ATOM     15  C   UNL     1       8.642  15.008  19.714  0.00  0.00    +0.000 C 
ATOM     16  C   UNL     1       9.338  15.992  17.590  0.00  0.00    +0.000 C 
ENDBRANCH   9  12
ENDBRANCH   1   2
BRANCH   1  20
ATOM     17  N   UNL     1       4.430   4.773  18.526  0.00  0.00    +0.000 N 
ATOM     18  C   UNL     1       5.753   4.178  18.301  0.00  0.00    +0.000 C 
ATOM     19  C   UNL     1       6.429   4.877  17.098  0.00  0.00    +0.000 C 
ATOM     20  N   UNL     1       6.550   6.363  17.205  0.00  0.00    +0.000 NA
ATOM     21  C   UNL     1       5.213   6.913  17.543  0.00  0.00    +0.000 C 
ATOM     22  C   UNL     1       4.454   6.231  18.714  0.00  0.00    +0.000 C 
BRANCH  17  28
ATOM     23  C   UNL     1       3.055   3.105  19.750  0.00  0.00    +0.000 A 
ATOM     24  C   UNL     1       1.876   2.337  19.808  0.00  0.00    +0.000 A 
ATOM     25  C   UNL     1       0.886   2.469  18.838  0.00  0.00    +0.000 A 
ATOM     26  C   UNL     1       1.065   3.370  17.802  0.00  0.00    +0.000 A 
ATOM     27  C   UNL     1       2.237   4.129  17.734  0.00  0.00    +0.000 A 
ATOM     28  C   UNL     1       3.275   4.021  18.686  0.00  0.00    +0.000 A 
BRANCH  23  30
ATOM     29  C   UNL     1       4.716   1.623  20.574  0.00  0.00    +0.000 C 
ATOM     30  O   UNL     1       4.071   2.892  20.658  0.00  0.00    +0.000 OA
ENDBRANCH  23  30
ENDBRANCH  17  28
ENDBRANCH   1  20
TORSDOF 5
ENDMDL
