MODEL 1
REMARK VINA RESULT:      -7.3      0.000      0.000
REMARK  Name = 
REMARK  5 active torsions:
REMARK  status: ('A' for Active; 'I' for Inactive)
REMARK    1  A    between atoms: C_1  and  O_2
REMARK    2  A    between atoms: O_2  and  C_3
REMARK    3  A    between atoms: C_3  and  C_4
REMARK    4  A    between atoms: C_13  and  C_15
REMARK    5  A    between atoms: C_18  and  C_19
REMARK                            x       y       z     vdW  Elec       q    Type
REMARK                         _______ _______ _______ _____ _____    ______ ____
ROOT
ATOM      1  C   UNL     1       1.609   8.090  20.281  0.00  0.00    +0.000 A 
ATOM      2  C   UNL     1       1.574   9.210  19.450  0.00  0.00    +0.000 A 
ATOM      3  N   UNL     1       1.963   9.226  18.155  0.00  0.00    +0.000 NA
ATOM      4  C   UNL     1       2.427   8.063  17.664  0.00  0.00    +0.000 A 
ATOM      5  C   UNL     1       2.512   6.880  18.393  0.00  0.00    +0.000 A 
ATOM      6  C   UNL     1       2.080   6.885  19.732  0.00  0.00    +0.000 A 
ATOM      7  C   UNL     1       2.226   5.622  20.562  0.00  0.00    +0.000 C 
ATOM      8  C   UNL     1       2.383   4.370  19.692  0.00  0.00    +0.000 C 
ATOM      9  N   UNL     1       3.383   4.589  18.653  0.00  0.00    +0.000 N 
ATOM     10  C   UNL     1       4.660   4.027  18.778  0.00  0.00    +0.000 C 
ATOM     11  O   UNL     1       4.971   3.388  19.786  0.00  0.00    +0.000 OA
ATOM     12  C   UNL     1       3.060   5.655  17.715  0.00  0.00    +0.000 C 
ENDROOT
BRANCH  10  13
ATOM     13  C   UNL     1       5.608   4.245  17.698  0.00  0.00    +0.000 A 
ATOM     14  C   UNL     1       6.858   4.835  17.698  0.00  0.00    +0.000 A 
ATOM     15  C   UNL     1       7.310   4.838  16.355  0.00  0.00    +0.000 A 
ATOM     16  C   UNL     1       6.335   4.208  15.616  0.00  0.00    +0.000 A 
ATOM     17  C   UNL     1       6.178   3.895  14.182  0.00  0.00    +0.000 C 
ATOM     18  O   UNL     1       5.316   3.815  16.429  0.00  0.00    +0.000 OA
ENDBRANCH  10  13
BRANCH   1  19
ATOM     19  C   UNL     1       1.145   8.226  21.704  0.00  0.00    +0.000 C 
BRANCH  19  21
ATOM     20  C   UNL     1      -0.495   9.543  22.761  0.00  0.00    +0.000 C 
ATOM     21  O   UNL     1      -0.224   8.621  21.717  0.00  0.00    +0.000 OA
ENDBRANCH  19  21
ENDBRANCH   1  19
TORSDOF 3
ENDMDL
MODEL 2
REMARK VINA RESULT:      -7.0      2.990      5.063
REMARK  Name = 
REMARK  5 active torsions:
REMARK  status: ('A' for Active; 'I' for Inactive)
REMARK    1  A    between atoms: C_1  and  O_2
REMARK    2  A    between atoms: O_2  and  C_3
REMARK    3  A    between atoms: C_3  and  C_4
REMARK    4  A    between atoms: C_13  and  C_15
REMARK    5  A    between atoms: C_18  and  C_19
REMARK                            x       y       z     vdW  Elec       q    Type
REMARK                         _______ _______ _______ _____ _____    ______ ____
ROOT
ATOM      1  C   UNL     1       2.334   3.936  18.414  0.00  0.00    +0.000 A 
ATOM      2  C   UNL     1       1.688   4.615  19.446  0.00  0.00    +0.000 A 
ATOM      3  N   UNL     1       1.943   5.891  19.813  0.00  0.00    +0.000 NA
ATOM      4  C   UNL     1       2.907   6.522  19.119  0.00  0.00    +0.000 A 
ATOM      5  C   UNL     1       3.623   5.951  18.072  0.00  0.00    +0.000 A 
ATOM      6  C   UNL     1       3.323   4.630  17.695  0.00  0.00    +0.000 A 
ATOM      7  C   UNL     1       4.138   3.968  16.599  0.00  0.00    +0.000 C 
ATOM      8  C   UNL     1       4.863   4.991  15.718  0.00  0.00    +0.000 C 
ATOM      9  N   UNL     1       5.554   5.978  16.539  0.00  0.00    +0.000 N 
ATOM     10  C   UNL     1       6.943   5.910  16.701  0.00  0.00    +0.000 C 
ATOM     11  O   UNL     1       7.591   4.989  16.198  0.00  0.00    +0.000 OA
ATOM     12  C   UNL     1       4.681   6.775  17.391  0.00  0.00    +0.000 C 
ENDROOT
BRANCH  10  13
ATOM     13  C   UNL     1       7.587   6.939  17.501  0.00  0.00    +0.000 A 
ATOM     14  C   UNL     1       8.169   6.879  18.753  0.00  0.00    +0.000 A 
ATOM     15  C   UNL     1       8.583   8.194  19.077  0.00  0.00    +0.000 A 
ATOM     16  C   UNL     1       8.276   8.976  17.986  0.00  0.00    +0.000 A 
ATOM     17  C   UNL     1       8.430  10.413  17.680  0.00  0.00    +0.000 C 
ATOM     18  O   UNL     1       7.703   8.216  17.014  0.00  0.00    +0.000 OA
ENDBRANCH  10  13
BRANCH   1  19
ATOM     19  C   UNL     1       1.944   2.513  18.124  0.00  0.00    +0.000 C 
BRANCH  19  21
ATOM     20  C   UNL     1       3.757   1.139  18.730  0.00  0.00    +0.000 C 
ATOM     21  O   UNL     1       2.497   1.661  19.123  0.00  0.00    +0.000 OA
ENDBRANCH  19  21
ENDBRANCH   1  19
TORSDOF 3
ENDMDL
MODEL 3
REMARK VINA RESULT:      -7.0      2.793      4.667
REMARK  Name = 
REMARK  5 active torsions:
REMARK  status: ('A' for Active; 'I' for Inactive)
REMARK    1  A    between atoms: C_1  and  O_2
REMARK    2  A    between atoms: O_2  and  C_3
REMARK    3  A    between atoms: C_3  and  C_4
REMARK    4  A    between atoms: C_13  and  C_15
REMARK    5  A    between atoms: C_18  and  C_19
REMARK                            x       y       z     vdW  Elec       q    Type
REMARK                         _______ _______ _______ _____ _____    ______ ____
ROOT
ATOM      1  C   UNL     1       3.175   5.742  18.129  0.00  0.00    +0.000 A 
ATOM      2  C   UNL     1       1.989   5.010  18.184  0.00  0.00    +0.000 A 
ATOM      3  N   UNL     1       1.778   3.828  17.562  0.00  0.00    +0.000 NA
ATOM      4  C   UNL     1       2.804   3.356  16.832  0.00  0.00    +0.000 A 
ATOM      5  C   UNL     1       4.033   3.993  16.699  0.00  0.00    +0.000 A 
ATOM      6  C   UNL     1       4.235   5.210  17.374  0.00  0.00    +0.000 A 
ATOM      7  C   UNL     1       5.546   5.952  17.188  0.00  0.00    +0.000 C 
ATOM      8  C   UNL     1       6.661   5.039  16.669  0.00  0.00    +0.000 C 
ATOM      9  N   UNL     1       6.192   4.249  15.537  0.00  0.00    +0.000 N 
ATOM     10  C   UNL     1       6.577   4.590  14.234  0.00  0.00    +0.000 C 
ATOM     11  O   UNL     1       7.270   5.588  14.023  0.00  0.00    +0.000 OA
ATOM     12  C   UNL     1       5.088   3.349  15.841  0.00  0.00    +0.000 C 
ENDROOT
BRANCH  10  13
ATOM     13  C   UNL     1       6.111   3.749  13.144  0.00  0.00    +0.000 A 
ATOM     14  C   UNL     1       6.716   2.689  12.497  0.00  0.00    +0.000 A 
ATOM     15  C   UNL     1       5.834   2.278  11.466  0.00  0.00    +0.000 A 
ATOM     16  C   UNL     1       4.718   3.078  11.571  0.00  0.00    +0.000 A 
ATOM     17  C   UNL     1       3.455   3.178  10.813  0.00  0.00    +0.000 C 
ATOM     18  O   UNL     1       4.864   3.948  12.608  0.00  0.00    +0.000 OA
ENDBRANCH  10  13
BRANCH   1  19
ATOM     19  C   UNL     1       3.260   7.045  18.873  0.00  0.00    +0.000 C 
BRANCH  19  21
ATOM     20  C   UNL     1       1.964   8.795  17.979  0.00  0.00    +0.000 C 
ATOM     21  O   UNL     1       1.985   7.680  18.857  0.00  0.00    +0.000 OA
ENDBRANCH  19  21
ENDBRANCH   1  19
TORSDOF 3
ENDMDL
MODEL 4
REMARK VINA RESULT:      -6.9      2.336      4.258
REMARK  Name = 
REMARK  5 active torsions:
REMARK  status: ('A' for Active; 'I' for Inactive)
REMARK    1  A    between atoms: C_1  and  O_2
REMARK    2  A    between atoms: O_2  and  C_3
REMARK    3  A    between atoms: C_3  and  C_4
REMARK    4  A    between atoms: C_13  and  C_15
REMARK    5  A    between atoms: C_18  and  C_19
REMARK                            x       y       z     vdW  Elec       q    Type
REMARK                         _______ _______ _______ _____ _____    ______ ____
ROOT
ATOM      1  C   UNL     1       2.940   5.300  18.719  0.00  0.00    +0.000 A 
ATOM      2  C   UNL     1       1.742   4.602  18.577  0.00  0.00    +0.000 A 
ATOM      3  N   UNL     1       1.557   3.537  17.763  0.00  0.00    +0.000 NA
ATOM      4  C   UNL     1       2.625   3.157  17.039  0.00  0.00    +0.000 A 
ATOM      5  C   UNL     1       3.871   3.774  17.092  0.00  0.00    +0.000 A 
ATOM      6  C   UNL     1       4.043   4.865  17.964  0.00  0.00    +0.000 A 
ATOM      7  C   UNL     1       5.375   5.592  17.987  0.00  0.00    +0.000 C 
ATOM      8  C   UNL     1       6.510   4.741  17.407  0.00  0.00    +0.000 C 
ATOM      9  N   UNL     1       6.111   4.151  16.135  0.00  0.00    +0.000 N 
ATOM     10  C   UNL     1       6.593   4.680  14.931  0.00  0.00    +0.000 C 
ATOM     11  O   UNL     1       7.315   5.680  14.928  0.00  0.00    +0.000 OA
ATOM     12  C   UNL     1       4.974   3.244  16.218  0.00  0.00    +0.000 C 
ENDROOT
BRANCH  10  13
ATOM     13  C   UNL     1       6.193   4.033  13.693  0.00  0.00    +0.000 A 
ATOM     14  C   UNL     1       4.982   4.026  13.027  0.00  0.00    +0.000 A 
ATOM     15  C   UNL     1       5.137   3.178  11.902  0.00  0.00    +0.000 A 
ATOM     16  C   UNL     1       6.446   2.753  11.915  0.00  0.00    +0.000 A 
ATOM     17  C   UNL     1       7.242   1.860  11.049  0.00  0.00    +0.000 C 
ATOM     18  O   UNL     1       7.101   3.294  12.979  0.00  0.00    +0.000 OA
ENDBRANCH  10  13
BRANCH   1  19
ATOM     19  C   UNL     1       2.993   6.469  19.663  0.00  0.00    +0.000 C 
BRANCH  19  21
ATOM     20  C   UNL     1       1.497   7.846  20.850  0.00  0.00    +0.000 C 
ATOM     21  O   UNL     1       1.779   6.527  20.408  0.00  0.00    +0.000 OA
ENDBRANCH  19  21
ENDBRANCH   1  19
TORSDOF 3
ENDMDL
MODEL 5
REMARK VINA RESULT:      -6.9      2.383      6.522
REMARK  Name = 
REMARK  5 active torsions:
REMARK  status: ('A' for Active; 'I' for Inactive)
REMARK    1  A    between atoms: C_1  and  O_2
REMARK    2  A    between atoms: O_2  and  C_3
REMARK    3  A    between atoms: C_3  and  C_4
REMARK    4  A    between atoms: C_13  and  C_15
REMARK    5  A    between atoms: C_18  and  C_19
REMARK                            x       y       z     vdW  Elec       q    Type
REMARK                         _______ _______ _______ _____ _____    ______ ____
ROOT
ATOM      1  C   UNL     1       3.815   2.299  20.622  0.00  0.00    +0.000 A 
ATOM      2  C   UNL     1       2.916   2.073  21.664  0.00  0.00    +0.000 A 
ATOM      3  N   UNL     1       1.732   2.709  21.816  0.00  0.00    +0.000 NA
ATOM      4  C   UNL     1       1.436   3.634  20.885  0.00  0.00    +0.000 A 
ATOM      5  C   UNL     1       2.251   3.949  19.803  0.00  0.00    +0.000 A 
ATOM      6  C   UNL     1       3.466   3.257  19.654  0.00  0.00    +0.000 A 
ATOM      7  C   UNL     1       4.399   3.633  18.518  0.00  0.00    +0.000 C 
ATOM      8  C   UNL     1       3.675   4.390  17.399  0.00  0.00    +0.000 C 
ATOM      9  N   UNL     1       2.854   5.461  17.952  0.00  0.00    +0.000 N 
ATOM     10  C   UNL     1       3.283   6.791  17.863  0.00  0.00    +0.000 C 
ATOM     11  O   UNL     1       4.377   7.069  17.368  0.00  0.00    +0.000 OA
ATOM     12  C   UNL     1       1.793   5.013  18.843  0.00  0.00    +0.000 C 
ENDROOT
BRANCH  10  13
ATOM     13  C   UNL     1       2.411   7.824  18.398  0.00  0.00    +0.000 A 
ATOM     14  C   UNL     1       1.757   8.869  17.774  0.00  0.00    +0.000 A 
ATOM     15  C   UNL     1       1.096   9.605  18.788  0.00  0.00    +0.000 A 
ATOM     16  C   UNL     1       1.340   8.942  19.969  0.00  0.00    +0.000 A 
ATOM     17  C   UNL     1       0.959   9.180  21.376  0.00  0.00    +0.000 C 
ATOM     18  O   UNL     1       2.108   7.842  19.736  0.00  0.00    +0.000 OA
ENDBRANCH  10  13
BRANCH   1  19
ATOM     19  C   UNL     1       5.097   1.514  20.586  0.00  0.00    +0.000 C 
BRANCH  19  21
ATOM     20  C   UNL     1       6.182  -0.021  22.004  0.00  0.00    +0.000 C 
ATOM     21  O   UNL     1       5.510   1.227  21.919  0.00  0.00    +0.000 OA
ENDBRANCH  19  21
ENDBRANCH   1  19
TORSDOF 3
ENDMDL
MODEL 6
REMARK VINA RESULT:      -6.8      2.581      4.123
REMARK  Name = 
REMARK  5 active torsions:
REMARK  status: ('A' for Active; 'I' for Inactive)
REMARK    1  A    between atoms: C_1  and  O_2
REMARK    2  A    between atoms: O_2  and  C_3
REMARK    3  A    between atoms: C_3  and  C_4
REMARK    4  A    between atoms: C_13  and  C_15
REMARK    5  A    between atoms: C_18  and  C_19
REMARK                            x       y       z     vdW  Elec       q    Type
REMARK                         _______ _______ _______ _____ _____    ______ ____
ROOT
ATOM      1  C   UNL     1       2.820   4.989  18.879  0.00  0.00    +0.000 A 
ATOM      2  C   UNL     1       1.693   4.284  18.461  0.00  0.00    +0.000 A 
ATOM      3  N   UNL     1       1.680   3.357  17.476  0.00  0.00    +0.000 NA
ATOM      4  C   UNL     1       2.856   3.131  16.864  0.00  0.00    +0.000 A 
ATOM      5  C   UNL     1       4.048   3.772  17.190  0.00  0.00    +0.000 A 
ATOM      6  C   UNL     1       4.038   4.716  18.233  0.00  0.00    +0.000 A 
ATOM      7  C   UNL     1       5.313   5.473  18.559  0.00  0.00    +0.000 C 
ATOM      8  C   UNL     1       6.562   4.763  18.026  0.00  0.00    +0.000 C 
ATOM      9  N   UNL     1       6.374   4.369  16.635  0.00  0.00    +0.000 N 
ATOM     10  C   UNL     1       6.988   5.098  15.609  0.00  0.00    +0.000 C 
ATOM     11  O   UNL     1       7.647   6.109  15.862  0.00  0.00    +0.000 OA
ATOM     12  C   UNL     1       5.288   3.424  16.414  0.00  0.00    +0.000 C 
ENDROOT
BRANCH  10  13
ATOM     13  C   UNL     1       6.797   4.643  14.242  0.00  0.00    +0.000 A 
ATOM     14  C   UNL     1       7.645   4.674  13.151  0.00  0.00    +0.000 A 
ATOM     15  C   UNL     1       6.919   4.155  12.051  0.00  0.00    +0.000 A 
ATOM     16  C   UNL     1       5.685   3.791  12.539  0.00  0.00    +0.000 A 
ATOM     17  C   UNL     1       4.473   3.207  11.928  0.00  0.00    +0.000 C 
ATOM     18  O   UNL     1       5.615   4.052  13.873  0.00  0.00    +0.000 OA
ENDBRANCH  10  13
BRANCH   1  19
ATOM     19  C   UNL     1       2.678   5.994  19.988  0.00  0.00    +0.000 C 
BRANCH  19  21
ATOM     20  C   UNL     1       2.404   7.882  18.609  0.00  0.00    +0.000 C 
ATOM     21  O   UNL     1       1.797   7.034  19.571  0.00  0.00    +0.000 OA
ENDBRANCH  19  21
ENDBRANCH   1  19
TORSDOF 3
ENDMDL
MODEL 7
REMARK VINA RESULT:      -6.8      3.096      4.520
REMARK  Name = 
REMARK  5 active torsions:
REMARK  status: ('A' for Active; 'I' for Inactive)
REMARK    1  A    between atoms: C_1  and  O_2
REMARK    2  A    between atoms: O_2  and  C_3
REMARK    3  A    between atoms: C_3  and  C_4
REMARK    4  A    between atoms: C_13  and  C_15
REMARK    5  A    between atoms: C_18  and  C_19
REMARK                            x       y       z     vdW  Elec       q    Type
REMARK                         _______ _______ _______ _____ _____    ______ ____
ROOT
ATOM      1  C   UNL     1       2.144   3.636  19.062  0.00  0.00    +0.000 A 
ATOM      2  C   UNL     1       1.939   2.257  19.003  0.00  0.00    +0.000 A 
ATOM      3  N   UNL     1       2.747   1.380  18.365  0.00  0.00    +0.000 NA
ATOM      4  C   UNL     1       3.812   1.910  17.737  0.00  0.00    +0.000 A 
ATOM      5  C   UNL     1       4.121   3.267  17.722  0.00  0.00    +0.000 A 
ATOM      6  C   UNL     1       3.277   4.155  18.412  0.00  0.00    +0.000 A 
ATOM      7  C   UNL     1       3.560   5.645  18.352  0.00  0.00    +0.000 C 
ATOM      8  C   UNL     1       5.006   5.945  17.942  0.00  0.00    +0.000 C 
ATOM      9  N   UNL     1       5.381   5.160  16.771  0.00  0.00    +0.000 N 
ATOM     10  C   UNL     1       5.448   5.768  15.511  0.00  0.00    +0.000 C 
ATOM     11  O   UNL     1       5.142   6.954  15.366  0.00  0.00    +0.000 OA
ATOM     12  C   UNL     1       5.343   3.718  16.970  0.00  0.00    +0.000 C 
ENDROOT
BRANCH  10  13
ATOM     13  C   UNL     1       5.860   4.950  14.382  0.00  0.00    +0.000 A 
ATOM     14  C   UNL     1       7.117   4.669  13.880  0.00  0.00    +0.000 A 
ATOM     15  C   UNL     1       6.929   3.869  12.726  0.00  0.00    +0.000 A 
ATOM     16  C   UNL     1       5.572   3.664  12.614  0.00  0.00    +0.000 A 
ATOM     17  C   UNL     1       4.721   2.942  11.647  0.00  0.00    +0.000 C 
ATOM     18  O   UNL     1       4.921   4.288  13.634  0.00  0.00    +0.000 OA
ENDBRANCH  10  13
BRANCH   1  19
ATOM     19  C   UNL     1       1.154   4.486  19.809  0.00  0.00    +0.000 C 
BRANCH  19  21
ATOM     20  C   UNL     1       2.149   3.639  21.767  0.00  0.00    +0.000 C 
ATOM     21  O   UNL     1       1.680   4.798  21.096  0.00  0.00    +0.000 OA
ENDBRANCH  19  21
ENDBRANCH   1  19
TORSDOF 3
ENDMDL
MODEL 8
REMARK VINA RESULT:      -6.7      2.430      3.660
REMARK  Name = 
REMARK  5 active torsions:
REMARK  status: ('A' for Active; 'I' for Inactive)
REMARK    1  A    between atoms: C_1  and  O_2
REMARK    2  A    between atoms: O_2  and  C_3
REMARK    3  A    between atoms: C_3  and  C_4
REMARK    4  A    between atoms: C_13  and  C_15
REMARK    5  A    between atoms: C_18  and  C_19
REMARK                            x       y       z     vdW  Elec       q    Type
REMARK                         _______ _______ _______ _____ _____    ______ ____
ROOT
ATOM      1  C   UNL     1       2.347   4.984  19.359  0.00  0.00    +0.000 A 
ATOM      2  C   UNL     1       1.281   4.275  18.806  0.00  0.00    +0.000 A 
ATOM      3  N   UNL     1       1.384   3.385  17.792  0.00  0.00    +0.000 NA
ATOM      4  C   UNL     1       2.620   3.203  17.292  0.00  0.00    +0.000 A 
ATOM      5  C   UNL     1       3.759   3.851  17.757  0.00  0.00    +0.000 A 
ATOM      6  C   UNL     1       3.628   4.755  18.827  0.00  0.00    +0.000 A 
ATOM      7  C   UNL     1       4.849   5.521  19.304  0.00  0.00    +0.000 C 
ATOM      8  C   UNL     1       6.159   4.853  18.872  0.00  0.00    +0.000 C 
ATOM      9  N   UNL     1       6.116   4.508  17.456  0.00  0.00    +0.000 N 
ATOM     10  C   UNL     1       6.813   5.286  16.522  0.00  0.00    +0.000 C 
ATOM     11  O   UNL     1       7.423   6.298  16.876  0.00  0.00    +0.000 OA
ATOM     12  C   UNL     1       5.077   3.554  17.095  0.00  0.00    +0.000 C 
ENDROOT
BRANCH  10  13
ATOM     13  C   UNL     1       6.766   4.879  15.128  0.00  0.00    +0.000 A 
ATOM     14  C   UNL     1       6.092   3.843  14.510  0.00  0.00    +0.000 A 
ATOM     15  C   UNL     1       6.459   3.872  13.142  0.00  0.00    +0.000 A 
ATOM     16  C   UNL     1       7.298   4.952  12.989  0.00  0.00    +0.000 A 
ATOM     17  C   UNL     1       8.030   5.528  11.842  0.00  0.00    +0.000 C 
ATOM     18  O   UNL     1       7.462   5.588  14.182  0.00  0.00    +0.000 OA
ENDBRANCH  10  13
BRANCH   1  19
ATOM     19  C   UNL     1       2.076   5.944  20.483  0.00  0.00    +0.000 C 
BRANCH  19  21
ATOM     20  C   UNL     1       1.412   8.184  20.767  0.00  0.00    +0.000 C 
ATOM     21  O   UNL     1       2.190   7.279  19.999  0.00  0.00    +0.000 OA
ENDBRANCH  19  21
ENDBRANCH   1  19
TORSDOF 3
ENDMDL
MODEL 9
REMARK VINA RESULT:      -6.6      2.129      6.855
REMARK  Name = 
REMARK  5 active torsions:
REMARK  status: ('A' for Active; 'I' for Inactive)
REMARK    1  A    between atoms: C_1  and  O_2
REMARK    2  A    between atoms: O_2  and  C_3
REMARK    3  A    between atoms: C_3  and  C_4
REMARK    4  A    between atoms: C_13  and  C_15
REMARK    5  A    between atoms: C_18  and  C_19
REMARK                            x       y       z     vdW  Elec       q    Type
REMARK                         _______ _______ _______ _____ _____    ______ ____
ROOT
ATOM      1  C   UNL     1       6.298   4.461  15.619  0.00  0.00    +0.000 A 
ATOM      2  C   UNL     1       7.202   5.516  15.496  0.00  0.00    +0.000 A 
ATOM      3  N   UNL     1       7.341   6.525  16.385  0.00  0.00    +0.000 NA
ATOM      4  C   UNL     1       6.521   6.487  17.452  0.00  0.00    +0.000 A 
ATOM      5  C   UNL     1       5.580   5.490  17.684  0.00  0.00    +0.000 A 
ATOM      6  C   UNL     1       5.471   4.439  16.755  0.00  0.00    +0.000 A 
ATOM      7  C   UNL     1       4.405   3.378  16.957  0.00  0.00    +0.000 C 
ATOM      8  C   UNL     1       3.904   3.328  18.404  0.00  0.00    +0.000 C 
ATOM      9  N   UNL     1       3.591   4.668  18.886  0.00  0.00    +0.000 N 
ATOM     10  C   UNL     1       2.257   5.084  18.988  0.00  0.00    +0.000 C 
ATOM     11  O   UNL     1       1.337   4.348  18.624  0.00  0.00    +0.000 OA
ATOM     12  C   UNL     1       4.725   5.581  18.918  0.00  0.00    +0.000 C 
ENDROOT
BRANCH  10  13
ATOM     13  C   UNL     1       1.998   6.417  19.507  0.00  0.00    +0.000 A 
ATOM     14  C   UNL     1       1.749   6.854  20.794  0.00  0.00    +0.000 A 
ATOM     15  C   UNL     1       1.502   8.247  20.715  0.00  0.00    +0.000 A 
ATOM     16  C   UNL     1       1.662   8.594  19.393  0.00  0.00    +0.000 A 
ATOM     17  C   UNL     1       1.541   9.861  18.644  0.00  0.00    +0.000 C 
ATOM     18  O   UNL     1       1.997   7.496  18.660  0.00  0.00    +0.000 OA
ENDBRANCH  10  13
BRANCH   1  19
ATOM     19  C   UNL     1       6.257   3.411  14.544  0.00  0.00    +0.000 C 
BRANCH  19  21
ATOM     20  C   UNL     1       5.953   3.271  12.213  0.00  0.00    +0.000 C 
ATOM     21  O   UNL     1       6.514   4.019  13.281  0.00  0.00    +0.000 OA
ENDBRANCH  19  21
ENDBRANCH   1  19
TORSDOF 3
ENDMDL
