MODEL 1
REMARK VINA RESULT:      -7.1      0.000      0.000
REMARK  Name = 
REMARK  11 active torsions:
REMARK  status: ('A' for Active; 'I' for Inactive)
REMARK    1  A    between atoms: C_1  and  C_2
REMARK    2  A    between atoms: C_6  and  C_7
REMARK    3  A    between atoms: C_7  and  C_8
REMARK    4  A    between atoms: C_7  and  C_9
REMARK    5  A    between atoms: C_7  and  C_10
REMARK    6  A    between atoms: C_10  and  N_11
REMARK    7  A    between atoms: C_12  and  C_14
REMARK    8  A    between atoms: C_14  and  C_15
REMARK    9  A    between atoms: C_15  and  S_16
REMARK   10  A    between atoms: S_16  and  C_17
REMARK   11  A    between atoms: N_21  and  C_22
REMARK                            x       y       z     vdW  Elec       q    Type
REMARK                         _______ _______ _______ _____ _____    ______ ____
ROOT
ATOM      1  N   UNL     1       4.522   4.781  18.148  0.00  0.00    +0.000 N 
ATOM      2  C   UNL     1       3.330   5.347  18.551  0.00  0.00    +0.000 C 
ATOM      3  O   UNL     1       2.434   5.659  17.762  0.00  0.00    +0.000 OA
ATOM      4  H   UNL     1       5.231   4.550  18.825  0.00  0.00    +0.000 HD
ENDROOT
BRANCH   1   5
ATOM      5  C   UNL     1       4.778   4.475  16.745  0.00  0.00    +0.000 C 
BRANCH   5   6
ATOM      6  C   UNL     1       5.762   5.447  16.015  0.00  0.00    +0.000 C 
ATOM      7  C   UNL     1       7.019   5.644  16.893  0.00  0.00    +0.000 C 
ATOM      8  C   UNL     1       5.050   6.814  15.872  0.00  0.00    +0.000 C 
BRANCH   6  14
ATOM      9  C   UNL     1       4.559   2.937  11.776  0.00  0.00    +0.000 C 
ATOM     10  C   UNL     1       5.579   3.716  12.550  0.00  0.00    +0.000 A 
ATOM     11  C   UNL     1       6.851   3.973  12.048  0.00  0.00    +0.000 A 
ATOM     12  C   UNL     1       7.769   4.692  12.811  0.00  0.00    +0.000 A 
ATOM     13  C   UNL     1       7.421   5.165  14.080  0.00  0.00    +0.000 A 
ATOM     14  C   UNL     1       6.145   4.932  14.611  0.00  0.00    +0.000 A 
ATOM     15  C   UNL     1       5.243   4.195  13.823  0.00  0.00    +0.000 A 
ENDBRANCH   6  14
ENDBRANCH   5   6
ENDBRANCH   1   5
BRANCH   2  16
ATOM     16  C   UNL     1       3.217   5.597  20.034  0.00  0.00    +0.000 C 
BRANCH  16  17
ATOM     17  C   UNL     1       1.836   5.169  20.543  0.00  0.00    +0.000 C 
BRANCH  17  18
ATOM     18  S   UNL     1       1.972   3.558  21.384  0.00  0.00    +0.000 S 
BRANCH  18  19
ATOM     19  C   UNL     1       2.925   2.633  20.278  0.00  0.00    +0.000 A 
ATOM     20  N   UNL     1       4.193   2.307  20.363  0.00  0.00    +0.000 NA
ATOM     21  N   UNL     1       4.468   1.566  19.233  0.00  0.00    +0.000 NA
ATOM     22  N   UNL     1       3.390   1.437  18.469  0.00  0.00    +0.000 NA
ATOM     23  N   UNL     1       2.420   2.106  19.119  0.00  0.00    +0.000 N 
ATOM     24  C   UNL     1       1.094   2.175  18.574  0.00  0.00    +0.000 C 
ENDBRANCH  18  19
ENDBRANCH  17  18
ENDBRANCH  16  17
ENDBRANCH   2  16
TORSDOF 7
ENDMDL
MODEL 2
REMARK VINA RESULT:      -7.0      3.610      7.292
REMARK  Name = 
REMARK  11 active torsions:
REMARK  status: ('A' for Active; 'I' for Inactive)
REMARK    1  A    between atoms: C_1  and  C_2
REMARK    2  A    between atoms: C_6  and  C_7
REMARK    3  A    between atoms: C_7  and  C_8
REMARK    4  A    between atoms: C_7  and  C_9
REMARK    5  A    between atoms: C_7  and  C_10
REMARK    6  A    between atoms: C_10  and  N_11
REMARK    7  A    between atoms: C_12  and  C_14
REMARK    8  A    between atoms: C_14  and  C_15
REMARK    9  A    between atoms: C_15  and  S_16
REMARK   10  A    between atoms: S_16  and  C_17
REMARK   11  A    between atoms: N_21  and  C_22
REMARK                            x       y       z     vdW  Elec       q    Type
REMARK                         _______ _______ _______ _____ _____    ______ ____
ROOT
ATOM      1  N   UNL     1       4.510   4.245  18.770  0.00  0.00    +0.000 N 
ATOM      2  C   UNL     1       5.755   4.824  18.911  0.00  0.00    +0.000 C 
ATOM      3  O   UNL     1       6.167   5.279  19.981  0.00  0.00    +0.000 OA
ATOM      4  H   UNL     1       4.210   3.894  17.876  0.00  0.00    +0.000 HD
ENDROOT
BRANCH   1   5
ATOM      5  C   UNL     1       3.610   4.100  19.909  0.00  0.00    +0.000 C 
BRANCH   5   6
ATOM      6  C   UNL     1       2.131   4.538  19.656  0.00  0.00    +0.000 C 
ATOM      7  C   UNL     1       1.239   3.974  20.786  0.00  0.00    +0.000 C 
ATOM      8  C   UNL     1       1.677   3.906  18.318  0.00  0.00    +0.000 C 
BRANCH   6  14
ATOM      9  C   UNL     1       0.805   8.972  21.730  0.00  0.00    +0.000 C 
ATOM     10  C   UNL     1       1.353   8.230  20.548  0.00  0.00    +0.000 A 
ATOM     11  C   UNL     1       1.722   8.879  19.374  0.00  0.00    +0.000 A 
ATOM     12  C   UNL     1       2.214   8.144  18.297  0.00  0.00    +0.000 A 
ATOM     13  C   UNL     1       2.347   6.756  18.386  0.00  0.00    +0.000 A 
ATOM     14  C   UNL     1       1.993   6.072  19.558  0.00  0.00    +0.000 A 
ATOM     15  C   UNL     1       1.489   6.839  20.625  0.00  0.00    +0.000 A 
ENDBRANCH   6  14
ENDBRANCH   5   6
ENDBRANCH   1   5
BRANCH   2  16
ATOM     16  C   UNL     1       6.567   4.896  17.642  0.00  0.00    +0.000 C 
BRANCH  16  17
ATOM     17  C   UNL     1       5.648   5.095  16.432  0.00  0.00    +0.000 C 
BRANCH  17  18
ATOM     18  S   UNL     1       5.895   3.728  15.251  0.00  0.00    +0.000 S 
BRANCH  18  19
ATOM     19  C   UNL     1       6.789   4.485  13.981  0.00  0.00    +0.000 A 
ATOM     20  N   UNL     1       7.642   5.478  14.059  0.00  0.00    +0.000 NA
ATOM     21  N   UNL     1       8.079   5.703  12.770  0.00  0.00    +0.000 NA
ATOM     22  N   UNL     1       7.508   4.862  11.917  0.00  0.00    +0.000 NA
ATOM     23  N   UNL     1       6.698   4.097  12.670  0.00  0.00    +0.000 N 
ATOM     24  C   UNL     1       5.911   3.059  12.068  0.00  0.00    +0.000 C 
ENDBRANCH  18  19
ENDBRANCH  17  18
ENDBRANCH  16  17
ENDBRANCH   2  16
TORSDOF 7
ENDMDL
MODEL 3
REMARK VINA RESULT:      -7.0      2.094      4.267
REMARK  Name = 
REMARK  11 active torsions:
REMARK  status: ('A' for Active; 'I' for Inactive)
REMARK    1  A    between atoms: C_1  and  C_2
REMARK    2  A    between atoms: C_6  and  C_7
REMARK    3  A    between atoms: C_7  and  C_8
REMARK    4  A    between atoms: C_7  and  C_9
REMARK    5  A    between atoms: C_7  and  C_10
REMARK    6  A    between atoms: C_10  and  N_11
REMARK    7  A    between atoms: C_12  and  C_14
REMARK    8  A    between atoms: C_14  and  C_15
REMARK    9  A    between atoms: C_15  and  S_16
REMARK   10  A    between atoms: S_16  and  C_17
REMARK   11  A    between atoms: N_21  and  C_22
REMARK                            x       y       z     vdW  Elec       q    Type
REMARK                         _______ _______ _______ _____ _____    ______ ____
ROOT
ATOM      1  N   UNL     1       3.940   4.517  16.834  0.00  0.00    +0.000 N 
ATOM      2  C   UNL     1       3.623   4.907  18.119  0.00  0.00    +0.000 C 
ATOM      3  O   UNL     1       4.457   4.975  19.026  0.00  0.00    +0.000 OA
ATOM      4  H   UNL     1       3.226   4.467  16.126  0.00  0.00    +0.000 HD
ENDROOT
BRANCH   1   5
ATOM      5  C   UNL     1       5.312   4.196  16.458  0.00  0.00    +0.000 C 
BRANCH   5   6
ATOM      6  C   UNL     1       6.166   5.401  15.944  0.00  0.00    +0.000 C 
ATOM      7  C   UNL     1       5.228   6.431  15.272  0.00  0.00    +0.000 C 
ATOM      8  C   UNL     1       7.141   4.860  14.870  0.00  0.00    +0.000 C 
BRANCH   6  14
ATOM      9  C   UNL     1       8.353   9.495  17.985  0.00  0.00    +0.000 C 
ATOM     10  C   UNL     1       8.050   8.030  18.081  0.00  0.00    +0.000 A 
ATOM     11  C   UNL     1       8.491   7.252  19.146  0.00  0.00    +0.000 A 
ATOM     12  C   UNL     1       8.196   5.891  19.184  0.00  0.00    +0.000 A 
ATOM     13  C   UNL     1       7.450   5.298  18.161  0.00  0.00    +0.000 A 
ATOM     14  C   UNL     1       6.981   6.055  17.078  0.00  0.00    +0.000 A 
ATOM     15  C   UNL     1       7.305   7.424  17.061  0.00  0.00    +0.000 A 
ENDBRANCH   6  14
ENDBRANCH   5   6
ENDBRANCH   1   5
BRANCH   2  16
ATOM     16  C   UNL     1       2.163   5.209  18.347  0.00  0.00    +0.000 C 
BRANCH  16  17
ATOM     17  C   UNL     1       1.290   4.105  17.744  0.00  0.00    +0.000 C 
BRANCH  17  18
ATOM     18  S   UNL     1       1.946   2.477  18.235  0.00  0.00    +0.000 S 
BRANCH  18  19
ATOM     19  C   UNL     1       1.937   2.570  19.960  0.00  0.00    +0.000 A 
ATOM     20  N   UNL     1       0.929   2.822  20.761  0.00  0.00    +0.000 NA
ATOM     21  N   UNL     1       1.443   2.781  22.040  0.00  0.00    +0.000 NA
ATOM     22  N   UNL     1       2.742   2.507  22.026  0.00  0.00    +0.000 NA
ATOM     23  N   UNL     1       3.057   2.375  20.725  0.00  0.00    +0.000 N 
ATOM     24  C   UNL     1       4.402   2.069  20.329  0.00  0.00    +0.000 C 
ENDBRANCH  18  19
ENDBRANCH  17  18
ENDBRANCH  16  17
ENDBRANCH   2  16
TORSDOF 7
ENDMDL
MODEL 4
REMARK VINA RESULT:      -7.0      2.431      3.628
REMARK  Name = 
REMARK  11 active torsions:
REMARK  status: ('A' for Active; 'I' for Inactive)
REMARK    1  A    between atoms: C_1  and  C_2
REMARK    2  A    between atoms: C_6  and  C_7
REMARK    3  A    between atoms: C_7  and  C_8
REMARK    4  A    between atoms: C_7  and  C_9
REMARK    5  A    between atoms: C_7  and  C_10
REMARK    6  A    between atoms: C_10  and  N_11
REMARK    7  A    between atoms: C_12  and  C_14
REMARK    8  A    between atoms: C_14  and  C_15
REMARK    9  A    between atoms: C_15  and  S_16
REMARK   10  A    between atoms: S_16  and  C_17
REMARK   11  A    between atoms: N_21  and  C_22
REMARK                            x       y       z     vdW  Elec       q    Type
REMARK                         _______ _______ _______ _____ _____    ______ ____
ROOT
ATOM      1  N   UNL     1       3.722   3.972  16.876  0.00  0.00    +0.000 N 
ATOM      2  C   UNL     1       3.075   3.459  17.982  0.00  0.00    +0.000 C 
ATOM      3  O   UNL     1       3.560   2.577  18.695  0.00  0.00    +0.000 OA
ATOM      4  H   UNL     1       3.285   4.685  16.316  0.00  0.00    +0.000 HD
ENDROOT
BRANCH   1   5
ATOM      5  C   UNL     1       5.059   3.523  16.506  0.00  0.00    +0.000 C 
BRANCH   5   6
ATOM      6  C   UNL     1       6.039   4.647  16.038  0.00  0.00    +0.000 C 
ATOM      7  C   UNL     1       7.305   4.615  16.926  0.00  0.00    +0.000 C 
ATOM      8  C   UNL     1       5.330   6.006  16.253  0.00  0.00    +0.000 C 
BRANCH   6  14
ATOM      9  C   UNL     1       5.258   2.521  11.501  0.00  0.00    +0.000 C 
ATOM     10  C   UNL     1       6.045   3.482  12.340  0.00  0.00    +0.000 A 
ATOM     11  C   UNL     1       7.096   4.230  11.818  0.00  0.00    +0.000 A 
ATOM     12  C   UNL     1       7.806   5.101  12.642  0.00  0.00    +0.000 A 
ATOM     13  C   UNL     1       7.468   5.237  13.991  0.00  0.00    +0.000 A 
ATOM     14  C   UNL     1       6.408   4.505  14.546  0.00  0.00    +0.000 A 
ATOM     15  C   UNL     1       5.717   3.626  13.694  0.00  0.00    +0.000 A 
ENDBRANCH   6  14
ENDBRANCH   5   6
ENDBRANCH   1   5
BRANCH   2  16
ATOM     16  C   UNL     1       1.701   4.030  18.233  0.00  0.00    +0.000 C 
BRANCH  16  17
ATOM     17  C   UNL     1       1.593   4.543  19.673  0.00  0.00    +0.000 C 
BRANCH  17  18
ATOM     18  S   UNL     1       2.947   5.718  20.001  0.00  0.00    +0.000 S 
BRANCH  18  19
ATOM     19  C   UNL     1       2.401   7.153  19.209  0.00  0.00    +0.000 A 
ATOM     20  N   UNL     1       2.557   7.506  17.955  0.00  0.00    +0.000 NA
ATOM     21  N   UNL     1       1.938   8.732  17.829  0.00  0.00    +0.000 NA
ATOM     22  N   UNL     1       1.410   9.124  18.981  0.00  0.00    +0.000 NA
ATOM     23  N   UNL     1       1.699   8.139  19.850  0.00  0.00    +0.000 N 
ATOM     24  C   UNL     1       1.271   8.227  21.218  0.00  0.00    +0.000 C 
ENDBRANCH  18  19
ENDBRANCH  17  18
ENDBRANCH  16  17
ENDBRANCH   2  16
TORSDOF 7
ENDMDL
MODEL 5
REMARK VINA RESULT:      -6.9      4.995      7.324
REMARK  Name = 
REMARK  11 active torsions:
REMARK  status: ('A' for Active; 'I' for Inactive)
REMARK    1  A    between atoms: C_1  and  C_2
REMARK    2  A    between atoms: C_6  and  C_7
REMARK    3  A    between atoms: C_7  and  C_8
REMARK    4  A    between atoms: C_7  and  C_9
REMARK    5  A    between atoms: C_7  and  C_10
REMARK    6  A    between atoms: C_10  and  N_11
REMARK    7  A    between atoms: C_12  and  C_14
REMARK    8  A    between atoms: C_14  and  C_15
REMARK    9  A    between atoms: C_15  and  S_16
REMARK   10  A    between atoms: S_16  and  C_17
REMARK   11  A    between atoms: N_21  and  C_22
REMARK                            x       y       z     vdW  Elec       q    Type
REMARK                         _______ _______ _______ _____ _____    ______ ____
ROOT
ATOM      1  N   UNL     1       2.838   7.351  18.577  0.00  0.00    +0.000 N 
ATOM      2  C   UNL     1       2.127   8.490  18.258  0.00  0.00    +0.000 C 
ATOM      3  O   UNL     1       2.296   9.116  17.209  0.00  0.00    +0.000 OA
ATOM      4  H   UNL     1       2.674   6.875  19.449  0.00  0.00    +0.000 HD
ENDROOT
BRANCH   1   5
ATOM      5  C   UNL     1       3.818   6.788  17.655  0.00  0.00    +0.000 C 
BRANCH   5   6
ATOM      6  C   UNL     1       4.244   5.313  17.946  0.00  0.00    +0.000 C 
ATOM      7  C   UNL     1       5.460   5.319  18.902  0.00  0.00    +0.000 C 
ATOM      8  C   UNL     1       4.686   4.679  16.605  0.00  0.00    +0.000 C 
BRANCH   6  14
ATOM      9  C   UNL     1       2.047   3.018  21.899  0.00  0.00    +0.000 C 
ATOM     10  C   UNL     1       2.006   3.363  20.441  0.00  0.00    +0.000 A 
ATOM     11  C   UNL     1       0.969   2.948  19.611  0.00  0.00    +0.000 A 
ATOM     12  C   UNL     1       0.983   3.282  18.258  0.00  0.00    +0.000 A 
ATOM     13  C   UNL     1       2.028   4.040  17.725  0.00  0.00    +0.000 A 
ATOM     14  C   UNL     1       3.084   4.483  18.535  0.00  0.00    +0.000 A 
ATOM     15  C   UNL     1       3.050   4.121  19.894  0.00  0.00    +0.000 A 
ENDBRANCH   6  14
ENDBRANCH   5   6
ENDBRANCH   1   5
BRANCH   2  16
ATOM     16  C   UNL     1       1.148   8.941  19.314  0.00  0.00    +0.000 C 
BRANCH  16  17
ATOM     17  C   UNL     1       0.525  10.285  18.923  0.00  0.00    +0.000 C 
BRANCH  17  18
ATOM     18  S   UNL     1       1.018  11.557  20.131  0.00  0.00    +0.000 S 
BRANCH  18  19
ATOM     19  C   UNL     1       0.461  10.893  21.627  0.00  0.00    +0.000 A 
ATOM     20  N   UNL     1       1.071  10.049  22.425  0.00  0.00    +0.000 NA
ATOM     21  N   UNL     1       0.207   9.837  23.480  0.00  0.00    +0.000 NA
ATOM     22  N   UNL     1      -0.910  10.539  23.334  0.00  0.00    +0.000 NA
ATOM     23  N   UNL     1      -0.756  11.202  22.173  0.00  0.00    +0.000 N 
ATOM     24  C   UNL     1      -1.788  12.076  21.693  0.00  0.00    +0.000 C 
ENDBRANCH  18  19
ENDBRANCH  17  18
ENDBRANCH  16  17
ENDBRANCH   2  16
TORSDOF 7
ENDMDL
MODEL 6
REMARK VINA RESULT:      -6.9      2.659      5.062
REMARK  Name = 
REMARK  11 active torsions:
REMARK  status: ('A' for Active; 'I' for Inactive)
REMARK    1  A    between atoms: C_1  and  C_2
REMARK    2  A    between atoms: C_6  and  C_7
REMARK    3  A    between atoms: C_7  and  C_8
REMARK    4  A    between atoms: C_7  and  C_9
REMARK    5  A    between atoms: C_7  and  C_10
REMARK    6  A    between atoms: C_10  and  N_11
REMARK    7  A    between atoms: C_12  and  C_14
REMARK    8  A    between atoms: C_14  and  C_15
REMARK    9  A    between atoms: C_15  and  S_16
REMARK   10  A    between atoms: S_16  and  C_17
REMARK   11  A    between atoms: N_21  and  C_22
REMARK                            x       y       z     vdW  Elec       q    Type
REMARK                         _______ _______ _______ _____ _____    ______ ____
ROOT
ATOM      1  N   UNL     1       3.731   4.483  17.048  0.00  0.00    +0.000 N 
ATOM      2  C   UNL     1       2.725   3.651  17.495  0.00  0.00    +0.000 C 
ATOM      3  O   UNL     1       2.775   2.422  17.396  0.00  0.00    +0.000 OA
ATOM      4  H   UNL     1       3.645   5.482  17.142  0.00  0.00    +0.000 HD
ENDROOT
BRANCH   1   5
ATOM      5  C   UNL     1       4.953   3.945  16.461  0.00  0.00    +0.000 C 
BRANCH   5   6
ATOM      6  C   UNL     1       5.950   5.008  15.895  0.00  0.00    +0.000 C 
ATOM      7  C   UNL     1       5.156   6.069  15.098  0.00  0.00    +0.000 C 
ATOM      8  C   UNL     1       6.905   4.281  14.918  0.00  0.00    +0.000 C 
BRANCH   6  14
ATOM      9  C   UNL     1       8.145   9.119  17.893  0.00  0.00    +0.000 C 
ATOM     10  C   UNL     1       7.856   7.652  17.994  0.00  0.00    +0.000 A 
ATOM     11  C   UNL     1       8.326   6.877  19.050  0.00  0.00    +0.000 A 
ATOM     12  C   UNL     1       8.043   5.513  19.093  0.00  0.00    +0.000 A 
ATOM     13  C   UNL     1       7.281   4.914  18.086  0.00  0.00    +0.000 A 
ATOM     14  C   UNL     1       6.783   5.669  17.013  0.00  0.00    +0.000 A 
ATOM     15  C   UNL     1       7.096   7.040  16.990  0.00  0.00    +0.000 A 
ENDBRANCH   6  14
ENDBRANCH   5   6
ENDBRANCH   1   5
BRANCH   2  16
ATOM     16  C   UNL     1       1.530   4.360  18.082  0.00  0.00    +0.000 C 
BRANCH  16  17
ATOM     17  C   UNL     1       1.717   4.563  19.588  0.00  0.00    +0.000 C 
BRANCH  17  18
ATOM     18  S   UNL     1       3.117   5.694  19.878  0.00  0.00    +0.000 S 
BRANCH  18  19
ATOM     19  C   UNL     1       2.633   7.120  19.030  0.00  0.00    +0.000 A 
ATOM     20  N   UNL     1       2.936   7.488  17.808  0.00  0.00    +0.000 NA
ATOM     21  N   UNL     1       2.300   8.696  17.609  0.00  0.00    +0.000 NA
ATOM     22  N   UNL     1       1.617   9.062  18.687  0.00  0.00    +0.000 NA
ATOM     23  N   UNL     1       1.823   8.077  19.581  0.00  0.00    +0.000 N 
ATOM     24  C   UNL     1       1.222   8.140  20.883  0.00  0.00    +0.000 C 
ENDBRANCH  18  19
ENDBRANCH  17  18
ENDBRANCH  16  17
ENDBRANCH   2  16
TORSDOF 7
ENDMDL
MODEL 7
REMARK VINA RESULT:      -6.7      1.016      1.735
REMARK  Name = 
REMARK  11 active torsions:
REMARK  status: ('A' for Active; 'I' for Inactive)
REMARK    1  A    between atoms: C_1  and  C_2
REMARK    2  A    between atoms: C_6  and  C_7
REMARK    3  A    between atoms: C_7  and  C_8
REMARK    4  A    between atoms: C_7  and  C_9
REMARK    5  A    between atoms: C_7  and  C_10
REMARK    6  A    between atoms: C_10  and  N_11
REMARK    7  A    between atoms: C_12  and  C_14
REMARK    8  A    between atoms: C_14  and  C_15
REMARK    9  A    between atoms: C_15  and  S_16
REMARK   10  A    between atoms: S_16  and  C_17
REMARK   11  A    between atoms: N_21  and  C_22
REMARK                            x       y       z     vdW  Elec       q    Type
REMARK                         _______ _______ _______ _____ _____    ______ ____
ROOT
ATOM      1  N   UNL     1       4.804   6.229  17.676  0.00  0.00    +0.000 N 
ATOM      2  C   UNL     1       3.567   5.964  18.225  0.00  0.00    +0.000 C 
ATOM      3  O   UNL     1       2.628   5.500  17.574  0.00  0.00    +0.000 OA
ATOM      4  H   UNL     1       5.541   6.616  18.242  0.00  0.00    +0.000 HD
ENDROOT
BRANCH   1   5
ATOM      5  C   UNL     1       5.090   5.932  16.277  0.00  0.00    +0.000 C 
BRANCH   5   6
ATOM      6  C   UNL     1       5.904   4.621  16.022  0.00  0.00    +0.000 C 
ATOM      7  C   UNL     1       5.055   3.407  16.468  0.00  0.00    +0.000 C 
ATOM      8  C   UNL     1       7.172   4.677  16.908  0.00  0.00    +0.000 C 
BRANCH   6  14
ATOM      9  C   UNL     1       5.326   2.473  11.465  0.00  0.00    +0.000 C 
ATOM     10  C   UNL     1       6.064   3.450  12.330  0.00  0.00    +0.000 A 
ATOM     11  C   UNL     1       7.119   4.217  11.845  0.00  0.00    +0.000 A 
ATOM     12  C   UNL     1       7.783   5.102  12.691  0.00  0.00    +0.000 A 
ATOM     13  C   UNL     1       7.394   5.234  14.027  0.00  0.00    +0.000 A 
ATOM     14  C   UNL     1       6.329   4.483  14.546  0.00  0.00    +0.000 A 
ATOM     15  C   UNL     1       5.685   3.590  13.671  0.00  0.00    +0.000 A 
ENDBRANCH   6  14
ENDBRANCH   5   6
ENDBRANCH   1   5
BRANCH   2  16
ATOM     16  C   UNL     1       3.431   6.323  19.684  0.00  0.00    +0.000 C 
BRANCH  16  17
ATOM     17  C   UNL     1       2.020   6.001  20.184  0.00  0.00    +0.000 C 
BRANCH  17  18
ATOM     18  S   UNL     1       2.063   4.481  21.188  0.00  0.00    +0.000 S 
BRANCH  18  19
ATOM     19  C   UNL     1       1.913   3.237  19.998  0.00  0.00    +0.000 A 
ATOM     20  N   UNL     1       0.835   2.834  19.367  0.00  0.00    +0.000 NA
ATOM     21  N   UNL     1       1.248   1.823  18.525  0.00  0.00    +0.000 NA
ATOM     22  N   UNL     1       2.553   1.611  18.633  0.00  0.00    +0.000 NA
ATOM     23  N   UNL     1       2.975   2.494  19.556  0.00  0.00    +0.000 N 
ATOM     24  C   UNL     1       4.360   2.551  19.930  0.00  0.00    +0.000 C 
ENDBRANCH  18  19
ENDBRANCH  17  18
ENDBRANCH  16  17
ENDBRANCH   2  16
TORSDOF 7
ENDMDL
MODEL 8
REMARK VINA RESULT:      -6.6      5.556      8.772
REMARK  Name = 
REMARK  11 active torsions:
REMARK  status: ('A' for Active; 'I' for Inactive)
REMARK    1  A    between atoms: C_1  and  C_2
REMARK    2  A    between atoms: C_6  and  C_7
REMARK    3  A    between atoms: C_7  and  C_8
REMARK    4  A    between atoms: C_7  and  C_9
REMARK    5  A    between atoms: C_7  and  C_10
REMARK    6  A    between atoms: C_10  and  N_11
REMARK    7  A    between atoms: C_12  and  C_14
REMARK    8  A    between atoms: C_14  and  C_15
REMARK    9  A    between atoms: C_15  and  S_16
REMARK   10  A    between atoms: S_16  and  C_17
REMARK   11  A    between atoms: N_21  and  C_22
REMARK                            x       y       z     vdW  Elec       q    Type
REMARK                         _______ _______ _______ _____ _____    ______ ____
ROOT
ATOM      1  N   UNL     1       6.112   6.571  18.182  0.00  0.00    +0.000 N 
ATOM      2  C   UNL     1       7.278   6.950  17.547  0.00  0.00    +0.000 C 
ATOM      3  O   UNL     1       7.525   6.668  16.372  0.00  0.00    +0.000 OA
ATOM      4  H   UNL     1       5.954   6.815  19.146  0.00  0.00    +0.000 HD
ENDROOT
BRANCH   1   5
ATOM      5  C   UNL     1       5.069   5.839  17.473  0.00  0.00    +0.000 C 
BRANCH   5   6
ATOM      6  C   UNL     1       3.774   5.547  18.300  0.00  0.00    +0.000 C 
ATOM      7  C   UNL     1       4.169   4.856  19.626  0.00  0.00    +0.000 C 
ATOM      8  C   UNL     1       2.906   4.562  17.479  0.00  0.00    +0.000 C 
BRANCH   6  14
ATOM      9  C   UNL     1       0.946   8.388  21.405  0.00  0.00    +0.000 C 
ATOM     10  C   UNL     1       1.584   8.219  20.060  0.00  0.00    +0.000 A 
ATOM     11  C   UNL     1       1.452   9.170  19.054  0.00  0.00    +0.000 A 
ATOM     12  C   UNL     1       2.053   8.962  17.814  0.00  0.00    +0.000 A 
ATOM     13  C   UNL     1       2.797   7.804  17.572  0.00  0.00    +0.000 A 
ATOM     14  C   UNL     1       2.960   6.830  18.567  0.00  0.00    +0.000 A 
ATOM     15  C   UNL     1       2.332   7.062  19.805  0.00  0.00    +0.000 A 
ENDBRANCH   6  14
ENDBRANCH   5   6
ENDBRANCH   1   5
BRANCH   2  16
ATOM     16  C   UNL     1       8.254   7.705  18.415  0.00  0.00    +0.000 C 
BRANCH  16  17
ATOM     17  C   UNL     1       8.388   9.152  17.931  0.00  0.00    +0.000 C 
BRANCH  17  18
ATOM     18  S   UNL     1       9.069  10.180  19.273  0.00  0.00    +0.000 S 
BRANCH  18  19
ATOM     19  C   UNL     1      10.038  11.326  18.416  0.00  0.00    +0.000 A 
ATOM     20  N   UNL     1      11.346  11.390  18.330  0.00  0.00    +0.000 NA
ATOM     21  N   UNL     1      11.618  12.481  17.531  0.00  0.00    +0.000 NA
ATOM     22  N   UNL     1      10.500  13.075  17.132  0.00  0.00    +0.000 NA
ATOM     23  N   UNL     1       9.506  12.355  17.686  0.00  0.00    +0.000 N 
ATOM     24  C   UNL     1       8.135  12.715  17.461  0.00  0.00    +0.000 C 
ENDBRANCH  18  19
ENDBRANCH  17  18
ENDBRANCH  16  17
ENDBRANCH   2  16
TORSDOF 7
ENDMDL
MODEL 9
REMARK VINA RESULT:      -6.6      5.280      7.854
REMARK  Name = 
REMARK  11 active torsions:
REMARK  status: ('A' for Active; 'I' for Inactive)
REMARK    1  A    between atoms: C_1  and  C_2
REMARK    2  A    between atoms: C_6  and  C_7
REMARK    3  A    between atoms: C_7  and  C_8
REMARK    4  A    between atoms: C_7  and  C_9
REMARK    5  A    between atoms: C_7  and  C_10
REMARK    6  A    between atoms: C_10  and  N_11
REMARK    7  A    between atoms: C_12  and  C_14
REMARK    8  A    between atoms: C_14  and  C_15
REMARK    9  A    between atoms: C_15  and  S_16
REMARK   10  A    between atoms: S_16  and  C_17
REMARK   11  A    between atoms: N_21  and  C_22
REMARK                            x       y       z     vdW  Elec       q    Type
REMARK                         _______ _______ _______ _____ _____    ______ ____
ROOT
ATOM      1  N   UNL     1       1.547   8.689  19.450  0.00  0.00    +0.000 N 
ATOM      2  C   UNL     1       2.323   7.806  18.728  0.00  0.00    +0.000 C 
ATOM      3  O   UNL     1       2.683   8.020  17.568  0.00  0.00    +0.000 OA
ATOM      4  H   UNL     1       1.268   8.470  20.393  0.00  0.00    +0.000 HD
ENDROOT
BRANCH   1   5
ATOM      5  C   UNL     1       1.135   9.970  18.886  0.00  0.00    +0.000 C 
BRANCH   5   6
ATOM      6  C   UNL     1       0.061  10.752  19.711  0.00  0.00    +0.000 C 
ATOM      7  C   UNL     1       0.638  12.130  20.109  0.00  0.00    +0.000 C 
ATOM      8  C   UNL     1      -0.212   9.948  21.005  0.00  0.00    +0.000 C 
BRANCH   6  14
ATOM      9  C   UNL     1      -2.812   9.690  15.670  0.00  0.00    +0.000 C 
ATOM     10  C   UNL     1      -2.666  10.409  16.977  0.00  0.00    +0.000 A 
ATOM     11  C   UNL     1      -3.674  11.218  17.493  0.00  0.00    +0.000 A 
ATOM     12  C   UNL     1      -3.486  11.877  18.706  0.00  0.00    +0.000 A 
ATOM     13  C   UNL     1      -2.293  11.727  19.418  0.00  0.00    +0.000 A 
ATOM     14  C   UNL     1      -1.261  10.911  18.931  0.00  0.00    +0.000 A 
ATOM     15  C   UNL     1      -1.474  10.268  17.698  0.00  0.00    +0.000 A 
ENDBRANCH   6  14
ENDBRANCH   5   6
ENDBRANCH   1   5
BRANCH   2  16
ATOM     16  C   UNL     1       2.669   6.528  19.452  0.00  0.00    +0.000 C 
BRANCH  16  17
ATOM     17  C   UNL     1       3.237   5.497  18.472  0.00  0.00    +0.000 C 
BRANCH  17  18
ATOM     18  S   UNL     1       2.104   4.073  18.366  0.00  0.00    +0.000 S 
BRANCH  18  19
ATOM     19  C   UNL     1       2.102   3.471  19.986  0.00  0.00    +0.000 A 
ATOM     20  N   UNL     1       1.171   3.590  20.902  0.00  0.00    +0.000 NA
ATOM     21  N   UNL     1       1.652   2.934  22.016  0.00  0.00    +0.000 NA
ATOM     22  N   UNL     1       2.854   2.420  21.789  0.00  0.00    +0.000 NA
ATOM     23  N   UNL     1       3.141   2.755  20.517  0.00  0.00    +0.000 N 
ATOM     24  C   UNL     1       4.385   2.353  19.923  0.00  0.00    +0.000 C 
ENDBRANCH  18  19
ENDBRANCH  17  18
ENDBRANCH  16  17
ENDBRANCH   2  16
TORSDOF 7
ENDMDL
