MODEL 1
REMARK VINA RESULT:      -9.0      0.000      0.000
REMARK  Name = 
REMARK  9 active torsions:
REMARK  status: ('A' for Active; 'I' for Inactive)
REMARK    1  A    between atoms: C_1  and  C_2
REMARK    2  A    between atoms: C_4  and  C_5
REMARK    3  A    between atoms: C_6  and  C_7
REMARK    4  A    between atoms: N_8  and  N_9
REMARK    5  A    between atoms: C_10  and  C_12
REMARK    6  A    between atoms: C_22  and  C_23
REMARK    7  A    between atoms: C_23  and  N_24
REMARK    8  A    between atoms: C_27  and  C_28
REMARK    9  A    between atoms: C_31  and  C_32
REMARK                            x       y       z     vdW  Elec       q    Type
REMARK                         _______ _______ _______ _____ _____    ______ ____
ROOT
ATOM      1  C   UNL     1       3.446   7.485  17.894  0.00  0.00    +0.000 A 
ATOM      2  N   UNL     1       4.008   8.079  16.772  0.00  0.00    +0.000 NA
ATOM      3  N   UNL     1       5.044   7.359  16.359  0.00  0.00    +0.000 NA
ATOM      4  N   UNL     1       5.299   6.403  17.283  0.00  0.00    +0.000 N 
ATOM      5  C   UNL     1       6.409   5.509  17.189  0.00  0.00    +0.000 A 
ATOM      6  N   UNL     1       6.894   4.929  18.292  0.00  0.00    +0.000 NA
ATOM      7  O   UNL     1       7.866   4.051  17.823  0.00  0.00    +0.000 OA
ATOM      8  N   UNL     1       7.967   4.106  16.439  0.00  0.00    +0.000 NA
ATOM      9  C   UNL     1       7.076   5.021  16.049  0.00  0.00    +0.000 A 
ATOM     10  N   UNL     1       6.821   5.284  14.756  0.00  0.00    +0.000 N 
ATOM     11  C   UNL     1       4.225   6.378  18.192  0.00  0.00    +0.000 A 
ATOM     12  H   UNL     1       7.388   4.845  14.037  0.00  0.00    +0.000 HD
ATOM     13  H   UNL     1       6.264   6.076  14.446  0.00  0.00    +0.000 HD
ENDROOT
BRANCH   1  15
ATOM     14  N   UNL     1       1.937   8.030  19.863  0.00  0.00    +0.000 N 
ATOM     15  C   UNL     1       2.206   8.074  18.468  0.00  0.00    +0.000 C 
ATOM     16  O   UNL     1       1.398   8.574  17.698  0.00  0.00    +0.000 OA
ATOM     17  H   UNL     1       2.533   7.542  20.521  0.00  0.00    +0.000 HD
BRANCH  14  19
ATOM     18  C   UNL     1       0.918  10.003  20.727  0.00  0.00    +0.000 C 
ATOM     19  N   UNL     1       0.836   8.776  20.295  0.00  0.00    +0.000 NA
BRANCH  18  25
ATOM     20  C   UNL     1      -3.659  13.435  22.186  0.00  0.00    +0.000 C 
ATOM     21  C   UNL     1      -2.541  12.508  21.782  0.00  0.00    +0.000 A 
ATOM     22  C   UNL     1      -2.045  12.482  20.484  0.00  0.00    +0.000 A 
ATOM     23  C   UNL     1      -0.966  11.641  20.109  0.00  0.00    +0.000 A 
ATOM     24  C   UNL     1      -0.560  11.674  18.656  0.00  0.00    +0.000 C 
ATOM     25  C   UNL     1      -0.343  10.801  21.071  0.00  0.00    +0.000 A 
ATOM     26  C   UNL     1      -0.894  10.775  22.378  0.00  0.00    +0.000 A 
ATOM     27  C   UNL     1      -0.419   9.911  23.509  0.00  0.00    +0.000 C 
ATOM     28  C   UNL     1      -1.976  11.637  22.711  0.00  0.00    +0.000 A 
ENDBRANCH  18  25
ENDBRANCH  14  19
ENDBRANCH   1  15
BRANCH  11  29
ATOM     29  C   UNL     1       4.002   5.222  19.082  0.00  0.00    +0.000 C 
BRANCH  29  30
ATOM     30  N   UNL     1       3.516   4.039  18.340  0.00  0.00    +0.000 NA
ATOM     31  C   UNL     1       2.040   4.092  18.276  0.00  0.00    +0.000 C 
ATOM     32  C   UNL     1       1.318   3.854  19.621  0.00  0.00    +0.000 C 
ATOM     33  C   UNL     1       1.867   2.672  20.443  0.00  0.00    +0.000 C 
ATOM     34  C   UNL     1       1.496   2.775  21.928  0.00  0.00    +0.000 C 
ATOM     35  C   UNL     1       3.381   2.509  20.341  0.00  0.00    +0.000 C 
ATOM     36  C   UNL     1       3.894   2.738  18.931  0.00  0.00    +0.000 C 
ENDBRANCH  29  30
ENDBRANCH  11  29
TORSDOF 5
ENDMDL
MODEL 2
REMARK VINA RESULT:      -8.8      1.545      2.004
REMARK  Name = 
REMARK  9 active torsions:
REMARK  status: ('A' for Active; 'I' for Inactive)
REMARK    1  A    between atoms: C_1  and  C_2
REMARK    2  A    between atoms: C_4  and  C_5
REMARK    3  A    between atoms: C_6  and  C_7
REMARK    4  A    between atoms: N_8  and  N_9
REMARK    5  A    between atoms: C_10  and  C_12
REMARK    6  A    between atoms: C_22  and  C_23
REMARK    7  A    between atoms: C_23  and  N_24
REMARK    8  A    between atoms: C_27  and  C_28
REMARK    9  A    between atoms: C_31  and  C_32
REMARK                            x       y       z     vdW  Elec       q    Type
REMARK                         _______ _______ _______ _____ _____    ______ ____
ROOT
ATOM      1  C   UNL     1       3.421   7.584  17.857  0.00  0.00    +0.000 A 
ATOM      2  N   UNL     1       4.083   8.160  16.782  0.00  0.00    +0.000 NA
ATOM      3  N   UNL     1       5.154   7.436  16.480  0.00  0.00    +0.000 NA
ATOM      4  N   UNL     1       5.324   6.496  17.441  0.00  0.00    +0.000 N 
ATOM      5  C   UNL     1       6.439   5.605  17.466  0.00  0.00    +0.000 A 
ATOM      6  N   UNL     1       6.820   5.045  18.619  0.00  0.00    +0.000 NA
ATOM      7  O   UNL     1       7.833   4.163  18.259  0.00  0.00    +0.000 OA
ATOM      8  N   UNL     1       8.062   4.194  16.889  0.00  0.00    +0.000 NA
ATOM      9  C   UNL     1       7.210   5.099  16.402  0.00  0.00    +0.000 A 
ATOM     10  N   UNL     1       7.076   5.339  15.087  0.00  0.00    +0.000 N 
ATOM     11  C   UNL     1       4.170   6.484  18.247  0.00  0.00    +0.000 A 
ATOM     12  H   UNL     1       7.708   4.889  14.430  0.00  0.00    +0.000 HD
ATOM     13  H   UNL     1       6.548   6.123  14.712  0.00  0.00    +0.000 HD
ENDROOT
BRANCH   1  15
ATOM     14  N   UNL     1       1.565   9.307  17.652  0.00  0.00    +0.000 N 
ATOM     15  C   UNL     1       2.131   8.178  18.304  0.00  0.00    +0.000 C 
ATOM     16  O   UNL     1       1.578   7.684  19.277  0.00  0.00    +0.000 OA
ATOM     17  H   UNL     1       2.038   9.802  16.905  0.00  0.00    +0.000 HD
BRANCH  14  19
ATOM     18  C   UNL     1      -0.175  10.876  18.080  0.00  0.00    +0.000 C 
ATOM     19  N   UNL     1       0.269   9.652  18.047  0.00  0.00    +0.000 NA
BRANCH  18  25
ATOM     20  C   UNL     1      -5.775  12.427  19.124  0.00  0.00    +0.000 C 
ATOM     21  C   UNL     1      -4.362  11.960  18.885  0.00  0.00    +0.000 A 
ATOM     22  C   UNL     1      -4.019  11.215  17.763  0.00  0.00    +0.000 A 
ATOM     23  C   UNL     1      -2.683  10.809  17.513  0.00  0.00    +0.000 A 
ATOM     24  C   UNL     1      -2.456   9.961  16.285  0.00  0.00    +0.000 C 
ATOM     25  C   UNL     1      -1.641  11.171  18.409  0.00  0.00    +0.000 A 
ATOM     26  C   UNL     1      -2.004  11.871  19.590  0.00  0.00    +0.000 A 
ATOM     27  C   UNL     1      -1.062  12.284  20.683  0.00  0.00    +0.000 C 
ATOM     28  C   UNL     1      -3.355  12.261  19.799  0.00  0.00    +0.000 A 
ENDBRANCH  18  25
ENDBRANCH  14  19
ENDBRANCH   1  15
BRANCH  11  29
ATOM     29  C   UNL     1       3.868   5.343  19.132  0.00  0.00    +0.000 C 
BRANCH  29  30
ATOM     30  N   UNL     1       3.454   4.146  18.369  0.00  0.00    +0.000 NA
ATOM     31  C   UNL     1       1.979   4.129  18.275  0.00  0.00    +0.000 C 
ATOM     32  C   UNL     1       1.242   3.843  19.603  0.00  0.00    +0.000 C 
ATOM     33  C   UNL     1       1.829   2.681  20.425  0.00  0.00    +0.000 C 
ATOM     34  C   UNL     1       1.424   2.750  21.903  0.00  0.00    +0.000 C 
ATOM     35  C   UNL     1       3.351   2.591  20.353  0.00  0.00    +0.000 C 
ATOM     36  C   UNL     1       3.881   2.858  18.955  0.00  0.00    +0.000 C 
ENDBRANCH  29  30
ENDBRANCH  11  29
TORSDOF 5
ENDMDL
MODEL 3
REMARK VINA RESULT:      -8.8      0.897      1.110
REMARK  Name = 
REMARK  9 active torsions:
REMARK  status: ('A' for Active; 'I' for Inactive)
REMARK    1  A    between atoms: C_1  and  C_2
REMARK    2  A    between atoms: C_4  and  C_5
REMARK    3  A    between atoms: C_6  and  C_7
REMARK    4  A    between atoms: N_8  and  N_9
REMARK    5  A    between atoms: C_10  and  C_12
REMARK    6  A    between atoms: C_22  and  C_23
REMARK    7  A    between atoms: C_23  and  N_24
REMARK    8  A    between atoms: C_27  and  C_28
REMARK    9  A    between atoms: C_31  and  C_32
REMARK                            x       y       z     vdW  Elec       q    Type
REMARK                         _______ _______ _______ _____ _____    ______ ____
ROOT
ATOM      1  C   UNL     1       3.347   7.545  17.876  0.00  0.00    +0.000 A 
ATOM      2  N   UNL     1       4.017   8.145  16.819  0.00  0.00    +0.000 NA
ATOM      3  N   UNL     1       5.106   7.443  16.527  0.00  0.00    +0.000 NA
ATOM      4  N   UNL     1       5.276   6.497  17.481  0.00  0.00    +0.000 N 
ATOM      5  C   UNL     1       6.407   5.625  17.515  0.00  0.00    +0.000 A 
ATOM      6  N   UNL     1       6.779   5.060  18.668  0.00  0.00    +0.000 NA
ATOM      7  O   UNL     1       7.814   4.200  18.316  0.00  0.00    +0.000 OA
ATOM      8  N   UNL     1       8.065   4.251  16.951  0.00  0.00    +0.000 NA
ATOM      9  C   UNL     1       7.205   5.145  16.459  0.00  0.00    +0.000 A 
ATOM     10  N   UNL     1       7.089   5.397  15.144  0.00  0.00    +0.000 N 
ATOM     11  C   UNL     1       4.110   6.455  18.266  0.00  0.00    +0.000 A 
ATOM     12  H   UNL     1       7.739   4.966  14.494  0.00  0.00    +0.000 HD
ATOM     13  H   UNL     1       6.553   6.176  14.769  0.00  0.00    +0.000 HD
ENDROOT
BRANCH   1  15
ATOM     14  N   UNL     1       1.788   8.461  19.662  0.00  0.00    +0.000 N 
ATOM     15  C   UNL     1       2.039   8.111  18.307  0.00  0.00    +0.000 C 
ATOM     16  O   UNL     1       1.163   8.240  17.463  0.00  0.00    +0.000 OA
ATOM     17  H   UNL     1       2.452   8.281  20.406  0.00  0.00    +0.000 HD
BRANCH  14  19
ATOM     18  C   UNL     1       0.402  10.396  19.571  0.00  0.00    +0.000 C 
ATOM     19  N   UNL     1       0.596   9.150  19.901  0.00  0.00    +0.000 NA
BRANCH  18  25
ATOM     20  C   UNL     1      -4.694  13.328  20.111  0.00  0.00    +0.000 C 
ATOM     21  C   UNL     1      -3.431  12.513  19.990  0.00  0.00    +0.000 A 
ATOM     22  C   UNL     1      -3.140  11.781  18.846  0.00  0.00    +0.000 A 
ATOM     23  C   UNL     1      -1.934  11.046  18.712  0.00  0.00    +0.000 A 
ATOM     24  C   UNL     1      -1.766  10.254  17.439  0.00  0.00    +0.000 C 
ATOM     25  C   UNL     1      -0.969  11.052  19.756  0.00  0.00    +0.000 A 
ATOM     26  C   UNL     1      -1.298  11.742  20.952  0.00  0.00    +0.000 A 
ATOM     27  C   UNL     1      -0.443  11.811  22.183  0.00  0.00    +0.000 C 
ATOM     28  C   UNL     1      -2.518  12.468  21.042  0.00  0.00    +0.000 A 
ENDBRANCH  18  25
ENDBRANCH  14  19
ENDBRANCH   1  15
BRANCH  11  29
ATOM     29  C   UNL     1       3.813   5.298  19.135  0.00  0.00    +0.000 C 
BRANCH  29  30
ATOM     30  N   UNL     1       3.382   4.119  18.354  0.00  0.00    +0.000 NA
ATOM     31  C   UNL     1       1.906   4.113  18.278  0.00  0.00    +0.000 C 
ATOM     32  C   UNL     1       1.182   3.809  19.609  0.00  0.00    +0.000 C 
ATOM     33  C   UNL     1       1.772   2.627  20.403  0.00  0.00    +0.000 C 
ATOM     34  C   UNL     1       1.384   2.673  21.886  0.00  0.00    +0.000 C 
ATOM     35  C   UNL     1       3.291   2.529  20.311  0.00  0.00    +0.000 C 
ATOM     36  C   UNL     1       3.807   2.817  18.913  0.00  0.00    +0.000 C 
ENDBRANCH  29  30
ENDBRANCH  11  29
TORSDOF 5
ENDMDL
MODEL 4
REMARK VINA RESULT:      -8.8      1.269      1.992
REMARK  Name = 
REMARK  9 active torsions:
REMARK  status: ('A' for Active; 'I' for Inactive)
REMARK    1  A    between atoms: C_1  and  C_2
REMARK    2  A    between atoms: C_4  and  C_5
REMARK    3  A    between atoms: C_6  and  C_7
REMARK    4  A    between atoms: N_8  and  N_9
REMARK    5  A    between atoms: C_10  and  C_12
REMARK    6  A    between atoms: C_22  and  C_23
REMARK    7  A    between atoms: C_23  and  N_24
REMARK    8  A    between atoms: C_27  and  C_28
REMARK    9  A    between atoms: C_31  and  C_32
REMARK                            x       y       z     vdW  Elec       q    Type
REMARK                         _______ _______ _______ _____ _____    ______ ____
ROOT
ATOM      1  C   UNL     1       3.306   7.528  17.749  0.00  0.00    +0.000 A 
ATOM      2  N   UNL     1       4.014   8.117  16.711  0.00  0.00    +0.000 NA
ATOM      3  N   UNL     1       5.118   7.419  16.473  0.00  0.00    +0.000 NA
ATOM      4  N   UNL     1       5.256   6.488  17.447  0.00  0.00    +0.000 N 
ATOM      5  C   UNL     1       6.389   5.624  17.539  0.00  0.00    +0.000 A 
ATOM      6  N   UNL     1       6.719   5.079  18.714  0.00  0.00    +0.000 NA
ATOM      7  O   UNL     1       7.772   4.220  18.416  0.00  0.00    +0.000 OA
ATOM      8  N   UNL     1       8.077   4.253  17.062  0.00  0.00    +0.000 NA
ATOM      9  C   UNL     1       7.232   5.134  16.522  0.00  0.00    +0.000 A 
ATOM     10  N   UNL     1       7.167   5.367  15.200  0.00  0.00    +0.000 N 
ATOM     11  C   UNL     1       4.059   6.449  18.186  0.00  0.00    +0.000 A 
ATOM     12  H   UNL     1       7.846   4.931  14.583  0.00  0.00    +0.000 HD
ATOM     13  H   UNL     1       6.642   6.136  14.793  0.00  0.00    +0.000 HD
ENDROOT
BRANCH   1  15
ATOM     14  N   UNL     1       1.818   8.941  19.247  0.00  0.00    +0.000 N 
ATOM     15  C   UNL     1       1.979   8.092  18.119  0.00  0.00    +0.000 C 
ATOM     16  O   UNL     1       1.012   7.777  17.439  0.00  0.00    +0.000 OA
ATOM     17  H   UNL     1       2.574   9.149  19.889  0.00  0.00    +0.000 HD
BRANCH  14  19
ATOM     18  C   UNL     1       0.281  10.729  18.903  0.00  0.00    +0.000 C 
ATOM     19  N   UNL     1       0.565   9.549  19.377  0.00  0.00    +0.000 NA
BRANCH  18  25
ATOM     20  C   UNL     1      -5.321  12.502  19.479  0.00  0.00    +0.000 C 
ATOM     21  C   UNL     1      -3.875  12.117  19.295  0.00  0.00    +0.000 A 
ATOM     22  C   UNL     1      -2.877  12.598  20.134  0.00  0.00    +0.000 A 
ATOM     23  C   UNL     1      -1.522  12.205  19.991  0.00  0.00    +0.000 A 
ATOM     24  C   UNL     1      -0.533  12.842  20.936  0.00  0.00    +0.000 C 
ATOM     25  C   UNL     1      -1.144  11.283  18.978  0.00  0.00    +0.000 A 
ATOM     26  C   UNL     1      -2.151  10.847  18.077  0.00  0.00    +0.000 A 
ATOM     27  C   UNL     1      -1.938   9.928  16.909  0.00  0.00    +0.000 C 
ATOM     28  C   UNL     1      -3.498  11.264  18.259  0.00  0.00    +0.000 A 
ENDBRANCH  18  25
ENDBRANCH  14  19
ENDBRANCH   1  15
BRANCH  11  29
ATOM     29  C   UNL     1       3.735   5.304  19.058  0.00  0.00    +0.000 C 
BRANCH  29  30
ATOM     30  N   UNL     1       3.251   4.140  18.284  0.00  0.00    +0.000 NA
ATOM     31  C   UNL     1       1.773   4.140  18.302  0.00  0.00    +0.000 C 
ATOM     32  C   UNL     1       1.134   3.812  19.670  0.00  0.00    +0.000 C 
ATOM     33  C   UNL     1       1.768   2.614  20.402  0.00  0.00    +0.000 C 
ATOM     34  C   UNL     1       1.476   2.631  21.908  0.00  0.00    +0.000 C 
ATOM     35  C   UNL     1       3.279   2.513  20.212  0.00  0.00    +0.000 C 
ATOM     36  C   UNL     1       3.706   2.827  18.789  0.00  0.00    +0.000 C 
ENDBRANCH  29  30
ENDBRANCH  11  29
TORSDOF 5
ENDMDL
MODEL 5
REMARK VINA RESULT:      -8.7      0.704      1.283
REMARK  Name = 
REMARK  9 active torsions:
REMARK  status: ('A' for Active; 'I' for Inactive)
REMARK    1  A    between atoms: C_1  and  C_2
REMARK    2  A    between atoms: C_4  and  C_5
REMARK    3  A    between atoms: C_6  and  C_7
REMARK    4  A    between atoms: N_8  and  N_9
REMARK    5  A    between atoms: C_10  and  C_12
REMARK    6  A    between atoms: C_22  and  C_23
REMARK    7  A    between atoms: C_23  and  N_24
REMARK    8  A    between atoms: C_27  and  C_28
REMARK    9  A    between atoms: C_31  and  C_32
REMARK                            x       y       z     vdW  Elec       q    Type
REMARK                         _______ _______ _______ _____ _____    ______ ____
ROOT
ATOM      1  C   UNL     1       3.300   7.629  17.913  0.00  0.00    +0.000 A 
ATOM      2  N   UNL     1       3.782   8.081  16.691  0.00  0.00    +0.000 NA
ATOM      3  N   UNL     1       4.816   7.337  16.319  0.00  0.00    +0.000 NA
ATOM      4  N   UNL     1       5.150   6.520  17.347  0.00  0.00    +0.000 N 
ATOM      5  C   UNL     1       6.282   5.649  17.309  0.00  0.00    +0.000 A 
ATOM      6  N   UNL     1       6.843   5.234  18.449  0.00  0.00    +0.000 NA
ATOM      7  O   UNL     1       7.816   4.325  18.046  0.00  0.00    +0.000 OA
ATOM      8  N   UNL     1       7.841   4.196  16.664  0.00  0.00    +0.000 NA
ATOM      9  C   UNL     1       6.901   5.028  16.207  0.00  0.00    +0.000 A 
ATOM     10  N   UNL     1       6.570   5.109  14.908  0.00  0.00    +0.000 N 
ATOM     11  C   UNL     1       4.129   6.592  18.311  0.00  0.00    +0.000 A 
ATOM     12  H   UNL     1       7.110   4.590  14.221  0.00  0.00    +0.000 HD
ATOM     13  H   UNL     1       5.971   5.837  14.527  0.00  0.00    +0.000 HD
ENDROOT
BRANCH   1  15
ATOM     14  N   UNL     1       1.758   8.174  19.858  0.00  0.00    +0.000 N 
ATOM     15  C   UNL     1       2.074   8.260  18.474  0.00  0.00    +0.000 C 
ATOM     16  O   UNL     1       1.318   8.834  17.702  0.00  0.00    +0.000 OA
ATOM     17  H   UNL     1       2.307   7.628  20.512  0.00  0.00    +0.000 HD
BRANCH  14  19
ATOM     18  C   UNL     1       0.801  10.205  20.652  0.00  0.00    +0.000 C 
ATOM     19  N   UNL     1       0.685   8.960  20.287  0.00  0.00    +0.000 NA
BRANCH  18  25
ATOM     20  C   UNL     1      -3.669  13.765  22.136  0.00  0.00    +0.000 C 
ATOM     21  C   UNL     1      -2.579  12.809  21.722  0.00  0.00    +0.000 A 
ATOM     22  C   UNL     1      -2.050  12.815  20.437  0.00  0.00    +0.000 A 
ATOM     23  C   UNL     1      -0.997  11.945  20.056  0.00  0.00    +0.000 A 
ATOM     24  C   UNL     1      -0.551  12.019  18.616  0.00  0.00    +0.000 C 
ATOM     25  C   UNL     1      -0.435  11.041  20.997  0.00  0.00    +0.000 A 
ATOM     26  C   UNL     1      -1.022  10.986  22.288  0.00  0.00    +0.000 A 
ATOM     27  C   UNL     1      -0.613  10.057  23.394  0.00  0.00    +0.000 C 
ATOM     28  C   UNL     1      -2.076  11.879  22.629  0.00  0.00    +0.000 A 
ENDBRANCH  18  25
ENDBRANCH  14  19
ENDBRANCH   1  15
BRANCH  11  29
ATOM     29  C   UNL     1       3.991   5.561  19.358  0.00  0.00    +0.000 C 
BRANCH  29  30
ATOM     30  N   UNL     1       2.583   5.146  19.543  0.00  0.00    +0.000 NA
ATOM     31  C   UNL     1       2.520   4.154  20.637  0.00  0.00    +0.000 C 
ATOM     32  C   UNL     1       3.143   2.778  20.309  0.00  0.00    +0.000 C 
ATOM     33  C   UNL     1       2.758   2.213  18.928  0.00  0.00    +0.000 C 
ATOM     34  C   UNL     1       3.749   1.149  18.439  0.00  0.00    +0.000 C 
ATOM     35  C   UNL     1       2.634   3.280  17.845  0.00  0.00    +0.000 C 
ATOM     36  C   UNL     1       1.954   4.541  18.350  0.00  0.00    +0.000 C 
ENDBRANCH  29  30
ENDBRANCH  11  29
TORSDOF 5
ENDMDL
MODEL 6
REMARK VINA RESULT:      -8.5      0.242      1.534
REMARK  Name = 
REMARK  9 active torsions:
REMARK  status: ('A' for Active; 'I' for Inactive)
REMARK    1  A    between atoms: C_1  and  C_2
REMARK    2  A    between atoms: C_4  and  C_5
REMARK    3  A    between atoms: C_6  and  C_7
REMARK    4  A    between atoms: N_8  and  N_9
REMARK    5  A    between atoms: C_10  and  C_12
REMARK    6  A    between atoms: C_22  and  C_23
REMARK    7  A    between atoms: C_23  and  N_24
REMARK    8  A    between atoms: C_27  and  C_28
REMARK    9  A    between atoms: C_31  and  C_32
REMARK                            x       y       z     vdW  Elec       q    Type
REMARK                         _______ _______ _______ _____ _____    ______ ____
ROOT
ATOM      1  C   UNL     1       3.401   7.588  17.846  0.00  0.00    +0.000 A 
ATOM      2  N   UNL     1       3.949   8.165  16.708  0.00  0.00    +0.000 NA
ATOM      3  N   UNL     1       4.951   7.413  16.267  0.00  0.00    +0.000 NA
ATOM      4  N   UNL     1       5.202   6.449  17.185  0.00  0.00    +0.000 N 
ATOM      5  C   UNL     1       6.281   5.522  17.061  0.00  0.00    +0.000 A 
ATOM      6  N   UNL     1       6.779   4.927  18.150  0.00  0.00    +0.000 NA
ATOM      7  O   UNL     1       7.710   4.020  17.655  0.00  0.00    +0.000 OA
ATOM      8  N   UNL     1       7.773   4.071  16.269  0.00  0.00    +0.000 NA
ATOM      9  C   UNL     1       6.900   5.013  15.903  0.00  0.00    +0.000 A 
ATOM     10  N   UNL     1       6.618   5.284  14.617  0.00  0.00    +0.000 N 
ATOM     11  C   UNL     1       4.154   6.458  18.124  0.00  0.00    +0.000 A 
ATOM     12  H   UNL     1       7.150   4.827  13.882  0.00  0.00    +0.000 HD
ATOM     13  H   UNL     1       6.076   6.092  14.322  0.00  0.00    +0.000 HD
ENDROOT
BRANCH   1  15
ATOM     14  N   UNL     1       1.917   8.099  19.843  0.00  0.00    +0.000 N 
ATOM     15  C   UNL     1       2.196   8.214  18.454  0.00  0.00    +0.000 C 
ATOM     16  O   UNL     1       1.425   8.812  17.716  0.00  0.00    +0.000 OA
ATOM     17  H   UNL     1       2.478   7.534  20.470  0.00  0.00    +0.000 HD
BRANCH  14  19
ATOM     18  C   UNL     1       1.021  10.050  20.875  0.00  0.00    +0.000 C 
ATOM     19  N   UNL     1       0.861   8.883  20.319  0.00  0.00    +0.000 NA
BRANCH  18  25
ATOM     20  C   UNL     1      -3.912  13.017  22.186  0.00  0.00    +0.000 C 
ATOM     21  C   UNL     1      -2.612  12.311  21.895  0.00  0.00    +0.000 A 
ATOM     22  C   UNL     1      -2.039  11.430  22.804  0.00  0.00    +0.000 A 
ATOM     23  C   UNL     1      -0.838  10.732  22.517  0.00  0.00    +0.000 A 
ATOM     24  C   UNL     1      -0.297   9.845  23.611  0.00  0.00    +0.000 C 
ATOM     25  C   UNL     1      -0.187  10.906  21.266  0.00  0.00    +0.000 A 
ATOM     26  C   UNL     1      -0.734  11.859  20.367  0.00  0.00    +0.000 A 
ATOM     27  C   UNL     1      -0.158  12.229  19.031  0.00  0.00    +0.000 C 
ATOM     28  C   UNL     1      -1.942  12.535  20.694  0.00  0.00    +0.000 A 
ENDBRANCH  18  25
ENDBRANCH  14  19
ENDBRANCH   1  15
BRANCH  11  29
ATOM     29  C   UNL     1       3.921   5.309  19.021  0.00  0.00    +0.000 C 
BRANCH  29  30
ATOM     30  N   UNL     1       3.412   4.130  18.287  0.00  0.00    +0.000 NA
ATOM     31  C   UNL     1       1.935   4.169  18.291  0.00  0.00    +0.000 C 
ATOM     32  C   UNL     1       1.277   3.908  19.665  0.00  0.00    +0.000 C 
ATOM     33  C   UNL     1       1.874   2.723  20.447  0.00  0.00    +0.000 C 
ATOM     34  C   UNL     1       1.571   2.805  21.949  0.00  0.00    +0.000 C 
ATOM     35  C   UNL     1       3.383   2.576  20.275  0.00  0.00    +0.000 C 
ATOM     36  C   UNL     1       3.829   2.825  18.845  0.00  0.00    +0.000 C 
ENDBRANCH  29  30
ENDBRANCH  11  29
TORSDOF 5
ENDMDL
MODEL 7
REMARK VINA RESULT:      -8.5      0.763      2.000
REMARK  Name = 
REMARK  9 active torsions:
REMARK  status: ('A' for Active; 'I' for Inactive)
REMARK    1  A    between atoms: C_1  and  C_2
REMARK    2  A    between atoms: C_4  and  C_5
REMARK    3  A    between atoms: C_6  and  C_7
REMARK    4  A    between atoms: N_8  and  N_9
REMARK    5  A    between atoms: C_10  and  C_12
REMARK    6  A    between atoms: C_22  and  C_23
REMARK    7  A    between atoms: C_23  and  N_24
REMARK    8  A    between atoms: C_27  and  C_28
REMARK    9  A    between atoms: C_31  and  C_32
REMARK                            x       y       z     vdW  Elec       q    Type
REMARK                         _______ _______ _______ _____ _____    ______ ____
ROOT
ATOM      1  C   UNL     1       3.323   7.694  17.819  0.00  0.00    +0.000 A 
ATOM      2  N   UNL     1       3.825   8.112  16.594  0.00  0.00    +0.000 NA
ATOM      3  N   UNL     1       4.854   7.346  16.250  0.00  0.00    +0.000 NA
ATOM      4  N   UNL     1       5.164   6.547  17.299  0.00  0.00    +0.000 N 
ATOM      5  C   UNL     1       6.283   5.659  17.293  0.00  0.00    +0.000 A 
ATOM      6  N   UNL     1       6.826   5.262  18.449  0.00  0.00    +0.000 NA
ATOM      7  O   UNL     1       7.790   4.331  18.077  0.00  0.00    +0.000 OA
ATOM      8  N   UNL     1       7.829   4.171  16.699  0.00  0.00    +0.000 NA
ATOM      9  C   UNL     1       6.907   5.006  16.213  0.00  0.00    +0.000 A 
ATOM     10  N   UNL     1       6.591   5.063  14.908  0.00  0.00    +0.000 N 
ATOM     11  C   UNL     1       4.132   6.654  18.249  0.00  0.00    +0.000 A 
ATOM     12  H   UNL     1       7.133   4.523  14.240  0.00  0.00    +0.000 HD
ATOM     13  H   UNL     1       6.008   5.792  14.505  0.00  0.00    +0.000 HD
ENDROOT
BRANCH   1  15
ATOM     14  N   UNL     1       1.796   8.350  19.741  0.00  0.00    +0.000 N 
ATOM     15  C   UNL     1       2.100   8.354  18.352  0.00  0.00    +0.000 C 
ATOM     16  O   UNL     1       1.336   8.878  17.553  0.00  0.00    +0.000 OA
ATOM     17  H   UNL     1       2.352   7.846  20.422  0.00  0.00    +0.000 HD
BRANCH  14  19
ATOM     18  C   UNL     1       0.864  10.337  20.667  0.00  0.00    +0.000 C 
ATOM     19  N   UNL     1       0.723   9.157  20.131  0.00  0.00    +0.000 NA
BRANCH  18  25
ATOM     20  C   UNL     1      -4.104  13.387  21.604  0.00  0.00    +0.000 C 
ATOM     21  C   UNL     1      -2.797  12.661  21.408  0.00  0.00    +0.000 A 
ATOM     22  C   UNL     1      -2.281  11.810  22.378  0.00  0.00    +0.000 A 
ATOM     23  C   UNL     1      -1.073  11.093  22.181  0.00  0.00    +0.000 A 
ATOM     24  C   UNL     1      -0.599  10.243  23.335  0.00  0.00    +0.000 C 
ATOM     25  C   UNL     1      -0.355  11.216  20.961  0.00  0.00    +0.000 A 
ATOM     26  C   UNL     1      -0.845  12.138  20.000  0.00  0.00    +0.000 A 
ATOM     27  C   UNL     1      -0.196  12.454  18.684  0.00  0.00    +0.000 C 
ATOM     28  C   UNL     1      -2.062  12.835  20.238  0.00  0.00    +0.000 A 
ENDBRANCH  18  25
ENDBRANCH  14  19
ENDBRANCH   1  15
BRANCH  11  29
ATOM     29  C   UNL     1       3.968   5.648  19.317  0.00  0.00    +0.000 C 
BRANCH  29  30
ATOM     30  N   UNL     1       2.555   5.242  19.480  0.00  0.00    +0.000 NA
ATOM     31  C   UNL     1       2.465   4.270  20.589  0.00  0.00    +0.000 C 
ATOM     32  C   UNL     1       3.088   2.886  20.299  0.00  0.00    +0.000 C 
ATOM     33  C   UNL     1       2.730   2.298  18.921  0.00  0.00    +0.000 C 
ATOM     34  C   UNL     1       3.725   1.221  18.472  0.00  0.00    +0.000 C 
ATOM     35  C   UNL     1       2.632   3.346  17.817  0.00  0.00    +0.000 C 
ATOM     36  C   UNL     1       1.947   4.618  18.286  0.00  0.00    +0.000 C 
ENDBRANCH  29  30
ENDBRANCH  11  29
TORSDOF 5
ENDMDL
MODEL 8
REMARK VINA RESULT:      -8.5      1.821      2.790
REMARK  Name = 
REMARK  9 active torsions:
REMARK  status: ('A' for Active; 'I' for Inactive)
REMARK    1  A    between atoms: C_1  and  C_2
REMARK    2  A    between atoms: C_4  and  C_5
REMARK    3  A    between atoms: C_6  and  C_7
REMARK    4  A    between atoms: N_8  and  N_9
REMARK    5  A    between atoms: C_10  and  C_12
REMARK    6  A    between atoms: C_22  and  C_23
REMARK    7  A    between atoms: C_23  and  N_24
REMARK    8  A    between atoms: C_27  and  C_28
REMARK    9  A    between atoms: C_31  and  C_32
REMARK                            x       y       z     vdW  Elec       q    Type
REMARK                         _______ _______ _______ _____ _____    ______ ____
ROOT
ATOM      1  C   UNL     1       2.524   8.046  18.288  0.00  0.00    +0.000 A 
ATOM      2  N   UNL     1       3.170   8.521  17.155  0.00  0.00    +0.000 NA
ATOM      3  N   UNL     1       4.114   7.662  16.788  0.00  0.00    +0.000 NA
ATOM      4  N   UNL     1       4.235   6.719  17.752  0.00  0.00    +0.000 N 
ATOM      5  C   UNL     1       5.226   5.691  17.712  0.00  0.00    +0.000 A 
ATOM      6  N   UNL     1       5.621   5.099  18.844  0.00  0.00    +0.000 NA
ATOM      7  O   UNL     1       6.482   4.090  18.427  0.00  0.00    +0.000 OA
ATOM      8  N   UNL     1       6.608   4.078  17.044  0.00  0.00    +0.000 NA
ATOM      9  C   UNL     1       5.843   5.080  16.603  0.00  0.00    +0.000 A 
ATOM     10  N   UNL     1       5.640   5.321  15.297  0.00  0.00    +0.000 N 
ATOM     11  C   UNL     1       3.155   6.863  18.642  0.00  0.00    +0.000 A 
ATOM     12  H   UNL     1       6.157   4.787  14.605  0.00  0.00    +0.000 HD
ATOM     13  H   UNL     1       5.190   6.163  14.948  0.00  0.00    +0.000 HD
ENDROOT
BRANCH   1  15
ATOM     14  N   UNL     1       0.613   9.695  17.997  0.00  0.00    +0.000 N 
ATOM     15  C   UNL     1       1.359   8.806  18.817  0.00  0.00    +0.000 C 
ATOM     16  O   UNL     1       1.073   8.669  19.999  0.00  0.00    +0.000 OA
ATOM     17  H   UNL     1       0.875   9.908  17.041  0.00  0.00    +0.000 HD
BRANCH  14  19
ATOM     18  C   UNL     1      -1.064  11.367  18.259  0.00  0.00    +0.000 C 
ATOM     19  N   UNL     1      -0.562  10.202  18.560  0.00  0.00    +0.000 NA
BRANCH  18  25
ATOM     20  C   UNL     1      -6.303  12.649  20.658  0.00  0.00    +0.000 C 
ATOM     21  C   UNL     1      -4.961  12.396  20.022  0.00  0.00    +0.000 A 
ATOM     22  C   UNL     1      -3.774  12.748  20.653  0.00  0.00    +0.000 A 
ATOM     23  C   UNL     1      -2.507  12.474  20.077  0.00  0.00    +0.000 A 
ATOM     24  C   UNL     1      -1.300  12.956  20.844  0.00  0.00    +0.000 C 
ATOM     25  C   UNL     1      -2.416  11.808  18.825  0.00  0.00    +0.000 A 
ATOM     26  C   UNL     1      -3.628  11.512  18.148  0.00  0.00    +0.000 A 
ATOM     27  C   UNL     1      -3.738  10.872  16.795  0.00  0.00    +0.000 C 
ATOM     28  C   UNL     1      -4.877  11.802  18.764  0.00  0.00    +0.000 A 
ENDBRANCH  18  25
ENDBRANCH  14  19
ENDBRANCH   1  15
BRANCH  11  29
ATOM     29  C   UNL     1       2.778   5.779  19.570  0.00  0.00    +0.000 C 
BRANCH  29  30
ATOM     30  N   UNL     1       1.491   5.155  19.197  0.00  0.00    +0.000 NA
ATOM     31  C   UNL     1       1.191   4.073  20.158  0.00  0.00    +0.000 C 
ATOM     32  C   UNL     1       2.106   2.833  20.055  0.00  0.00    +0.000 C 
ATOM     33  C   UNL     1       2.358   2.340  18.617  0.00  0.00    +0.000 C 
ATOM     34  C   UNL     1       3.620   1.474  18.512  0.00  0.00    +0.000 C 
ATOM     35  C   UNL     1       2.471   3.469  17.597  0.00  0.00    +0.000 C 
ATOM     36  C   UNL     1       1.456   4.572  17.839  0.00  0.00    +0.000 C 
ENDBRANCH  29  30
ENDBRANCH  11  29
TORSDOF 5
ENDMDL
MODEL 9
REMARK VINA RESULT:      -8.5      1.821      2.506
REMARK  Name = 
REMARK  9 active torsions:
REMARK  status: ('A' for Active; 'I' for Inactive)
REMARK    1  A    between atoms: C_1  and  C_2
REMARK    2  A    between atoms: C_4  and  C_5
REMARK    3  A    between atoms: C_6  and  C_7
REMARK    4  A    between atoms: N_8  and  N_9
REMARK    5  A    between atoms: C_10  and  C_12
REMARK    6  A    between atoms: C_22  and  C_23
REMARK    7  A    between atoms: C_23  and  N_24
REMARK    8  A    between atoms: C_27  and  C_28
REMARK    9  A    between atoms: C_31  and  C_32
REMARK                            x       y       z     vdW  Elec       q    Type
REMARK                         _______ _______ _______ _____ _____    ______ ____
ROOT
ATOM      1  C   UNL     1       2.555   8.030  18.282  0.00  0.00    +0.000 A 
ATOM      2  N   UNL     1       3.200   8.525  17.157  0.00  0.00    +0.000 NA
ATOM      3  N   UNL     1       4.153   7.680  16.783  0.00  0.00    +0.000 NA
ATOM      4  N   UNL     1       4.282   6.727  17.736  0.00  0.00    +0.000 N 
ATOM      5  C   UNL     1       5.284   5.710  17.687  0.00  0.00    +0.000 A 
ATOM      6  N   UNL     1       5.681   5.109  18.813  0.00  0.00    +0.000 NA
ATOM      7  O   UNL     1       6.554   4.114  18.386  0.00  0.00    +0.000 OA
ATOM      8  N   UNL     1       6.684   4.119  17.003  0.00  0.00    +0.000 NA
ATOM      9  C   UNL     1       5.909   5.118  16.572  0.00  0.00    +0.000 A 
ATOM     10  N   UNL     1       5.708   5.374  15.269  0.00  0.00    +0.000 N 
ATOM     11  C   UNL     1       3.198   6.850  18.624  0.00  0.00    +0.000 A 
ATOM     12  H   UNL     1       6.233   4.853  14.571  0.00  0.00    +0.000 HD
ATOM     13  H   UNL     1       5.250   6.215  14.927  0.00  0.00    +0.000 HD
ENDROOT
BRANCH   1  15
ATOM     14  N   UNL     1       0.596   9.620  17.992  0.00  0.00    +0.000 N 
ATOM     15  C   UNL     1       1.381   8.771  18.817  0.00  0.00    +0.000 C 
ATOM     16  O   UNL     1       1.122   8.654  20.008  0.00  0.00    +0.000 OA
ATOM     17  H   UNL     1       0.833   9.818  17.027  0.00  0.00    +0.000 HD
BRANCH  14  19
ATOM     18  C   UNL     1      -1.110  11.261  18.263  0.00  0.00    +0.000 C 
ATOM     19  N   UNL     1      -0.581  10.110  18.566  0.00  0.00    +0.000 NA
BRANCH  18  25
ATOM     20  C   UNL     1      -6.269  13.300  20.282  0.00  0.00    +0.000 C 
ATOM     21  C   UNL     1      -4.972  12.709  19.794  0.00  0.00    +0.000 A 
ATOM     22  C   UNL     1      -4.897  11.985  18.610  0.00  0.00    +0.000 A 
ATOM     23  C   UNL     1      -3.670  11.463  18.126  0.00  0.00    +0.000 A 
ATOM     24  C   UNL     1      -3.739  10.653  16.855  0.00  0.00    +0.000 C 
ATOM     25  C   UNL     1      -2.463  11.682  18.843  0.00  0.00    +0.000 A 
ATOM     26  C   UNL     1      -2.551  12.360  20.087  0.00  0.00    +0.000 A 
ATOM     27  C   UNL     1      -1.403  12.630  21.016  0.00  0.00    +0.000 C 
ATOM     28  C   UNL     1      -3.801  12.869  20.533  0.00  0.00    +0.000 A 
ENDBRANCH  18  25
ENDBRANCH  14  19
ENDBRANCH   1  15
BRANCH  11  29
ATOM     29  C   UNL     1       2.830   5.751  19.539  0.00  0.00    +0.000 C 
BRANCH  29  30
ATOM     30  N   UNL     1       1.548   5.119  19.156  0.00  0.00    +0.000 NA
ATOM     31  C   UNL     1       1.239   4.046  20.124  0.00  0.00    +0.000 C 
ATOM     32  C   UNL     1       2.160   2.807  20.043  0.00  0.00    +0.000 C 
ATOM     33  C   UNL     1       2.430   2.301  18.614  0.00  0.00    +0.000 C 
ATOM     34  C   UNL     1       3.695   1.437  18.532  0.00  0.00    +0.000 C 
ATOM     35  C   UNL     1       2.552   3.420  17.584  0.00  0.00    +0.000 C 
ATOM     36  C   UNL     1       1.531   4.523  17.803  0.00  0.00    +0.000 C 
ENDBRANCH  29  30
ENDBRANCH  11  29
TORSDOF 5
ENDMDL
