MODEL 1
REMARK VINA RESULT:      -7.0      0.000      0.000
REMARK  Name = 
REMARK  6 active torsions:
REMARK  status: ('A' for Active; 'I' for Inactive)
REMARK    1  A    between atoms: C_1  and  O_2
REMARK    2  A    between atoms: O_2  and  C_3
REMARK    3  A    between atoms: C_9  and  C_10
REMARK    4  A    between atoms: C_10  and  N_11
REMARK    5  A    between atoms: C_16  and  N_17
REMARK    6  A    between atoms: C_18  and  C_20
REMARK                            x       y       z     vdW  Elec       q    Type
REMARK                         _______ _______ _______ _____ _____    ______ ____
ROOT
ATOM      1  N   UNL     1       3.956   5.431  17.505  0.00  0.00    +0.000 N 
ATOM      2  C   UNL     1       5.067   4.712  17.855  0.00  0.00    +0.000 C 
ATOM      3  O   UNL     1       5.040   3.759  18.628  0.00  0.00    +0.000 OA
ATOM      4  N   UNL     1       6.218   5.147  17.264  0.00  0.00    +0.000 N 
ATOM      5  C   UNL     1       6.524   6.197  16.308  0.00  0.00    +0.000 C 
ATOM      6  C   UNL     1       7.464   5.176  15.629  0.00  0.00    +0.000 C 
ATOM      7  C   UNL     1       7.406   4.368  16.947  0.00  0.00    +0.000 C 
ATOM      8  H   UNL     1       3.981   5.808  16.570  0.00  0.00    +0.000 HD
ENDROOT
BRANCH   6   9
ATOM      9  N   UNL     1       6.874   4.492  14.442  0.00  0.00    +0.000 N 
ATOM     10  C   UNL     1       7.291   4.790  13.155  0.00  0.00    +0.000 C 
ATOM     11  O   UNL     1       8.182   5.618  12.952  0.00  0.00    +0.000 OA
ATOM     12  H   UNL     1       6.129   3.816  14.562  0.00  0.00    +0.000 HD
BRANCH  10  13
ATOM     13  C   UNL     1       6.539   4.018  12.036  0.00  0.00    +0.000 C 
ATOM     14  C   UNL     1       7.078   2.608  11.670  0.00  0.00    +0.000 C 
ATOM     15  C   UNL     1       5.618   2.158  11.494  0.00  0.00    +0.000 C 
ATOM     16  C   UNL     1       5.217   3.304  12.439  0.00  0.00    +0.000 C 
ENDBRANCH  10  13
ENDBRANCH   6   9
BRANCH   1  17
ATOM     17  C   UNL     1       2.639   5.056  17.972  0.00  0.00    +0.000 C 
BRANCH  17  24
ATOM     18  C   UNL     1       1.597   5.609  20.252  0.00  0.00    +0.000 A 
ATOM     19  C   UNL     1       1.220   6.562  21.202  0.00  0.00    +0.000 A 
ATOM     20  C   UNL     1       1.370   7.922  20.933  0.00  0.00    +0.000 A 
ATOM     21 CL   UNL     1       0.904   9.082  22.116  0.00  0.00    +0.000 Cl
ATOM     22  C   UNL     1       1.899   8.349  19.721  0.00  0.00    +0.000 A 
ATOM     23  C   UNL     1       2.301   7.408  18.778  0.00  0.00    +0.000 A 
ATOM     24  C   UNL     1       2.155   6.023  19.025  0.00  0.00    +0.000 A 
BRANCH  18  26
ATOM     25  C   UNL     1       2.218   3.710  21.543  0.00  0.00    +0.000 C 
ATOM     26  O   UNL     1       1.487   4.255  20.449  0.00  0.00    +0.000 OA
ENDBRANCH  18  26
ENDBRANCH  17  24
ENDBRANCH   1  17
TORSDOF 5
ENDMDL
MODEL 2
REMARK VINA RESULT:      -6.8      2.266      3.534
REMARK  Name = 
REMARK  6 active torsions:
REMARK  status: ('A' for Active; 'I' for Inactive)
REMARK    1  A    between atoms: C_1  and  O_2
REMARK    2  A    between atoms: O_2  and  C_3
REMARK    3  A    between atoms: C_9  and  C_10
REMARK    4  A    between atoms: C_10  and  N_11
REMARK    5  A    between atoms: C_16  and  N_17
REMARK    6  A    between atoms: C_18  and  C_20
REMARK                            x       y       z     vdW  Elec       q    Type
REMARK                         _______ _______ _______ _____ _____    ______ ____
ROOT
ATOM      1  N   UNL     1       2.981   7.424  18.165  0.00  0.00    +0.000 N 
ATOM      2  C   UNL     1       2.758   6.086  18.352  0.00  0.00    +0.000 C 
ATOM      3  O   UNL     1       1.638   5.589  18.408  0.00  0.00    +0.000 OA
ATOM      4  N   UNL     1       3.898   5.345  18.470  0.00  0.00    +0.000 N 
ATOM      5  C   UNL     1       5.315   5.662  18.406  0.00  0.00    +0.000 C 
ATOM      6  C   UNL     1       5.471   4.367  17.576  0.00  0.00    +0.000 C 
ATOM      7  C   UNL     1       4.088   3.944  18.128  0.00  0.00    +0.000 C 
ATOM      8  H   UNL     1       3.826   7.639  17.659  0.00  0.00    +0.000 HD
ENDROOT
BRANCH   6   9
ATOM      9  N   UNL     1       5.524   4.585  16.102  0.00  0.00    +0.000 N 
ATOM     10  C   UNL     1       6.729   4.633  15.422  0.00  0.00    +0.000 C 
ATOM     11  O   UNL     1       7.799   4.474  16.013  0.00  0.00    +0.000 OA
ATOM     12  H   UNL     1       4.669   4.736  15.579  0.00  0.00    +0.000 HD
BRANCH  10  13
ATOM     13  C   UNL     1       6.601   4.914  13.899  0.00  0.00    +0.000 C 
ATOM     14  C   UNL     1       7.924   5.100  13.106  0.00  0.00    +0.000 C 
ATOM     15  C   UNL     1       7.266   4.341  11.942  0.00  0.00    +0.000 C 
ATOM     16  C   UNL     1       6.332   3.691  12.977  0.00  0.00    +0.000 C 
ENDBRANCH  10  13
ENDBRANCH   6   9
BRANCH   1  17
ATOM     17  C   UNL     1       1.887   8.344  17.937  0.00  0.00    +0.000 C 
BRANCH  17  24
ATOM     18  C   UNL     1       0.283   9.776  19.338  0.00  0.00    +0.000 A 
ATOM     19  C   UNL     1      -0.248  10.115  20.586  0.00  0.00    +0.000 A 
ATOM     20  C   UNL     1       0.239   9.514  21.746  0.00  0.00    +0.000 A 
ATOM     21 CL   UNL     1      -0.430   9.940  23.273  0.00  0.00    +0.000 Cl
ATOM     22  C   UNL     1       1.256   8.570  21.679  0.00  0.00    +0.000 A 
ATOM     23  C   UNL     1       1.776   8.207  20.440  0.00  0.00    +0.000 A 
ATOM     24  C   UNL     1       1.301   8.805  19.249  0.00  0.00    +0.000 A 
BRANCH  18  26
ATOM     25  C   UNL     1      -1.334  11.110  18.214  0.00  0.00    +0.000 C 
ATOM     26  O   UNL     1      -0.152  10.319  18.154  0.00  0.00    +0.000 OA
ENDBRANCH  18  26
ENDBRANCH  17  24
ENDBRANCH   1  17
TORSDOF 5
ENDMDL
MODEL 3
REMARK VINA RESULT:      -6.7      9.802     13.711
REMARK  Name = 
REMARK  6 active torsions:
REMARK  status: ('A' for Active; 'I' for Inactive)
REMARK    1  A    between atoms: C_1  and  O_2
REMARK    2  A    between atoms: O_2  and  C_3
REMARK    3  A    between atoms: C_9  and  C_10
REMARK    4  A    between atoms: C_10  and  N_11
REMARK    5  A    between atoms: C_16  and  N_17
REMARK    6  A    between atoms: C_18  and  C_20
REMARK                            x       y       z     vdW  Elec       q    Type
REMARK                         _______ _______ _______ _____ _____    ______ ____
ROOT
ATOM      1  N   UNL     1      -5.966  12.233  18.154  0.00  0.00    +0.000 N 
ATOM      2  C   UNL     1      -6.754  11.349  18.840  0.00  0.00    +0.000 C 
ATOM      3  O   UNL     1      -6.905  10.178  18.506  0.00  0.00    +0.000 OA
ATOM      4  N   UNL     1      -7.361  11.884  19.939  0.00  0.00    +0.000 N 
ATOM      5  C   UNL     1      -7.329  13.193  20.568  0.00  0.00    +0.000 C 
ATOM      6  C   UNL     1      -7.266  12.440  21.916  0.00  0.00    +0.000 C 
ATOM      7  C   UNL     1      -7.776  11.195  21.151  0.00  0.00    +0.000 C 
ATOM      8  H   UNL     1      -5.530  12.936  18.729  0.00  0.00    +0.000 HD
ENDROOT
BRANCH   6   9
ATOM      9  N   UNL     1      -5.894  12.314  22.486  0.00  0.00    +0.000 N 
ATOM     10  C   UNL     1      -5.457  13.139  23.508  0.00  0.00    +0.000 C 
ATOM     11  O   UNL     1      -6.200  13.994  23.995  0.00  0.00    +0.000 OA
ATOM     12  H   UNL     1      -5.245  11.635  22.105  0.00  0.00    +0.000 HD
BRANCH  10  13
ATOM     13  C   UNL     1      -3.986  12.901  23.949  0.00  0.00    +0.000 C 
ATOM     14  C   UNL     1      -3.026  12.291  22.892  0.00  0.00    +0.000 C 
ATOM     15  C   UNL     1      -1.925  13.212  23.444  0.00  0.00    +0.000 C 
ATOM     16  C   UNL     1      -3.043  14.138  23.953  0.00  0.00    +0.000 C 
ENDBRANCH  10  13
ENDBRANCH   6   9
BRANCH   1  17
ATOM     17  C   UNL     1      -5.181  11.812  17.012  0.00  0.00    +0.000 C 
BRANCH  17  24
ATOM     18  C   UNL     1      -3.089  10.352  16.734  0.00  0.00    +0.000 A 
ATOM     19  C   UNL     1      -1.819   9.974  17.179  0.00  0.00    +0.000 A 
ATOM     20  C   UNL     1      -1.289  10.523  18.346  0.00  0.00    +0.000 A 
ATOM     21 CL   UNL     1       0.279  10.050  18.876  0.00  0.00    +0.000 Cl
ATOM     22  C   UNL     1      -2.011  11.455  19.080  0.00  0.00    +0.000 A 
ATOM     23  C   UNL     1      -3.267  11.856  18.634  0.00  0.00    +0.000 A 
ATOM     24  C   UNL     1      -3.828  11.311  17.456  0.00  0.00    +0.000 A 
BRANCH  18  26
ATOM     25  C   UNL     1      -2.981  10.104  14.371  0.00  0.00    +0.000 C 
ATOM     26  O   UNL     1      -3.672   9.861  15.592  0.00  0.00    +0.000 OA
ENDBRANCH  18  26
ENDBRANCH  17  24
ENDBRANCH   1  17
TORSDOF 5
ENDMDL
MODEL 4
REMARK VINA RESULT:      -6.5      1.654      2.542
REMARK  Name = 
REMARK  6 active torsions:
REMARK  status: ('A' for Active; 'I' for Inactive)
REMARK    1  A    between atoms: C_1  and  O_2
REMARK    2  A    between atoms: O_2  and  C_3
REMARK    3  A    between atoms: C_9  and  C_10
REMARK    4  A    between atoms: C_10  and  N_11
REMARK    5  A    between atoms: C_16  and  N_17
REMARK    6  A    between atoms: C_18  and  C_20
REMARK                            x       y       z     vdW  Elec       q    Type
REMARK                         _______ _______ _______ _____ _____    ______ ____
ROOT
ATOM      1  N   UNL     1       3.595   6.286  18.163  0.00  0.00    +0.000 N 
ATOM      2  C   UNL     1       4.642   5.692  18.814  0.00  0.00    +0.000 C 
ATOM      3  O   UNL     1       4.507   4.987  19.809  0.00  0.00    +0.000 OA
ATOM      4  N   UNL     1       5.860   5.948  18.254  0.00  0.00    +0.000 N 
ATOM      5  C   UNL     1       6.293   6.695  17.086  0.00  0.00    +0.000 C 
ATOM      6  C   UNL     1       7.268   5.526  16.817  0.00  0.00    +0.000 C 
ATOM      7  C   UNL     1       7.051   5.112  18.291  0.00  0.00    +0.000 C 
ATOM      8  H   UNL     1       3.727   6.392  17.169  0.00  0.00    +0.000 HD
ENDROOT
BRANCH   6   9
ATOM      9  N   UNL     1       6.785   4.543  15.805  0.00  0.00    +0.000 N 
ATOM     10  C   UNL     1       7.096   4.676  14.462  0.00  0.00    +0.000 C 
ATOM     11  O   UNL     1       7.803   5.604  14.063  0.00  0.00    +0.000 OA
ATOM     12  H   UNL     1       6.189   3.774  16.087  0.00  0.00    +0.000 HD
BRANCH  10  13
ATOM     13  C   UNL     1       6.472   3.590  13.543  0.00  0.00    +0.000 C 
ATOM     14  C   UNL     1       4.988   3.787  13.129  0.00  0.00    +0.000 C 
ATOM     15  C   UNL     1       5.361   3.233  11.744  0.00  0.00    +0.000 C 
ATOM     16  C   UNL     1       6.807   3.673  12.027  0.00  0.00    +0.000 C 
ENDBRANCH  10  13
ENDBRANCH   6   9
BRANCH   1  17
ATOM     17  C   UNL     1       2.225   6.053  18.570  0.00  0.00    +0.000 C 
BRANCH  17  24
ATOM     18  C   UNL     1       1.687   8.498  19.135  0.00  0.00    +0.000 A 
ATOM     19  C   UNL     1       1.196   9.443  20.040  0.00  0.00    +0.000 A 
ATOM     20  C   UNL     1       0.800   9.053  21.319  0.00  0.00    +0.000 A 
ATOM     21 CL   UNL     1       0.194  10.230  22.420  0.00  0.00    +0.000 Cl
ATOM     22  C   UNL     1       0.884   7.723  21.711  0.00  0.00    +0.000 A 
ATOM     23  C   UNL     1       1.349   6.770  20.809  0.00  0.00    +0.000 A 
ATOM     24  C   UNL     1       1.760   7.140  19.508  0.00  0.00    +0.000 A 
BRANCH  18  26
ATOM     25  C   UNL     1       2.296  10.184  17.572  0.00  0.00    +0.000 C 
ATOM     26  O   UNL     1       2.087   8.805  17.858  0.00  0.00    +0.000 OA
ENDBRANCH  18  26
ENDBRANCH  17  24
ENDBRANCH   1  17
TORSDOF 5
ENDMDL
MODEL 5
REMARK VINA RESULT:      -6.4      4.927      8.623
REMARK  Name = 
REMARK  6 active torsions:
REMARK  status: ('A' for Active; 'I' for Inactive)
REMARK    1  A    between atoms: C_1  and  O_2
REMARK    2  A    between atoms: O_2  and  C_3
REMARK    3  A    between atoms: C_9  and  C_10
REMARK    4  A    between atoms: C_10  and  N_11
REMARK    5  A    between atoms: C_16  and  N_17
REMARK    6  A    between atoms: C_18  and  C_20
REMARK                            x       y       z     vdW  Elec       q    Type
REMARK                         _______ _______ _______ _____ _____    ______ ____
ROOT
ATOM      1  N   UNL     1       2.230   7.662  19.054  0.00  0.00    +0.000 N 
ATOM      2  C   UNL     1       1.509   8.346  19.995  0.00  0.00    +0.000 C 
ATOM      3  O   UNL     1       1.553   8.094  21.195  0.00  0.00    +0.000 OA
ATOM      4  N   UNL     1       0.734   9.346  19.482  0.00  0.00    +0.000 N 
ATOM      5  C   UNL     1       0.527   9.872  18.143  0.00  0.00    +0.000 C 
ATOM      6  C   UNL     1       0.567  11.275  18.790  0.00  0.00    +0.000 C 
ATOM      7  C   UNL     1       0.306  10.569  20.143  0.00  0.00    +0.000 C 
ATOM      8  H   UNL     1       2.510   8.215  18.259  0.00  0.00    +0.000 HD
ENDROOT
BRANCH   6   9
ATOM      9  N   UNL     1       1.884  11.965  18.680  0.00  0.00    +0.000 N 
ATOM     10  C   UNL     1       1.970  13.341  18.553  0.00  0.00    +0.000 C 
ATOM     11  O   UNL     1       0.956  14.043  18.547  0.00  0.00    +0.000 OA
ATOM     12  H   UNL     1       2.742  11.426  18.665  0.00  0.00    +0.000 HD
BRANCH  10  13
ATOM     13  C   UNL     1       3.416  13.888  18.404  0.00  0.00    +0.000 C 
ATOM     14  C   UNL     1       3.592  15.196  17.583  0.00  0.00    +0.000 C 
ATOM     15  C   UNL     1       4.673  15.617  18.593  0.00  0.00    +0.000 C 
ATOM     16  C   UNL     1       3.998  14.680  19.610  0.00  0.00    +0.000 C 
ENDBRANCH  10  13
ENDBRANCH   6   9
BRANCH   1  17
ATOM     17  C   UNL     1       3.168   6.626  19.431  0.00  0.00    +0.000 C 
BRANCH  17  24
ATOM     18  C   UNL     1       3.932   4.687  17.932  0.00  0.00    +0.000 A 
ATOM     19  C   UNL     1       4.542   4.247  16.755  0.00  0.00    +0.000 A 
ATOM     20  C   UNL     1       5.100   5.163  15.865  0.00  0.00    +0.000 A 
ATOM     21 CL   UNL     1       5.843   4.603  14.417  0.00  0.00    +0.000 Cl
ATOM     22  C   UNL     1       5.054   6.526  16.132  0.00  0.00    +0.000 A 
ATOM     23  C   UNL     1       4.428   6.978  17.290  0.00  0.00    +0.000 A 
ATOM     24  C   UNL     1       3.858   6.067  18.211  0.00  0.00    +0.000 A 
BRANCH  18  26
ATOM     25  C   UNL     1       4.237   2.995  19.576  0.00  0.00    +0.000 C 
ATOM     26  O   UNL     1       3.355   3.845  18.851  0.00  0.00    +0.000 OA
ENDBRANCH  18  26
ENDBRANCH  17  24
ENDBRANCH   1  17
TORSDOF 5
ENDMDL
MODEL 6
REMARK VINA RESULT:      -6.4      5.263      9.147
REMARK  Name = 
REMARK  6 active torsions:
REMARK  status: ('A' for Active; 'I' for Inactive)
REMARK    1  A    between atoms: C_1  and  O_2
REMARK    2  A    between atoms: O_2  and  C_3
REMARK    3  A    between atoms: C_9  and  C_10
REMARK    4  A    between atoms: C_10  and  N_11
REMARK    5  A    between atoms: C_16  and  N_17
REMARK    6  A    between atoms: C_18  and  C_20
REMARK                            x       y       z     vdW  Elec       q    Type
REMARK                         _______ _______ _______ _____ _____    ______ ____
ROOT
ATOM      1  N   UNL     1       1.127   8.554  20.001  0.00  0.00    +0.000 N 
ATOM      2  C   UNL     1       0.197   9.292  20.682  0.00  0.00    +0.000 C 
ATOM      3  O   UNL     1      -0.023   9.162  21.882  0.00  0.00    +0.000 OA
ATOM      4  N   UNL     1      -0.468  10.197  19.906  0.00  0.00    +0.000 N 
ATOM      5  C   UNL     1      -0.384  10.577  18.507  0.00  0.00    +0.000 C 
ATOM      6  C   UNL     1      -0.526  12.037  18.992  0.00  0.00    +0.000 C 
ATOM      7  C   UNL     1      -1.064  11.458  20.322  0.00  0.00    +0.000 C 
ATOM      8  H   UNL     1       1.564   9.039  19.233  0.00  0.00    +0.000 HD
ENDROOT
BRANCH   6   9
ATOM      9  N   UNL     1       0.765  12.777  19.101  0.00  0.00    +0.000 N 
ATOM     10  C   UNL     1       0.835  14.143  18.887  0.00  0.00    +0.000 C 
ATOM     11  O   UNL     1      -0.176  14.797  18.618  0.00  0.00    +0.000 OA
ATOM     12  H   UNL     1       1.622  12.277  19.305  0.00  0.00    +0.000 HD
BRANCH  10  13
ATOM     13  C   UNL     1       2.264  14.743  18.996  0.00  0.00    +0.000 C 
ATOM     14  C   UNL     1       3.399  13.996  18.242  0.00  0.00    +0.000 C 
ATOM     15  C   UNL     1       3.997  15.371  17.900  0.00  0.00    +0.000 C 
ATOM     16  C   UNL     1       2.588  15.960  18.084  0.00  0.00    +0.000 C 
ENDBRANCH  10  13
ENDBRANCH   6   9
BRANCH   1  17
ATOM     17  C   UNL     1       1.984   7.607  20.684  0.00  0.00    +0.000 C 
BRANCH  17  24
ATOM     18  C   UNL     1       2.518   6.099  18.677  0.00  0.00    +0.000 A 
ATOM     19  C   UNL     1       2.526   4.827  18.098  0.00  0.00    +0.000 A 
ATOM     20  C   UNL     1       1.985   3.739  18.780  0.00  0.00    +0.000 A 
ATOM     21 CL   UNL     1       2.009   2.179  18.053  0.00  0.00    +0.000 Cl
ATOM     22  C   UNL     1       1.433   3.900  20.045  0.00  0.00    +0.000 A 
ATOM     23  C   UNL     1       1.441   5.158  20.641  0.00  0.00    +0.000 A 
ATOM     24  C   UNL     1       1.980   6.279  19.968  0.00  0.00    +0.000 A 
BRANCH  18  26
ATOM     25  C   UNL     1       4.244   7.033  17.333  0.00  0.00    +0.000 C 
ATOM     26  O   UNL     1       3.039   7.215  18.070  0.00  0.00    +0.000 OA
ENDBRANCH  18  26
ENDBRANCH  17  24
ENDBRANCH   1  17
TORSDOF 5
ENDMDL
MODEL 7
REMARK VINA RESULT:      -6.4      2.362      3.440
REMARK  Name = 
REMARK  6 active torsions:
REMARK  status: ('A' for Active; 'I' for Inactive)
REMARK    1  A    between atoms: C_1  and  O_2
REMARK    2  A    between atoms: O_2  and  C_3
REMARK    3  A    between atoms: C_9  and  C_10
REMARK    4  A    between atoms: C_10  and  N_11
REMARK    5  A    between atoms: C_16  and  N_17
REMARK    6  A    between atoms: C_18  and  C_20
REMARK                            x       y       z     vdW  Elec       q    Type
REMARK                         _______ _______ _______ _____ _____    ______ ____
ROOT
ATOM      1  N   UNL     1       2.886   6.558  19.596  0.00  0.00    +0.000 N 
ATOM      2  C   UNL     1       3.158   5.231  19.792  0.00  0.00    +0.000 C 
ATOM      3  O   UNL     1       2.299   4.397  20.060  0.00  0.00    +0.000 OA
ATOM      4  N   UNL     1       4.478   4.910  19.659  0.00  0.00    +0.000 N 
ATOM      5  C   UNL     1       5.669   5.669  19.318  0.00  0.00    +0.000 C 
ATOM      6  C   UNL     1       6.074   4.462  18.443  0.00  0.00    +0.000 C 
ATOM      7  C   UNL     1       5.047   3.634  19.251  0.00  0.00    +0.000 C 
ATOM      8  H   UNL     1       3.495   7.015  18.935  0.00  0.00    +0.000 HD
ENDROOT
BRANCH   6   9
ATOM      9  N   UNL     1       5.759   4.620  16.994  0.00  0.00    +0.000 N 
ATOM     10  C   UNL     1       6.756   4.623  16.033  0.00  0.00    +0.000 C 
ATOM     11  O   UNL     1       7.940   4.474  16.346  0.00  0.00    +0.000 OA
ATOM     12  H   UNL     1       4.801   4.761  16.694  0.00  0.00    +0.000 HD
BRANCH  10  13
ATOM     13  C   UNL     1       6.254   4.845  14.580  0.00  0.00    +0.000 C 
ATOM     14  C   UNL     1       7.331   4.865  13.460  0.00  0.00    +0.000 C 
ATOM     15  C   UNL     1       6.329   4.121  12.562  0.00  0.00    +0.000 C 
ATOM     16  C   UNL     1       5.652   3.613  13.847  0.00  0.00    +0.000 C 
ENDBRANCH  10  13
ENDBRANCH   6   9
BRANCH   1  17
ATOM     17  C   UNL     1       1.528   7.059  19.616  0.00  0.00    +0.000 C 
BRANCH  17  24
ATOM     18  C   UNL     1       0.871   9.484  20.141  0.00  0.00    +0.000 A 
ATOM     19  C   UNL     1       0.936  10.843  19.823  0.00  0.00    +0.000 A 
ATOM     20  C   UNL     1       1.605  11.266  18.675  0.00  0.00    +0.000 A 
ATOM     21 CL   UNL     1       1.679  12.945  18.301  0.00  0.00    +0.000 Cl
ATOM     22  C   UNL     1       2.219  10.346  17.835  0.00  0.00    +0.000 A 
ATOM     23  C   UNL     1       2.181   8.992  18.155  0.00  0.00    +0.000 A 
ATOM     24  C   UNL     1       1.506   8.537  19.311  0.00  0.00    +0.000 A 
BRANCH  18  26
ATOM     25  C   UNL     1       0.838   9.295  22.512  0.00  0.00    +0.000 C 
ATOM     26  O   UNL     1       0.237   8.994  21.257  0.00  0.00    +0.000 OA
ENDBRANCH  18  26
ENDBRANCH  17  24
ENDBRANCH   1  17
TORSDOF 5
ENDMDL
MODEL 8
REMARK VINA RESULT:      -6.4      5.156      8.878
REMARK  Name = 
REMARK  6 active torsions:
REMARK  status: ('A' for Active; 'I' for Inactive)
REMARK    1  A    between atoms: C_1  and  O_2
REMARK    2  A    between atoms: O_2  and  C_3
REMARK    3  A    between atoms: C_9  and  C_10
REMARK    4  A    between atoms: C_10  and  N_11
REMARK    5  A    between atoms: C_16  and  N_17
REMARK    6  A    between atoms: C_18  and  C_20
REMARK                            x       y       z     vdW  Elec       q    Type
REMARK                         _______ _______ _______ _____ _____    ______ ____
ROOT
ATOM      1  N   UNL     1       1.872   8.861  18.562  0.00  0.00    +0.000 N 
ATOM      2  C   UNL     1       1.816  10.229  18.558  0.00  0.00    +0.000 C 
ATOM      3  O   UNL     1       2.635  10.938  17.982  0.00  0.00    +0.000 OA
ATOM      4  N   UNL     1       0.758  10.742  19.252  0.00  0.00    +0.000 N 
ATOM      5  C   UNL     1      -0.353  10.149  19.976  0.00  0.00    +0.000 C 
ATOM      6  C   UNL     1      -1.236  11.237  19.324  0.00  0.00    +0.000 C 
ATOM      7  C   UNL     1       0.074  12.006  19.025  0.00  0.00    +0.000 C 
ATOM      8  H   UNL     1       0.973   8.407  18.601  0.00  0.00    +0.000 HD
ENDROOT
BRANCH   6   9
ATOM      9  N   UNL     1      -1.988  10.779  18.121  0.00  0.00    +0.000 N 
ATOM     10  C   UNL     1      -3.333  11.066  17.957  0.00  0.00    +0.000 C 
ATOM     11  O   UNL     1      -3.947  11.731  18.794  0.00  0.00    +0.000 OA
ATOM     12  H   UNL     1      -1.527  10.217  17.415  0.00  0.00    +0.000 HD
BRANCH  10  13
ATOM     13  C   UNL     1      -3.969  10.473  16.670  0.00  0.00    +0.000 C 
ATOM     14  C   UNL     1      -4.015  11.394  15.419  0.00  0.00    +0.000 C 
ATOM     15  C   UNL     1      -3.711  10.152  14.565  0.00  0.00    +0.000 C 
ATOM     16  C   UNL     1      -3.081   9.522  15.819  0.00  0.00    +0.000 C 
ENDBRANCH  10  13
ENDBRANCH   6   9
BRANCH   1  17
ATOM     17  C   UNL     1       2.879   8.147  17.806  0.00  0.00    +0.000 C 
BRANCH  17  24
ATOM     18  C   UNL     1       3.910   5.797  17.758  0.00  0.00    +0.000 A 
ATOM     19  C   UNL     1       4.079   4.546  18.358  0.00  0.00    +0.000 A 
ATOM     20  C   UNL     1       3.402   4.233  19.536  0.00  0.00    +0.000 A 
ATOM     21 CL   UNL     1       3.625   2.689  20.264  0.00  0.00    +0.000 Cl
ATOM     22  C   UNL     1       2.554   5.159  20.132  0.00  0.00    +0.000 A 
ATOM     23  C   UNL     1       2.398   6.416  19.557  0.00  0.00    +0.000 A 
ATOM     24  C   UNL     1       3.070   6.757  18.360  0.00  0.00    +0.000 A 
BRANCH  18  26
ATOM     25  C   UNL     1       5.892   5.734  16.444  0.00  0.00    +0.000 C 
ATOM     26  O   UNL     1       4.549   6.179  16.605  0.00  0.00    +0.000 OA
ENDBRANCH  18  26
ENDBRANCH  17  24
ENDBRANCH   1  17
TORSDOF 5
ENDMDL
MODEL 9
REMARK VINA RESULT:      -6.3      3.645      7.805
REMARK  Name = 
REMARK  6 active torsions:
REMARK  status: ('A' for Active; 'I' for Inactive)
REMARK    1  A    between atoms: C_1  and  O_2
REMARK    2  A    between atoms: O_2  and  C_3
REMARK    3  A    between atoms: C_9  and  C_10
REMARK    4  A    between atoms: C_10  and  N_11
REMARK    5  A    between atoms: C_16  and  N_17
REMARK    6  A    between atoms: C_18  and  C_20
REMARK                            x       y       z     vdW  Elec       q    Type
REMARK                         _______ _______ _______ _____ _____    ______ ____
ROOT
ATOM      1  N   UNL     1       3.812   3.907  17.944  0.00  0.00    +0.000 N 
ATOM      2  C   UNL     1       3.818   3.591  19.276  0.00  0.00    +0.000 C 
ATOM      3  O   UNL     1       4.808   3.174  19.867  0.00  0.00    +0.000 OA
ATOM      4  N   UNL     1       2.618   3.786  19.897  0.00  0.00    +0.000 N 
ATOM      5  C   UNL     1       1.328   4.292  19.459  0.00  0.00    +0.000 C 
ATOM      6  C   UNL     1       1.280   5.061  20.798  0.00  0.00    +0.000 C 
ATOM      7  C   UNL     1       2.381   4.095  21.299  0.00  0.00    +0.000 C 
ATOM      8  H   UNL     1       3.184   4.656  17.696  0.00  0.00    +0.000 HD
ENDROOT
BRANCH   6   9
ATOM      9  N   UNL     1       1.690   6.491  20.701  0.00  0.00    +0.000 N 
ATOM     10  C   UNL     1       0.811   7.517  21.003  0.00  0.00    +0.000 C 
ATOM     11  O   UNL     1      -0.338   7.278  21.383  0.00  0.00    +0.000 OA
ATOM     12  H   UNL     1       2.619   6.734  20.377  0.00  0.00    +0.000 HD
BRANCH  10  13
ATOM     13  C   UNL     1       1.389   8.945  20.802  0.00  0.00    +0.000 C 
ATOM     14  C   UNL     1       0.908   9.729  19.550  0.00  0.00    +0.000 C 
ATOM     15  C   UNL     1       0.910  11.000  20.415  0.00  0.00    +0.000 C 
ATOM     16  C   UNL     1       0.752  10.088  21.644  0.00  0.00    +0.000 C 
ENDBRANCH  10  13
ENDBRANCH   6   9
BRANCH   1  17
ATOM     17  C   UNL     1       5.021   3.842  17.150  0.00  0.00    +0.000 C 
BRANCH  17  24
ATOM     18  C   UNL     1       5.423   6.375  17.231  0.00  0.00    +0.000 A 
ATOM     19  C   UNL     1       6.265   7.450  17.533  0.00  0.00    +0.000 A 
ATOM     20  C   UNL     1       7.566   7.222  17.977  0.00  0.00    +0.000 A 
ATOM     21 CL   UNL     1       8.587   8.557  18.349  0.00  0.00    +0.000 Cl
ATOM     22  C   UNL     1       8.044   5.926  18.131  0.00  0.00    +0.000 A 
ATOM     23  C   UNL     1       7.207   4.848  17.857  0.00  0.00    +0.000 A 
ATOM     24  C   UNL     1       5.884   5.054  17.400  0.00  0.00    +0.000 A 
BRANCH  18  26
ATOM     25  C   UNL     1       3.305   7.411  17.543  0.00  0.00    +0.000 C 
ATOM     26  O   UNL     1       4.129   6.522  16.796  0.00  0.00    +0.000 OA
ENDBRANCH  18  26
ENDBRANCH  17  24
ENDBRANCH   1  17
TORSDOF 5
ENDMDL
