MODEL 1
REMARK VINA RESULT:      -6.4      0.000      0.000
REMARK  Name = 
REMARK  5 active torsions:
REMARK  status: ('A' for Active; 'I' for Inactive)
REMARK    1  A    between atoms: C_1  and  O_2
REMARK    2  A    between atoms: O_2  and  C_3
REMARK    3  A    between atoms: C_5  and  C_6
REMARK    4  A    between atoms: N_9  and  C_10
REMARK    5  A    between atoms: C_11  and  C_12
REMARK                            x       y       z     vdW  Elec       q    Type
REMARK                         _______ _______ _______ _____ _____    ______ ____
ROOT
ATOM      1  C   UNL     1       2.569   3.742  17.588  0.00  0.00    +0.000 A 
ATOM      2  C   UNL     1       2.057   4.828  18.247  0.00  0.00    +0.000 A 
ATOM      3  C   UNL     1       2.813   5.969  18.165  0.00  0.00    +0.000 A 
ATOM      4  C   UNL     1       2.387   7.238  18.844  0.00  0.00    +0.000 C 
ATOM      5  N   UNL     1       3.985   6.014  17.495  0.00  0.00    +0.000 NA
ATOM      6  C   UNL     1       4.424   4.901  16.892  0.00  0.00    +0.000 A 
ATOM      7  N   UNL     1       5.653   4.901  16.193  0.00  0.00    +0.000 N 
ATOM      8  C   UNL     1       5.881   3.807  15.257  0.00  0.00    +0.000 C 
ATOM      9  C   UNL     1       6.679   5.820  16.306  0.00  0.00    +0.000 C 
ATOM     10  C   UNL     1       6.697   6.924  17.337  0.00  0.00    +0.000 C 
ATOM     11  O   UNL     1       7.683   5.728  15.581  0.00  0.00    +0.000 OA
ATOM     12  N   UNL     1       3.724   3.760  16.904  0.00  0.00    +0.000 NA
ENDROOT
BRANCH   1  14
ATOM     13  C   UNL     1       0.982   2.523  18.803  0.00  0.00    +0.000 C 
ATOM     14  O   UNL     1       1.844   2.569  17.666  0.00  0.00    +0.000 OA
ENDBRANCH   1  14
TORSDOF 1
ENDMDL
MODEL 2
REMARK VINA RESULT:      -6.1      2.339      4.770
REMARK  Name = 
REMARK  5 active torsions:
REMARK  status: ('A' for Active; 'I' for Inactive)
REMARK    1  A    between atoms: C_1  and  O_2
REMARK    2  A    between atoms: O_2  and  C_3
REMARK    3  A    between atoms: C_5  and  C_6
REMARK    4  A    between atoms: N_9  and  C_10
REMARK    5  A    between atoms: C_11  and  C_12
REMARK                            x       y       z     vdW  Elec       q    Type
REMARK                         _______ _______ _______ _____ _____    ______ ____
ROOT
ATOM      1  C   UNL     1       5.037   4.405  16.981  0.00  0.00    +0.000 A 
ATOM      2  C   UNL     1       4.610   5.692  16.794  0.00  0.00    +0.000 A 
ATOM      3  C   UNL     1       3.793   6.184  17.779  0.00  0.00    +0.000 A 
ATOM      4  C   UNL     1       3.236   7.576  17.709  0.00  0.00    +0.000 C 
ATOM      5  N   UNL     1       3.423   5.446  18.849  0.00  0.00    +0.000 NA
ATOM      6  C   UNL     1       3.872   4.187  18.947  0.00  0.00    +0.000 A 
ATOM      7  N   UNL     1       3.497   3.376  20.042  0.00  0.00    +0.000 N 
ATOM      8  C   UNL     1       4.303   2.187  20.291  0.00  0.00    +0.000 C 
ATOM      9  C   UNL     1       2.435   3.574  20.905  0.00  0.00    +0.000 C 
ATOM     10  C   UNL     1       1.396   4.653  20.710  0.00  0.00    +0.000 C 
ATOM     11  O   UNL     1       2.260   2.808  21.867  0.00  0.00    +0.000 OA
ATOM     12  N   UNL     1       4.698   3.651  18.040  0.00  0.00    +0.000 NA
ENDROOT
BRANCH   1  14
ATOM     13  C   UNL     1       6.878   4.761  15.581  0.00  0.00    +0.000 C 
ATOM     14  O   UNL     1       5.846   3.869  15.998  0.00  0.00    +0.000 OA
ENDBRANCH   1  14
TORSDOF 1
ENDMDL
MODEL 3
REMARK VINA RESULT:      -6.0      1.598      3.173
REMARK  Name = 
REMARK  5 active torsions:
REMARK  status: ('A' for Active; 'I' for Inactive)
REMARK    1  A    between atoms: C_1  and  O_2
REMARK    2  A    between atoms: O_2  and  C_3
REMARK    3  A    between atoms: C_5  and  C_6
REMARK    4  A    between atoms: N_9  and  C_10
REMARK    5  A    between atoms: C_11  and  C_12
REMARK                            x       y       z     vdW  Elec       q    Type
REMARK                         _______ _______ _______ _____ _____    ______ ____
ROOT
ATOM      1  C   UNL     1       2.920   6.393  18.352  0.00  0.00    +0.000 A 
ATOM      2  C   UNL     1       2.277   5.185  18.303  0.00  0.00    +0.000 A 
ATOM      3  C   UNL     1       2.951   4.192  17.641  0.00  0.00    +0.000 A 
ATOM      4  C   UNL     1       2.369   2.816  17.494  0.00  0.00    +0.000 C 
ATOM      5  N   UNL     1       4.156   4.395  17.065  0.00  0.00    +0.000 NA
ATOM      6  C   UNL     1       4.710   5.612  17.144  0.00  0.00    +0.000 A 
ATOM      7  N   UNL     1       5.962   5.871  16.543  0.00  0.00    +0.000 N 
ATOM      8  C   UNL     1       6.673   7.066  16.982  0.00  0.00    +0.000 C 
ATOM      9  C   UNL     1       6.591   5.123  15.566  0.00  0.00    +0.000 C 
ATOM     10  C   UNL     1       5.943   3.949  14.870  0.00  0.00    +0.000 C 
ATOM     11  O   UNL     1       7.726   5.438  15.170  0.00  0.00    +0.000 OA
ATOM     12  N   UNL     1       4.124   6.621  17.801  0.00  0.00    +0.000 NA
ENDROOT
BRANCH   1  14
ATOM     13  C   UNL     1       2.042   8.553  18.151  0.00  0.00    +0.000 C 
ATOM     14  O   UNL     1       2.261   7.423  18.994  0.00  0.00    +0.000 OA
ENDBRANCH   1  14
TORSDOF 1
ENDMDL
MODEL 4
REMARK VINA RESULT:      -6.0      1.717      2.980
REMARK  Name = 
REMARK  5 active torsions:
REMARK  status: ('A' for Active; 'I' for Inactive)
REMARK    1  A    between atoms: C_1  and  O_2
REMARK    2  A    between atoms: O_2  and  C_3
REMARK    3  A    between atoms: C_5  and  C_6
REMARK    4  A    between atoms: N_9  and  C_10
REMARK    5  A    between atoms: C_11  and  C_12
REMARK                            x       y       z     vdW  Elec       q    Type
REMARK                         _______ _______ _______ _____ _____    ______ ____
ROOT
ATOM      1  C   UNL     1       3.513   5.467  18.994  0.00  0.00    +0.000 A 
ATOM      2  C   UNL     1       2.998   4.203  18.885  0.00  0.00    +0.000 A 
ATOM      3  C   UNL     1       3.646   3.384  17.996  0.00  0.00    +0.000 A 
ATOM      4  C   UNL     1       3.191   1.974  17.759  0.00  0.00    +0.000 C 
ATOM      5  N   UNL     1       4.706   3.800  17.268  0.00  0.00    +0.000 NA
ATOM      6  C   UNL     1       5.137   5.059  17.423  0.00  0.00    +0.000 A 
ATOM      7  N   UNL     1       6.233   5.539  16.670  0.00  0.00    +0.000 N 
ATOM      8  C   UNL     1       6.883   6.753  17.149  0.00  0.00    +0.000 C 
ATOM      9  C   UNL     1       6.757   4.993  15.514  0.00  0.00    +0.000 C 
ATOM     10  C   UNL     1       6.121   3.837  14.778  0.00  0.00    +0.000 C 
ATOM     11  O   UNL     1       7.767   5.490  14.990  0.00  0.00    +0.000 OA
ATOM     12  N   UNL     1       4.573   5.904  18.295  0.00  0.00    +0.000 NA
ENDROOT
BRANCH   1  14
ATOM     13  C   UNL     1       1.803   5.703  20.575  0.00  0.00    +0.000 C 
ATOM     14  O   UNL     1       2.874   6.326  19.866  0.00  0.00    +0.000 OA
ENDBRANCH   1  14
TORSDOF 1
ENDMDL
MODEL 5
REMARK VINA RESULT:      -5.9      1.447      5.401
REMARK  Name = 
REMARK  5 active torsions:
REMARK  status: ('A' for Active; 'I' for Inactive)
REMARK    1  A    between atoms: C_1  and  O_2
REMARK    2  A    between atoms: O_2  and  C_3
REMARK    3  A    between atoms: C_5  and  C_6
REMARK    4  A    between atoms: N_9  and  C_10
REMARK    5  A    between atoms: C_11  and  C_12
REMARK                            x       y       z     vdW  Elec       q    Type
REMARK                         _______ _______ _______ _____ _____    ______ ____
ROOT
ATOM      1  C   UNL     1       6.712   6.029  17.592  0.00  0.00    +0.000 A 
ATOM      2  C   UNL     1       6.977   5.411  16.399  0.00  0.00    +0.000 A 
ATOM      3  C   UNL     1       5.949   4.658  15.892  0.00  0.00    +0.000 A 
ATOM      4  C   UNL     1       6.093   3.912  14.598  0.00  0.00    +0.000 C 
ATOM      5  N   UNL     1       4.766   4.524  16.531  0.00  0.00    +0.000 NA
ATOM      6  C   UNL     1       4.595   5.149  17.704  0.00  0.00    +0.000 A 
ATOM      7  N   UNL     1       3.378   5.023  18.412  0.00  0.00    +0.000 N 
ATOM      8  C   UNL     1       3.114   6.008  19.454  0.00  0.00    +0.000 C 
ATOM      9  C   UNL     1       2.406   4.056  18.239  0.00  0.00    +0.000 C 
ATOM     10  C   UNL     1       2.573   2.863  17.328  0.00  0.00    +0.000 C 
ATOM     11  O   UNL     1       1.352   4.104  18.895  0.00  0.00    +0.000 OA
ATOM     12  N   UNL     1       5.543   5.926  18.244  0.00  0.00    +0.000 NA
ENDROOT
BRANCH   1  14
ATOM     13  C   UNL     1       7.792   8.106  17.619  0.00  0.00    +0.000 C 
ATOM     14  O   UNL     1       7.732   6.780  18.143  0.00  0.00    +0.000 OA
ENDBRANCH   1  14
TORSDOF 1
ENDMDL
MODEL 6
REMARK VINA RESULT:      -5.8      1.831      4.837
REMARK  Name = 
REMARK  5 active torsions:
REMARK  status: ('A' for Active; 'I' for Inactive)
REMARK    1  A    between atoms: C_1  and  O_2
REMARK    2  A    between atoms: O_2  and  C_3
REMARK    3  A    between atoms: C_5  and  C_6
REMARK    4  A    between atoms: N_9  and  C_10
REMARK    5  A    between atoms: C_11  and  C_12
REMARK                            x       y       z     vdW  Elec       q    Type
REMARK                         _______ _______ _______ _____ _____    ______ ____
ROOT
ATOM      1  C   UNL     1       6.008   4.006  16.177  0.00  0.00    +0.000 A 
ATOM      2  C   UNL     1       6.927   4.679  16.937  0.00  0.00    +0.000 A 
ATOM      3  C   UNL     1       6.520   4.980  18.212  0.00  0.00    +0.000 A 
ATOM      4  C   UNL     1       7.413   5.725  19.161  0.00  0.00    +0.000 C 
ATOM      5  N   UNL     1       5.295   4.651  18.677  0.00  0.00    +0.000 NA
ATOM      6  C   UNL     1       4.449   4.008  17.862  0.00  0.00    +0.000 A 
ATOM      7  N   UNL     1       3.153   3.658  18.305  0.00  0.00    +0.000 N 
ATOM      8  C   UNL     1       2.440   2.647  17.533  0.00  0.00    +0.000 C 
ATOM      9  C   UNL     1       2.471   4.179  19.388  0.00  0.00    +0.000 C 
ATOM     10  C   UNL     1       2.974   5.345  20.206  0.00  0.00    +0.000 C 
ATOM     11  O   UNL     1       1.354   3.731  19.698  0.00  0.00    +0.000 OA
ATOM     12  N   UNL     1       4.789   3.654  16.616  0.00  0.00    +0.000 NA
ENDROOT
BRANCH   1  14
ATOM     13  C   UNL     1       6.954   4.813  14.194  0.00  0.00    +0.000 C 
ATOM     14  O   UNL     1       6.375   3.704  14.880  0.00  0.00    +0.000 OA
ENDBRANCH   1  14
TORSDOF 1
ENDMDL
MODEL 7
REMARK VINA RESULT:      -5.7      2.306      5.539
REMARK  Name = 
REMARK  5 active torsions:
REMARK  status: ('A' for Active; 'I' for Inactive)
REMARK    1  A    between atoms: C_1  and  O_2
REMARK    2  A    between atoms: O_2  and  C_3
REMARK    3  A    between atoms: C_5  and  C_6
REMARK    4  A    between atoms: N_9  and  C_10
REMARK    5  A    between atoms: C_11  and  C_12
REMARK                            x       y       z     vdW  Elec       q    Type
REMARK                         _______ _______ _______ _____ _____    ______ ____
ROOT
ATOM      1  C   UNL     1       6.080   5.049  19.152  0.00  0.00    +0.000 A 
ATOM      2  C   UNL     1       6.327   4.764  17.835  0.00  0.00    +0.000 A 
ATOM      3  C   UNL     1       5.264   4.242  17.143  0.00  0.00    +0.000 A 
ATOM      4  C   UNL     1       5.383   3.869  15.694  0.00  0.00    +0.000 C 
ATOM      5  N   UNL     1       4.065   4.013  17.723  0.00  0.00    +0.000 NA
ATOM      6  C   UNL     1       3.913   4.305  19.022  0.00  0.00    +0.000 A 
ATOM      7  N   UNL     1       2.679   4.066  19.670  0.00  0.00    +0.000 N 
ATOM      8  C   UNL     1       2.458   4.745  20.941  0.00  0.00    +0.000 C 
ATOM      9  C   UNL     1       1.654   3.245  19.241  0.00  0.00    +0.000 C 
ATOM     10  C   UNL     1       1.764   2.336  18.039  0.00  0.00    +0.000 C 
ATOM     11  O   UNL     1       0.595   3.177  19.887  0.00  0.00    +0.000 OA
ATOM     12  N   UNL     1       4.896   4.845  19.752  0.00  0.00    +0.000 NA
ENDROOT
BRANCH   1  14
ATOM     13  C   UNL     1       8.069   6.282  19.087  0.00  0.00    +0.000 C 
ATOM     14  O   UNL     1       7.134   5.557  19.885  0.00  0.00    +0.000 OA
ENDBRANCH   1  14
TORSDOF 1
ENDMDL
MODEL 8
REMARK VINA RESULT:      -5.7      1.927      2.565
REMARK  Name = 
REMARK  5 active torsions:
REMARK  status: ('A' for Active; 'I' for Inactive)
REMARK    1  A    between atoms: C_1  and  O_2
REMARK    2  A    between atoms: O_2  and  C_3
REMARK    3  A    between atoms: C_5  and  C_6
REMARK    4  A    between atoms: N_9  and  C_10
REMARK    5  A    between atoms: C_11  and  C_12
REMARK                            x       y       z     vdW  Elec       q    Type
REMARK                         _______ _______ _______ _____ _____    ______ ____
ROOT
ATOM      1  C   UNL     1       2.611   3.627  18.189  0.00  0.00    +0.000 A 
ATOM      2  C   UNL     1       3.064   2.760  19.148  0.00  0.00    +0.000 A 
ATOM      3  C   UNL     1       4.389   2.893  19.476  0.00  0.00    +0.000 A 
ATOM      4  C   UNL     1       5.032   2.007  20.502  0.00  0.00    +0.000 C 
ATOM      5  N   UNL     1       5.192   3.804  18.885  0.00  0.00    +0.000 NA
ATOM      6  C   UNL     1       4.674   4.604  17.943  0.00  0.00    +0.000 A 
ATOM      7  N   UNL     1       5.484   5.560  17.290  0.00  0.00    +0.000 N 
ATOM      8  C   UNL     1       4.799   6.633  16.578  0.00  0.00    +0.000 C 
ATOM      9  C   UNL     1       6.865   5.590  17.235  0.00  0.00    +0.000 C 
ATOM     10  C   UNL     1       7.742   4.481  17.768  0.00  0.00    +0.000 C 
ATOM     11  O   UNL     1       7.449   6.531  16.672  0.00  0.00    +0.000 OA
ATOM     12  N   UNL     1       3.383   4.551  17.594  0.00  0.00    +0.000 NA
ENDROOT
BRANCH   1  14
ATOM     13  C   UNL     1       0.542   2.650  18.683  0.00  0.00    +0.000 C 
ATOM     14  O   UNL     1       1.286   3.508  17.818  0.00  0.00    +0.000 OA
ENDBRANCH   1  14
TORSDOF 1
ENDMDL
MODEL 9
REMARK VINA RESULT:      -5.6      2.122      2.448
REMARK  Name = 
REMARK  5 active torsions:
REMARK  status: ('A' for Active; 'I' for Inactive)
REMARK    1  A    between atoms: C_1  and  O_2
REMARK    2  A    between atoms: O_2  and  C_3
REMARK    3  A    between atoms: C_5  and  C_6
REMARK    4  A    between atoms: N_9  and  C_10
REMARK    5  A    between atoms: C_11  and  C_12
REMARK                            x       y       z     vdW  Elec       q    Type
REMARK                         _______ _______ _______ _____ _____    ______ ____
ROOT
ATOM      1  C   UNL     1       4.105   3.161  19.752  0.00  0.00    +0.000 A 
ATOM      2  C   UNL     1       2.848   3.308  19.228  0.00  0.00    +0.000 A 
ATOM      3  C   UNL     1       2.780   4.050  18.077  0.00  0.00    +0.000 A 
ATOM      4  C   UNL     1       1.470   4.309  17.392  0.00  0.00    +0.000 C 
ATOM      5  N   UNL     1       3.872   4.608  17.509  0.00  0.00    +0.000 NA
ATOM      6  C   UNL     1       5.063   4.429  18.095  0.00  0.00    +0.000 A 
ATOM      7  N   UNL     1       6.228   5.007  17.542  0.00  0.00    +0.000 N 
ATOM      8  C   UNL     1       7.509   4.471  17.988  0.00  0.00    +0.000 C 
ATOM      9  C   UNL     1       6.295   6.042  16.628  0.00  0.00    +0.000 C 
ATOM     10  C   UNL     1       5.089   6.832  16.176  0.00  0.00    +0.000 C 
ATOM     11  O   UNL     1       7.393   6.410  16.180  0.00  0.00    +0.000 OA
ATOM     12  N   UNL     1       5.210   3.691  19.203  0.00  0.00    +0.000 NA
ENDROOT
BRANCH   1  14
ATOM     13  C   UNL     1       2.961   2.287  21.597  0.00  0.00    +0.000 C 
ATOM     14  O   UNL     1       4.209   2.436  20.923  0.00  0.00    +0.000 OA
ENDBRANCH   1  14
TORSDOF 1
ENDMDL
