MODEL 1
REMARK VINA RESULT:      -8.5      0.000      0.000
REMARK  Name = 
REMARK  8 active torsions:
REMARK  status: ('A' for Active; 'I' for Inactive)
REMARK    1  A    between atoms: C_1  and  C_2
REMARK    2  A    between atoms: C_2  and  C_3
REMARK    3  A    between atoms: C_2  and  N_4
REMARK    4  A    between atoms: N_7  and  C_8
REMARK    5  A    between atoms: C_14  and  O_15
REMARK    6  A    between atoms: O_15  and  C_16
REMARK    7  A    between atoms: C_16  and  C_17
REMARK    8  A    between atoms: C_20  and  C_21
REMARK                            x       y       z     vdW  Elec       q    Type
REMARK                         _______ _______ _______ _____ _____    ______ ____
ROOT
ATOM      1  C   UNL     1       1.853   6.417  19.482  0.00  0.00    +0.000 C 
ATOM      2  C   UNL     1       1.106   5.589  20.557  0.00  0.00    +0.000 C 
ATOM      3  C   UNL     1       1.550   4.126  20.436  0.00  0.00    +0.000 C 
ATOM      4  C   UNL     1       2.873   4.258  19.758  0.00  0.00    +0.000 A 
ATOM      5  C   UNL     1       3.869   3.301  19.651  0.00  0.00    +0.000 A 
ATOM      6  C   UNL     1       5.012   3.604  18.906  0.00  0.00    +0.000 A 
ATOM      7  C   UNL     1       5.122   4.833  18.237  0.00  0.00    +0.000 A 
ATOM      8  C   UNL     1       4.115   5.791  18.364  0.00  0.00    +0.000 A 
ATOM      9  C   UNL     1       3.012   5.510  19.157  0.00  0.00    +0.000 A 
ENDROOT
BRANCH   1  13
ATOM     10  N   UNL     1       0.099   9.978  19.575  0.00  0.00    +0.000 NA
ATOM     11  C   UNL     1       0.735   9.339  18.397  0.00  0.00    +0.000 C 
ATOM     12  C   UNL     1       2.136   8.720  18.634  0.00  0.00    +0.000 C 
ATOM     13  N   UNL     1       2.232   7.809  19.782  0.00  0.00    +0.000 NA
ATOM     14  C   UNL     1       1.610   8.444  20.958  0.00  0.00    +0.000 C 
ATOM     15  C   UNL     1       0.218   9.073  20.739  0.00  0.00    +0.000 C 
BRANCH  10  17
ATOM     16  C   UNL     1       0.042  12.295  18.710  0.00  0.00    +0.000 C 
ATOM     17  C   UNL     1       0.581  11.358  19.808  0.00  0.00    +0.000 C 
ATOM     18  C   UNL     1       0.119  11.959  21.150  0.00  0.00    +0.000 C 
ENDBRANCH  10  17
ENDBRANCH   1  13
BRANCH   7  19
ATOM     19  O   UNL     1       6.182   5.224  17.473  0.00  0.00    +0.000 OA
BRANCH  19  20
ATOM     20  C   UNL     1       7.381   5.563  18.176  0.00  0.00    +0.000 C 
BRANCH  20  21
ATOM     21  C   UNL     1       7.685   7.012  18.005  0.00  0.00    +0.000 A 
ATOM     22  N   UNL     1       7.089   7.756  17.065  0.00  0.00    +0.000 NA
ATOM     23  O   UNL     1       7.601   9.030  17.296  0.00  0.00    +0.000 OA
ATOM     24  C   UNL     1       8.465   8.923  18.352  0.00  0.00    +0.000 A 
ATOM     25  N   UNL     1       8.568   7.694  18.810  0.00  0.00    +0.000 NA
BRANCH  24  26
ATOM     26  C   UNL     1       9.124  10.148  18.786  0.00  0.00    +0.000 A 
ATOM     27  C   UNL     1       9.637  11.077  17.868  0.00  0.00    +0.000 A 
ATOM     28  C   UNL     1      10.279  12.240  18.306  0.00  0.00    +0.000 A 
ATOM     29  C   UNL     1      10.415  12.482  19.671  0.00  0.00    +0.000 A 
ATOM     30 CL   UNL     1      11.214  13.907  20.209  0.00  0.00    +0.000 Cl
ATOM     31  C   UNL     1       9.907  11.577  20.599  0.00  0.00    +0.000 A 
ATOM     32  C   UNL     1       9.265  10.415  20.159  0.00  0.00    +0.000 A 
ENDBRANCH  24  26
ENDBRANCH  20  21
ENDBRANCH  19  20
ENDBRANCH   7  19
TORSDOF 6
ENDMDL
MODEL 2
REMARK VINA RESULT:      -8.1      0.714      1.194
REMARK  Name = 
REMARK  8 active torsions:
REMARK  status: ('A' for Active; 'I' for Inactive)
REMARK    1  A    between atoms: C_1  and  C_2
REMARK    2  A    between atoms: C_2  and  C_3
REMARK    3  A    between atoms: C_2  and  N_4
REMARK    4  A    between atoms: N_7  and  C_8
REMARK    5  A    between atoms: C_14  and  O_15
REMARK    6  A    between atoms: O_15  and  C_16
REMARK    7  A    between atoms: C_16  and  C_17
REMARK    8  A    between atoms: C_20  and  C_21
REMARK                            x       y       z     vdW  Elec       q    Type
REMARK                         _______ _______ _______ _____ _____    ______ ____
ROOT
ATOM      1  C   UNL     1       1.882   6.315  19.406  0.00  0.00    +0.000 C 
ATOM      2  C   UNL     1       1.216   5.380  20.446  0.00  0.00    +0.000 C 
ATOM      3  C   UNL     1       1.676   3.943  20.168  0.00  0.00    +0.000 C 
ATOM      4  C   UNL     1       2.953   4.163  19.428  0.00  0.00    +0.000 A 
ATOM      5  C   UNL     1       3.957   3.242  19.178  0.00  0.00    +0.000 A 
ATOM      6  C   UNL     1       5.048   3.634  18.396  0.00  0.00    +0.000 A 
ATOM      7  C   UNL     1       5.095   4.919  17.833  0.00  0.00    +0.000 A 
ATOM      8  C   UNL     1       4.082   5.840  18.105  0.00  0.00    +0.000 A 
ATOM      9  C   UNL     1       3.035   5.466  18.934  0.00  0.00    +0.000 A 
ENDROOT
BRANCH   1  13
ATOM     10  N   UNL     1       0.115   9.854  19.750  0.00  0.00    +0.000 NA
ATOM     11  C   UNL     1       0.756   9.303  18.530  0.00  0.00    +0.000 C 
ATOM     12  C   UNL     1       2.158   8.674  18.725  0.00  0.00    +0.000 C 
ATOM     13  N   UNL     1       2.255   7.683  19.806  0.00  0.00    +0.000 NA
ATOM     14  C   UNL     1       1.629   8.231  21.022  0.00  0.00    +0.000 C 
ATOM     15  C   UNL     1       0.234   8.869  20.846  0.00  0.00    +0.000 C 
BRANCH  10  17
ATOM     16  C   UNL     1       0.641  12.079  18.807  0.00  0.00    +0.000 C 
ATOM     17  C   UNL     1       0.591  11.215  20.082  0.00  0.00    +0.000 C 
ATOM     18  C   UNL     1      -0.319  11.967  21.074  0.00  0.00    +0.000 C 
ENDBRANCH  10  17
ENDBRANCH   1  13
BRANCH   7  19
ATOM     19  O   UNL     1       6.100   5.399  17.046  0.00  0.00    +0.000 OA
BRANCH  19  20
ATOM     20  C   UNL     1       6.084   6.804  16.780  0.00  0.00    +0.000 C 
BRANCH  20  21
ATOM     21  C   UNL     1       7.118   7.496  17.600  0.00  0.00    +0.000 A 
ATOM     22  N   UNL     1       7.890   6.836  18.472  0.00  0.00    +0.000 NA
ATOM     23  O   UNL     1       8.739   7.827  18.958  0.00  0.00    +0.000 OA
ATOM     24  C   UNL     1       8.384   8.992  18.334  0.00  0.00    +0.000 A 
ATOM     25  N   UNL     1       7.374   8.844  17.503  0.00  0.00    +0.000 NA
BRANCH  24  26
ATOM     26  C   UNL     1       9.150  10.182  18.682  0.00  0.00    +0.000 A 
ATOM     27  C   UNL     1       9.488  10.482  20.011  0.00  0.00    +0.000 A 
ATOM     28  C   UNL     1      10.211  11.637  20.325  0.00  0.00    +0.000 A 
ATOM     29  C   UNL     1      10.602  12.505  19.309  0.00  0.00    +0.000 A 
ATOM     30 CL   UNL     1      11.482  13.931  19.697  0.00  0.00    +0.000 Cl
ATOM     31  C   UNL     1      10.284  12.224  17.983  0.00  0.00    +0.000 A 
ATOM     32  C   UNL     1       9.560  11.068  17.671  0.00  0.00    +0.000 A 
ENDBRANCH  24  26
ENDBRANCH  20  21
ENDBRANCH  19  20
ENDBRANCH   7  19
TORSDOF 6
ENDMDL
MODEL 3
REMARK VINA RESULT:      -7.8      5.227      9.656
REMARK  Name = 
REMARK  8 active torsions:
REMARK  status: ('A' for Active; 'I' for Inactive)
REMARK    1  A    between atoms: C_1  and  C_2
REMARK    2  A    between atoms: C_2  and  C_3
REMARK    3  A    between atoms: C_2  and  N_4
REMARK    4  A    between atoms: N_7  and  C_8
REMARK    5  A    between atoms: C_14  and  O_15
REMARK    6  A    between atoms: O_15  and  C_16
REMARK    7  A    between atoms: C_16  and  C_17
REMARK    8  A    between atoms: C_20  and  C_21
REMARK                            x       y       z     vdW  Elec       q    Type
REMARK                         _______ _______ _______ _____ _____    ______ ____
ROOT
ATOM      1  C   UNL     1       4.609   4.977  18.221  0.00  0.00    +0.000 C 
ATOM      2  C   UNL     1       4.423   3.502  18.654  0.00  0.00    +0.000 C 
ATOM      3  C   UNL     1       3.678   3.481  19.994  0.00  0.00    +0.000 C 
ATOM      4  C   UNL     1       2.987   4.804  19.986  0.00  0.00    +0.000 A 
ATOM      5  C   UNL     1       1.942   5.218  20.795  0.00  0.00    +0.000 A 
ATOM      6  C   UNL     1       1.481   6.533  20.675  0.00  0.00    +0.000 A 
ATOM      7  C   UNL     1       2.103   7.427  19.789  0.00  0.00    +0.000 A 
ATOM      8  C   UNL     1       3.146   6.991  18.972  0.00  0.00    +0.000 A 
ATOM      9  C   UNL     1       3.556   5.668  19.049  0.00  0.00    +0.000 A 
ENDROOT
BRANCH   1  13
ATOM     10  N   UNL     1       6.873   4.374  15.015  0.00  0.00    +0.000 NA
ATOM     11  C   UNL     1       6.986   5.500  15.976  0.00  0.00    +0.000 C 
ATOM     12  C   UNL     1       5.660   6.206  16.354  0.00  0.00    +0.000 C 
ATOM     13  N   UNL     1       4.576   5.314  16.787  0.00  0.00    +0.000 NA
ATOM     14  C   UNL     1       4.454   4.201  15.829  0.00  0.00    +0.000 C 
ATOM     15  C   UNL     1       5.765   3.489  15.435  0.00  0.00    +0.000 C 
BRANCH  10  17
ATOM     16  C   UNL     1       8.129   5.516  13.216  0.00  0.00    +0.000 C 
ATOM     17  C   UNL     1       6.807   4.828  13.608  0.00  0.00    +0.000 C 
ATOM     18  C   UNL     1       6.603   3.683  12.595  0.00  0.00    +0.000 C 
ENDBRANCH  10  17
ENDBRANCH   1  13
BRANCH   7  19
ATOM     19  O   UNL     1       1.746   8.730  19.604  0.00  0.00    +0.000 OA
BRANCH  19  20
ATOM     20  C   UNL     1       1.255   9.077  18.307  0.00  0.00    +0.000 C 
BRANCH  20  21
ATOM     21  C   UNL     1       0.200  10.124  18.418  0.00  0.00    +0.000 A 
ATOM     22  N   UNL     1       0.496  11.406  18.660  0.00  0.00    +0.000 NA
ATOM     23  O   UNL     1      -0.747  12.034  18.618  0.00  0.00    +0.000 OA
ATOM     24  C   UNL     1      -1.672  11.058  18.362  0.00  0.00    +0.000 A 
ATOM     25  N   UNL     1      -1.140   9.860  18.252  0.00  0.00    +0.000 NA
BRANCH  24  26
ATOM     26  C   UNL     1      -3.062  11.485  18.262  0.00  0.00    +0.000 A 
ATOM     27  C   UNL     1      -3.713  12.139  19.320  0.00  0.00    +0.000 A 
ATOM     28  C   UNL     1      -5.052  12.527  19.209  0.00  0.00    +0.000 A 
ATOM     29  C   UNL     1      -5.754  12.259  18.036  0.00  0.00    +0.000 A 
ATOM     30 CL   UNL     1      -7.404  12.726  17.905  0.00  0.00    +0.000 Cl
ATOM     31  C   UNL     1      -5.127  11.617  16.973  0.00  0.00    +0.000 A 
ATOM     32  C   UNL     1      -3.787  11.230  17.085  0.00  0.00    +0.000 A 
ENDBRANCH  24  26
ENDBRANCH  20  21
ENDBRANCH  19  20
ENDBRANCH   7  19
TORSDOF 6
ENDMDL
MODEL 4
REMARK VINA RESULT:      -7.7      0.915      1.275
REMARK  Name = 
REMARK  8 active torsions:
REMARK  status: ('A' for Active; 'I' for Inactive)
REMARK    1  A    between atoms: C_1  and  C_2
REMARK    2  A    between atoms: C_2  and  C_3
REMARK    3  A    between atoms: C_2  and  N_4
REMARK    4  A    between atoms: N_7  and  C_8
REMARK    5  A    between atoms: C_14  and  O_15
REMARK    6  A    between atoms: O_15  and  C_16
REMARK    7  A    between atoms: C_16  and  C_17
REMARK    8  A    between atoms: C_20  and  C_21
REMARK                            x       y       z     vdW  Elec       q    Type
REMARK                         _______ _______ _______ _____ _____    ______ ____
ROOT
ATOM      1  C   UNL     1       1.916   6.064  19.566  0.00  0.00    +0.000 C 
ATOM      2  C   UNL     1       0.787   5.289  20.288  0.00  0.00    +0.000 C 
ATOM      3  C   UNL     1       1.112   3.792  20.227  0.00  0.00    +0.000 C 
ATOM      4  C   UNL     1       2.590   3.803  20.024  0.00  0.00    +0.000 A 
ATOM      5  C   UNL     1       3.475   2.750  20.188  0.00  0.00    +0.000 A 
ATOM      6  C   UNL     1       4.823   2.952  19.874  0.00  0.00    +0.000 A 
ATOM      7  C   UNL     1       5.256   4.181  19.353  0.00  0.00    +0.000 A 
ATOM      8  C   UNL     1       4.355   5.236  19.206  0.00  0.00    +0.000 A 
ATOM      9  C   UNL     1       3.032   5.050  19.580  0.00  0.00    +0.000 A 
ENDROOT
BRANCH   1  13
ATOM     10  N   UNL     1       0.318   9.695  19.739  0.00  0.00    +0.000 NA
ATOM     11  C   UNL     1       1.107   9.131  18.615  0.00  0.00    +0.000 C 
ATOM     12  C   UNL     1       2.425   8.415  19.004  0.00  0.00    +0.000 C 
ATOM     13  N   UNL     1       2.300   7.399  20.058  0.00  0.00    +0.000 NA
ATOM     14  C   UNL     1       1.525   7.959  21.180  0.00  0.00    +0.000 C 
ATOM     15  C   UNL     1       0.212   8.682  20.811  0.00  0.00    +0.000 C 
BRANCH  10  17
ATOM     16  C   UNL     1       1.260  11.844  18.957  0.00  0.00    +0.000 C 
ATOM     17  C   UNL     1       0.813  11.018  20.179  0.00  0.00    +0.000 C 
ATOM     18  C   UNL     1      -0.249  11.868  20.906  0.00  0.00    +0.000 C 
ENDBRANCH  10  17
ENDBRANCH   1  13
BRANCH   7  19
ATOM     19  O   UNL     1       6.539   4.479  19.000  0.00  0.00    +0.000 OA
BRANCH  19  20
ATOM     20  C   UNL     1       6.763   4.795  17.623  0.00  0.00    +0.000 C 
BRANCH  20  21
ATOM     21  C   UNL     1       7.035   6.252  17.467  0.00  0.00    +0.000 A 
ATOM     22  N   UNL     1       6.415   6.994  16.542  0.00  0.00    +0.000 NA
ATOM     23  O   UNL     1       6.902   8.277  16.784  0.00  0.00    +0.000 OA
ATOM     24  C   UNL     1       7.777   8.175  17.830  0.00  0.00    +0.000 A 
ATOM     25  N   UNL     1       7.911   6.943  18.273  0.00  0.00    +0.000 NA
BRANCH  24  26
ATOM     26  C   UNL     1       8.414   9.409  18.274  0.00  0.00    +0.000 A 
ATOM     27  C   UNL     1       9.157   9.471  19.464  0.00  0.00    +0.000 A 
ATOM     28  C   UNL     1       9.748  10.670  19.879  0.00  0.00    +0.000 A 
ATOM     29  C   UNL     1       9.598  11.818  19.106  0.00  0.00    +0.000 A 
ATOM     30 CL   UNL     1      10.315  13.293  19.622  0.00  0.00    +0.000 Cl
ATOM     31  C   UNL     1       8.871  11.777  17.919  0.00  0.00    +0.000 A 
ATOM     32  C   UNL     1       8.281  10.577  17.505  0.00  0.00    +0.000 A 
ENDBRANCH  24  26
ENDBRANCH  20  21
ENDBRANCH  19  20
ENDBRANCH   7  19
TORSDOF 6
ENDMDL
MODEL 5
REMARK VINA RESULT:      -7.5      4.469      7.510
REMARK  Name = 
REMARK  8 active torsions:
REMARK  status: ('A' for Active; 'I' for Inactive)
REMARK    1  A    between atoms: C_1  and  C_2
REMARK    2  A    between atoms: C_2  and  C_3
REMARK    3  A    between atoms: C_2  and  N_4
REMARK    4  A    between atoms: N_7  and  C_8
REMARK    5  A    between atoms: C_14  and  O_15
REMARK    6  A    between atoms: O_15  and  C_16
REMARK    7  A    between atoms: C_16  and  C_17
REMARK    8  A    between atoms: C_20  and  C_21
REMARK                            x       y       z     vdW  Elec       q    Type
REMARK                         _______ _______ _______ _____ _____    ______ ____
ROOT
ATOM      1  C   UNL     1      -1.140  12.707  19.970  0.00  0.00    +0.000 C 
ATOM      2  C   UNL     1      -1.409  13.870  20.957  0.00  0.00    +0.000 C 
ATOM      3  C   UNL     1      -1.855  13.274  22.297  0.00  0.00    +0.000 C 
ATOM      4  C   UNL     1      -1.290  11.895  22.228  0.00  0.00    +0.000 A 
ATOM      5  C   UNL     1      -1.120  10.995  23.267  0.00  0.00    +0.000 A 
ATOM      6  C   UNL     1      -0.635   9.716  22.975  0.00  0.00    +0.000 A 
ATOM      7  C   UNL     1      -0.378   9.338  21.648  0.00  0.00    +0.000 A 
ATOM      8  C   UNL     1      -0.542  10.260  20.613  0.00  0.00    +0.000 A 
ATOM      9  C   UNL     1      -0.962  11.547  20.916  0.00  0.00    +0.000 A 
ENDROOT
BRANCH   1  13
ATOM     10  N   UNL     1       2.016  15.039  19.364  0.00  0.00    +0.000 NA
ATOM     11  C   UNL     1       0.626  15.301  18.915  0.00  0.00    +0.000 C 
ATOM     12  C   UNL     1      -0.100  14.117  18.228  0.00  0.00    +0.000 C 
ATOM     13  N   UNL     1      -0.068  12.848  18.969  0.00  0.00    +0.000 NA
ATOM     14  C   UNL     1       1.312  12.579  19.408  0.00  0.00    +0.000 C 
ATOM     15  C   UNL     1       2.055  13.750  20.087  0.00  0.00    +0.000 C 
BRANCH  10  17
ATOM     16  C   UNL     1       2.953  16.592  17.683  0.00  0.00    +0.000 C 
ATOM     17  C   UNL     1       3.006  15.169  18.271  0.00  0.00    +0.000 C 
ATOM     18  C   UNL     1       4.463  14.946  18.723  0.00  0.00    +0.000 C 
ENDBRANCH  10  17
ENDBRANCH   1  13
BRANCH   7  19
ATOM     19  O   UNL     1       0.081   8.117  21.251  0.00  0.00    +0.000 OA
BRANCH  19  20
ATOM     20  C   UNL     1       1.497   7.924  21.297  0.00  0.00    +0.000 C 
BRANCH  20  21
ATOM     21  C   UNL     1       2.029   7.688  19.925  0.00  0.00    +0.000 A 
ATOM     22  N   UNL     1       1.860   8.574  18.937  0.00  0.00    +0.000 NA
ATOM     23  O   UNL     1       2.555   8.003  17.874  0.00  0.00    +0.000 OA
ATOM     24  C   UNL     1       3.068   6.818  18.330  0.00  0.00    +0.000 A 
ATOM     25  N   UNL     1       2.753   6.569  19.583  0.00  0.00    +0.000 NA
BRANCH  24  26
ATOM     26  C   UNL     1       3.853   6.037  17.383  0.00  0.00    +0.000 A 
ATOM     27  C   UNL     1       3.814   4.633  17.371  0.00  0.00    +0.000 A 
ATOM     28  C   UNL     1       4.587   3.902  16.463  0.00  0.00    +0.000 A 
ATOM     29  C   UNL     1       5.408   4.570  15.558  0.00  0.00    +0.000 A 
ATOM     30 CL   UNL     1       6.367   3.669  14.450  0.00  0.00    +0.000 Cl
ATOM     31  C   UNL     1       5.457   5.961  15.549  0.00  0.00    +0.000 A 
ATOM     32  C   UNL     1       4.683   6.692  16.457  0.00  0.00    +0.000 A 
ENDBRANCH  24  26
ENDBRANCH  20  21
ENDBRANCH  19  20
ENDBRANCH   7  19
TORSDOF 6
ENDMDL
MODEL 6
REMARK VINA RESULT:      -7.5      4.432      8.031
REMARK  Name = 
REMARK  8 active torsions:
REMARK  status: ('A' for Active; 'I' for Inactive)
REMARK    1  A    between atoms: C_1  and  C_2
REMARK    2  A    between atoms: C_2  and  C_3
REMARK    3  A    between atoms: C_2  and  N_4
REMARK    4  A    between atoms: N_7  and  C_8
REMARK    5  A    between atoms: C_14  and  O_15
REMARK    6  A    between atoms: O_15  and  C_16
REMARK    7  A    between atoms: C_16  and  C_17
REMARK    8  A    between atoms: C_20  and  C_21
REMARK                            x       y       z     vdW  Elec       q    Type
REMARK                         _______ _______ _______ _____ _____    ______ ____
ROOT
ATOM      1  C   UNL     1       4.615   4.807  18.255  0.00  0.00    +0.000 C 
ATOM      2  C   UNL     1       4.485   3.329  18.699  0.00  0.00    +0.000 C 
ATOM      3  C   UNL     1       3.764   3.292  20.052  0.00  0.00    +0.000 C 
ATOM      4  C   UNL     1       3.028   4.590  20.048  0.00  0.00    +0.000 A 
ATOM      5  C   UNL     1       1.984   4.974  20.872  0.00  0.00    +0.000 A 
ATOM      6  C   UNL     1       1.477   6.272  20.753  0.00  0.00    +0.000 A 
ATOM      7  C   UNL     1       2.053   7.181  19.852  0.00  0.00    +0.000 A 
ATOM      8  C   UNL     1       3.097   6.775  19.019  0.00  0.00    +0.000 A 
ATOM      9  C   UNL     1       3.553   5.467  19.097  0.00  0.00    +0.000 A 
ENDROOT
BRANCH   1  13
ATOM     10  N   UNL     1       6.919   4.415  15.046  0.00  0.00    +0.000 NA
ATOM     11  C   UNL     1       6.925   5.549  16.003  0.00  0.00    +0.000 C 
ATOM     12  C   UNL     1       5.538   6.125  16.381  0.00  0.00    +0.000 C 
ATOM     13  N   UNL     1       4.546   5.134  16.820  0.00  0.00    +0.000 NA
ATOM     14  C   UNL     1       4.530   4.011  15.866  0.00  0.00    +0.000 C 
ATOM     15  C   UNL     1       5.904   3.428  15.472  0.00  0.00    +0.000 C 
BRANCH  10  17
ATOM     16  C   UNL     1       8.164   5.393  13.146  0.00  0.00    +0.000 C 
ATOM     17  C   UNL     1       6.807   4.854  13.637  0.00  0.00    +0.000 C 
ATOM     18  C   UNL     1       6.416   3.725  12.663  0.00  0.00    +0.000 C 
ENDBRANCH  10  17
ENDBRANCH   1  13
BRANCH   7  19
ATOM     19  O   UNL     1       1.650   8.470  19.666  0.00  0.00    +0.000 OA
BRANCH  19  20
ATOM     20  C   UNL     1       0.966   9.087  20.760  0.00  0.00    +0.000 C 
BRANCH  20  21
ATOM     21  C   UNL     1       0.456  10.428  20.358  0.00  0.00    +0.000 A 
ATOM     22  N   UNL     1      -0.840  10.752  20.452  0.00  0.00    +0.000 NA
ATOM     23  O   UNL     1      -0.865  12.084  20.048  0.00  0.00    +0.000 OA
ATOM     24  C   UNL     1       0.423  12.428  19.741  0.00  0.00    +0.000 A 
ATOM     25  N   UNL     1       1.272  11.434  19.895  0.00  0.00    +0.000 NA
BRANCH  24  26
ATOM     26  C   UNL     1       0.647  13.797  19.295  0.00  0.00    +0.000 A 
ATOM     27  C   UNL     1       1.936  14.286  19.025  0.00  0.00    +0.000 A 
ATOM     28  C   UNL     1       2.130  15.608  18.613  0.00  0.00    +0.000 A 
ATOM     29  C   UNL     1       1.034  16.456  18.469  0.00  0.00    +0.000 A 
ATOM     30 CL   UNL     1       1.275  18.085  17.973  0.00  0.00    +0.000 Cl
ATOM     31  C   UNL     1      -0.252  15.990  18.726  0.00  0.00    +0.000 A 
ATOM     32  C   UNL     1      -0.445  14.667  19.137  0.00  0.00    +0.000 A 
ENDBRANCH  24  26
ENDBRANCH  20  21
ENDBRANCH  19  20
ENDBRANCH   7  19
TORSDOF 6
ENDMDL
MODEL 7
REMARK VINA RESULT:      -7.5      4.890      9.145
REMARK  Name = 
REMARK  8 active torsions:
REMARK  status: ('A' for Active; 'I' for Inactive)
REMARK    1  A    between atoms: C_1  and  C_2
REMARK    2  A    between atoms: C_2  and  C_3
REMARK    3  A    between atoms: C_2  and  N_4
REMARK    4  A    between atoms: N_7  and  C_8
REMARK    5  A    between atoms: C_14  and  O_15
REMARK    6  A    between atoms: O_15  and  C_16
REMARK    7  A    between atoms: C_16  and  C_17
REMARK    8  A    between atoms: C_20  and  C_21
REMARK                            x       y       z     vdW  Elec       q    Type
REMARK                         _______ _______ _______ _____ _____    ______ ____
ROOT
ATOM      1  C   UNL     1       4.740   4.730  18.406  0.00  0.00    +0.000 C 
ATOM      2  C   UNL     1       4.661   3.204  18.660  0.00  0.00    +0.000 C 
ATOM      3  C   UNL     1       3.903   2.971  19.973  0.00  0.00    +0.000 C 
ATOM      4  C   UNL     1       3.112   4.230  20.103  0.00  0.00    +0.000 A 
ATOM      5  C   UNL     1       2.028   4.468  20.932  0.00  0.00    +0.000 A 
ATOM      6  C   UNL     1       1.470   5.750  20.955  0.00  0.00    +0.000 A 
ATOM      7  C   UNL     1       2.033   6.785  20.193  0.00  0.00    +0.000 A 
ATOM      8  C   UNL     1       3.117   6.527  19.353  0.00  0.00    +0.000 A 
ATOM      9  C   UNL     1       3.626   5.238  19.285  0.00  0.00    +0.000 A 
ENDROOT
BRANCH   1  13
ATOM     10  N   UNL     1       6.818   4.255  15.056  0.00  0.00    +0.000 NA
ATOM     11  C   UNL     1       7.089   5.244  16.129  0.00  0.00    +0.000 C 
ATOM     12  C   UNL     1       5.863   6.043  16.640  0.00  0.00    +0.000 C 
ATOM     13  N   UNL     1       4.700   5.230  17.020  0.00  0.00    +0.000 NA
ATOM     14  C   UNL     1       4.422   4.253  15.953  0.00  0.00    +0.000 C 
ATOM     15  C   UNL     1       5.632   3.453  15.425  0.00  0.00    +0.000 C 
BRANCH  10  17
ATOM     16  C   UNL     1       8.138   5.448  13.339  0.00  0.00    +0.000 C 
ATOM     17  C   UNL     1       6.760   4.870  13.712  0.00  0.00    +0.000 C 
ATOM     18  C   UNL     1       6.393   3.878  12.590  0.00  0.00    +0.000 C 
ENDBRANCH  10  17
ENDBRANCH   1  13
BRANCH   7  19
ATOM     19  O   UNL     1       1.580   8.071  20.153  0.00  0.00    +0.000 OA
BRANCH  19  20
ATOM     20  C   UNL     1       1.446   8.738  21.411  0.00  0.00    +0.000 C 
BRANCH  20  21
ATOM     21  C   UNL     1       0.448   9.839  21.307  0.00  0.00    +0.000 A 
ATOM     22  N   UNL     1      -0.209  10.096  20.170  0.00  0.00    +0.000 NA
ATOM     23  O   UNL     1      -1.068  11.133  20.525  0.00  0.00    +0.000 OA
ATOM     24  C   UNL     1      -0.833  11.404  21.846  0.00  0.00    +0.000 A 
ATOM     25  N   UNL     1       0.109  10.648  22.367  0.00  0.00    +0.000 NA
BRANCH  24  26
ATOM     26  C   UNL     1      -1.633  12.463  22.449  0.00  0.00    +0.000 A 
ATOM     27  C   UNL     1      -1.050  13.479  23.223  0.00  0.00    +0.000 A 
ATOM     28  C   UNL     1      -1.838  14.478  23.806  0.00  0.00    +0.000 A 
ATOM     29  C   UNL     1      -3.218  14.466  23.620  0.00  0.00    +0.000 A 
ATOM     30 CL   UNL     1      -4.187  15.688  24.346  0.00  0.00    +0.000 Cl
ATOM     31  C   UNL     1      -3.815  13.471  22.851  0.00  0.00    +0.000 A 
ATOM     32  C   UNL     1      -3.026  12.473  22.268  0.00  0.00    +0.000 A 
ENDBRANCH  24  26
ENDBRANCH  20  21
ENDBRANCH  19  20
ENDBRANCH   7  19
TORSDOF 6
ENDMDL
MODEL 8
REMARK VINA RESULT:      -7.4      4.330      8.902
REMARK  Name = 
REMARK  8 active torsions:
REMARK  status: ('A' for Active; 'I' for Inactive)
REMARK    1  A    between atoms: C_1  and  C_2
REMARK    2  A    between atoms: C_2  and  C_3
REMARK    3  A    between atoms: C_2  and  N_4
REMARK    4  A    between atoms: N_7  and  C_8
REMARK    5  A    between atoms: C_14  and  O_15
REMARK    6  A    between atoms: O_15  and  C_16
REMARK    7  A    between atoms: C_16  and  C_17
REMARK    8  A    between atoms: C_20  and  C_21
REMARK                            x       y       z     vdW  Elec       q    Type
REMARK                         _______ _______ _______ _____ _____    ______ ____
ROOT
ATOM      1  C   UNL     1       9.462  12.535  21.932  0.00  0.00    +0.000 C 
ATOM      2  C   UNL     1      10.100  13.900  21.575  0.00  0.00    +0.000 C 
ATOM      3  C   UNL     1      10.959  13.718  20.317  0.00  0.00    +0.000 C 
ATOM      4  C   UNL     1      10.351  12.504  19.699  0.00  0.00    +0.000 A 
ATOM      5  C   UNL     1      10.516  12.040  18.405  0.00  0.00    +0.000 A 
ATOM      6  C   UNL     1       9.911  10.832  18.043  0.00  0.00    +0.000 A 
ATOM      7  C   UNL     1       9.196  10.082  18.990  0.00  0.00    +0.000 A 
ATOM      8  C   UNL     1       9.028  10.569  20.287  0.00  0.00    +0.000 A 
ATOM      9  C   UNL     1       9.576  11.799  20.622  0.00  0.00    +0.000 A 
ENDROOT
BRANCH   1  13
ATOM     10  N   UNL     1       7.781  13.471  25.405  0.00  0.00    +0.000 NA
ATOM     11  C   UNL     1       8.392  12.168  25.044  0.00  0.00    +0.000 C 
ATOM     12  C   UNL     1       7.983  11.585  23.668  0.00  0.00    +0.000 C 
ATOM     13  N   UNL     1       8.116  12.507  22.532  0.00  0.00    +0.000 NA
ATOM     14  C   UNL     1       7.501  13.799  22.884  0.00  0.00    +0.000 C 
ATOM     15  C   UNL     1       7.891  14.392  24.254  0.00  0.00    +0.000 C 
BRANCH  10  17
ATOM     16  C   UNL     1       6.247  11.931  26.587  0.00  0.00    +0.000 C 
ATOM     17  C   UNL     1       6.416  13.329  25.961  0.00  0.00    +0.000 C 
ATOM     18  C   UNL     1       6.092  14.341  27.078  0.00  0.00    +0.000 C 
ENDBRANCH  10  17
ENDBRANCH   1  13
BRANCH   7  19
ATOM     19  O   UNL     1       8.582   8.888  18.750  0.00  0.00    +0.000 OA
BRANCH  19  20
ATOM     20  C   UNL     1       8.225   8.619  17.391  0.00  0.00    +0.000 C 
BRANCH  20  21
ATOM     21  C   UNL     1       7.340   7.422  17.319  0.00  0.00    +0.000 A 
ATOM     22  N   UNL     1       7.590   6.404  16.487  0.00  0.00    +0.000 NA
ATOM     23  O   UNL     1       6.580   5.493  16.786  0.00  0.00    +0.000 OA
ATOM     24  C   UNL     1       5.815   6.061  17.768  0.00  0.00    +0.000 A 
ATOM     25  N   UNL     1       6.230   7.260  18.116  0.00  0.00    +0.000 NA
BRANCH  24  26
ATOM     26  C   UNL     1       4.687   5.277  18.256  0.00  0.00    +0.000 A 
ATOM     27  C   UNL     1       4.676   3.874  18.185  0.00  0.00    +0.000 A 
ATOM     28  C   UNL     1       3.577   3.142  18.645  0.00  0.00    +0.000 A 
ATOM     29  C   UNL     1       2.477   3.807  19.180  0.00  0.00    +0.000 A 
ATOM     30 CL   UNL     1       1.122   2.906  19.735  0.00  0.00    +0.000 Cl
ATOM     31  C   UNL     1       2.470   5.197  19.265  0.00  0.00    +0.000 A 
ATOM     32  C   UNL     1       3.570   5.929  18.805  0.00  0.00    +0.000 A 
ENDBRANCH  24  26
ENDBRANCH  20  21
ENDBRANCH  19  20
ENDBRANCH   7  19
TORSDOF 6
ENDMDL
MODEL 9
REMARK VINA RESULT:      -7.4      4.752      7.346
REMARK  Name = 
REMARK  8 active torsions:
REMARK  status: ('A' for Active; 'I' for Inactive)
REMARK    1  A    between atoms: C_1  and  C_2
REMARK    2  A    between atoms: C_2  and  C_3
REMARK    3  A    between atoms: C_2  and  N_4
REMARK    4  A    between atoms: N_7  and  C_8
REMARK    5  A    between atoms: C_14  and  O_15
REMARK    6  A    between atoms: O_15  and  C_16
REMARK    7  A    between atoms: C_16  and  C_17
REMARK    8  A    between atoms: C_20  and  C_21
REMARK                            x       y       z     vdW  Elec       q    Type
REMARK                         _______ _______ _______ _____ _____    ______ ____
ROOT
ATOM      1  C   UNL     1      -0.814  12.587  20.431  0.00  0.00    +0.000 C 
ATOM      2  C   UNL     1      -1.373  13.268  21.705  0.00  0.00    +0.000 C 
ATOM      3  C   UNL     1      -1.720  12.176  22.725  0.00  0.00    +0.000 C 
ATOM      4  C   UNL     1      -0.857  11.045  22.275  0.00  0.00    +0.000 A 
ATOM      5  C   UNL     1      -0.526   9.900  22.980  0.00  0.00    +0.000 A 
ATOM      6  C   UNL     1       0.244   8.920  22.345  0.00  0.00    +0.000 A 
ATOM      7  C   UNL     1       0.626   9.074  21.003  0.00  0.00    +0.000 A 
ATOM      8  C   UNL     1       0.295  10.239  20.310  0.00  0.00    +0.000 A 
ATOM      9  C   UNL     1      -0.413  11.236  20.965  0.00  0.00    +0.000 A 
ENDROOT
BRANCH   1  13
ATOM     10  N   UNL     1       0.827  16.198  20.262  0.00  0.00    +0.000 NA
ATOM     11  C   UNL     1      -0.380  15.743  19.528  0.00  0.00    +0.000 C 
ATOM     12  C   UNL     1      -0.263  14.372  18.815  0.00  0.00    +0.000 C 
ATOM     13  N   UNL     1       0.232  13.271  19.652  0.00  0.00    +0.000 NA
ATOM     14  C   UNL     1       1.437  13.716  20.375  0.00  0.00    +0.000 C 
ATOM     15  C   UNL     1       1.342  15.083  21.085  0.00  0.00    +0.000 C 
BRANCH  10  17
ATOM     16  C   UNL     1       1.148  17.890  18.486  0.00  0.00    +0.000 C 
ATOM     17  C   UNL     1       1.829  16.834  19.378  0.00  0.00    +0.000 C 
ATOM     18  C   UNL     1       2.949  17.573  20.139  0.00  0.00    +0.000 C 
ENDBRANCH  10  17
ENDBRANCH   1  13
BRANCH   7  19
ATOM     19  O   UNL     1       1.361   8.177  20.285  0.00  0.00    +0.000 OA
BRANCH  19  20
ATOM     20  C   UNL     1       1.432   6.848  20.809  0.00  0.00    +0.000 C 
BRANCH  20  21
ATOM     21  C   UNL     1       2.394   6.033  20.015  0.00  0.00    +0.000 A 
ATOM     22  N   UNL     1       2.805   4.826  20.421  0.00  0.00    +0.000 NA
ATOM     23  O   UNL     1       3.622   4.399  19.377  0.00  0.00    +0.000 OA
ATOM     24  C   UNL     1       3.628   5.403  18.446  0.00  0.00    +0.000 A 
ATOM     25  N   UNL     1       2.903   6.441  18.803  0.00  0.00    +0.000 NA
BRANCH  24  26
ATOM     26  C   UNL     1       4.420   5.176  17.244  0.00  0.00    +0.000 A 
ATOM     27  C   UNL     1       4.881   6.238  16.451  0.00  0.00    +0.000 A 
ATOM     28  C   UNL     1       5.627   5.998  15.292  0.00  0.00    +0.000 A 
ATOM     29  C   UNL     1       5.916   4.689  14.915  0.00  0.00    +0.000 A 
ATOM     30 CL   UNL     1       6.823   4.393  13.484  0.00  0.00    +0.000 Cl
ATOM     31  C   UNL     1       5.473   3.620  15.690  0.00  0.00    +0.000 A 
ATOM     32  C   UNL     1       4.727   3.862  16.849  0.00  0.00    +0.000 A 
ENDBRANCH  24  26
ENDBRANCH  20  21
ENDBRANCH  19  20
ENDBRANCH   7  19
TORSDOF 6
ENDMDL
