MODEL 1
REMARK VINA RESULT:      -7.4      0.000      0.000
REMARK  Name = 
REMARK  4 active torsions:
REMARK  status: ('A' for Active; 'I' for Inactive)
REMARK    1  A    between atoms: C_2  and  C_19
REMARK    2  A    between atoms: N_3  and  C_4
REMARK    3  A    between atoms: C_4  and  C_5
REMARK    4  A    between atoms: N_10  and  C_11
REMARK                            x       y       z     vdW  Elec       q    Type
REMARK                         _______ _______ _______ _____ _____    ______ ____
ROOT
ATOM      1  C   UNL     1       2.904   3.150  18.635  0.00  0.00    +0.000 C 
ATOM      2  O   UNL     1       2.481   2.118  19.161  0.00  0.00    +0.000 OA
ATOM      3  N   UNL     1       2.378   4.395  18.929  0.00  0.00    +0.000 N 
ATOM      4  C   UNL     1       1.427   4.540  20.039  0.00  0.00    +0.000 C 
ATOM      5  C   UNL     1       1.796   5.750  20.916  0.00  0.00    +0.000 C 
ATOM      6  N   UNL     1       1.910   6.962  20.083  0.00  0.00    +0.000 N 
ATOM      7  C   UNL     1       2.855   6.854  18.957  0.00  0.00    +0.000 C 
ATOM      8  C   UNL     1       2.524   5.607  18.106  0.00  0.00    +0.000 C 
ENDROOT
BRANCH   6   9
ATOM      9  C   UNL     1       1.236   8.130  20.378  0.00  0.00    +0.000 A 
ATOM     10  C   UNL     1       1.225   9.227  19.501  0.00  0.00    +0.000 A 
ATOM     11  C   UNL     1       0.518  10.401  19.792  0.00  0.00    +0.000 A 
ATOM     12  C   UNL     1      -0.199  10.510  20.977  0.00  0.00    +0.000 A 
ATOM     13  C   UNL     1      -0.204   9.445  21.867  0.00  0.00    +0.000 A 
ATOM     14  C   UNL     1       0.504   8.275  21.567  0.00  0.00    +0.000 A 
ENDBRANCH   6   9
BRANCH   1  15
ATOM     15  C   UNL     1       4.042   3.073  17.618  0.00  0.00    +0.000 C 
BRANCH  15  18
ATOM     16  O   UNL     1       5.131   4.870  15.825  0.00  0.00    +0.000 OA
ATOM     17  C   UNL     1       5.567   4.883  16.977  0.00  0.00    +0.000 C 
ATOM     18  N   UNL     1       5.137   3.972  17.918  0.00  0.00    +0.000 N 
ATOM     19  H   UNL     1       5.410   4.122  18.884  0.00  0.00    +0.000 HD
BRANCH  17  20
ATOM     20  C   UNL     1       6.555   5.840  17.426  0.00  0.00    +0.000 A 
ATOM     21  C   UNL     1       7.444   5.768  18.483  0.00  0.00    +0.000 A 
ATOM     22  C   UNL     1       8.154   6.989  18.508  0.00  0.00    +0.000 A 
ATOM     23  C   UNL     1       7.667   7.731  17.457  0.00  0.00    +0.000 A 
ATOM     24  O   UNL     1       6.702   7.044  16.788  0.00  0.00    +0.000 OA
ENDBRANCH  17  20
ENDBRANCH  15  18
ENDBRANCH   1  15
TORSDOF 4
ENDMDL
MODEL 2
REMARK VINA RESULT:      -7.4      0.201      1.016
REMARK  Name = 
REMARK  4 active torsions:
REMARK  status: ('A' for Active; 'I' for Inactive)
REMARK    1  A    between atoms: C_2  and  C_19
REMARK    2  A    between atoms: N_3  and  C_4
REMARK    3  A    between atoms: C_4  and  C_5
REMARK    4  A    between atoms: N_10  and  C_11
REMARK                            x       y       z     vdW  Elec       q    Type
REMARK                         _______ _______ _______ _____ _____    ______ ____
ROOT
ATOM      1  C   UNL     1       2.978   3.062  18.515  0.00  0.00    +0.000 C 
ATOM      2  O   UNL     1       2.492   2.015  18.952  0.00  0.00    +0.000 OA
ATOM      3  N   UNL     1       2.464   4.304  18.841  0.00  0.00    +0.000 N 
ATOM      4  C   UNL     1       1.441   4.416  19.890  0.00  0.00    +0.000 C 
ATOM      5  C   UNL     1       1.778   5.566  20.856  0.00  0.00    +0.000 C 
ATOM      6  N   UNL     1       1.981   6.817  20.102  0.00  0.00    +0.000 N 
ATOM      7  C   UNL     1       3.000   6.743  19.039  0.00  0.00    +0.000 C 
ATOM      8  C   UNL     1       2.698   5.554  18.099  0.00  0.00    +0.000 C 
ENDROOT
BRANCH   6   9
ATOM      9  C   UNL     1       1.319   7.987  20.414  0.00  0.00    +0.000 A 
ATOM     10  C   UNL     1       0.695   8.183  21.657  0.00  0.00    +0.000 A 
ATOM     11  C   UNL     1       0.046   9.382  21.981  0.00  0.00    +0.000 A 
ATOM     12  C   UNL     1       0.004  10.423  21.062  0.00  0.00    +0.000 A 
ATOM     13  C   UNL     1       0.608  10.260  19.823  0.00  0.00    +0.000 A 
ATOM     14  C   UNL     1       1.254   9.059  19.509  0.00  0.00    +0.000 A 
ENDBRANCH   6   9
BRANCH   1  15
ATOM     15  C   UNL     1       4.182   3.007  17.575  0.00  0.00    +0.000 C 
BRANCH  15  18
ATOM     16  O   UNL     1       5.520   4.585  15.747  0.00  0.00    +0.000 OA
ATOM     17  C   UNL     1       5.778   4.755  16.939  0.00  0.00    +0.000 C 
ATOM     18  N   UNL     1       5.215   3.962  17.916  0.00  0.00    +0.000 N 
ATOM     19  H   UNL     1       5.338   4.241  18.884  0.00  0.00    +0.000 HD
BRANCH  17  20
ATOM     20  C   UNL     1       6.682   5.786  17.402  0.00  0.00    +0.000 A 
ATOM     21  C   UNL     1       7.551   5.785  18.478  0.00  0.00    +0.000 A 
ATOM     22  C   UNL     1       8.168   7.056  18.509  0.00  0.00    +0.000 A 
ATOM     23  C   UNL     1       7.651   7.754  17.443  0.00  0.00    +0.000 A 
ATOM     24  O   UNL     1       6.754   6.994  16.759  0.00  0.00    +0.000 OA
ENDBRANCH  17  20
ENDBRANCH  15  18
ENDBRANCH   1  15
TORSDOF 4
ENDMDL
MODEL 3
REMARK VINA RESULT:      -7.4      0.890      1.040
REMARK  Name = 
REMARK  4 active torsions:
REMARK  status: ('A' for Active; 'I' for Inactive)
REMARK    1  A    between atoms: C_2  and  C_19
REMARK    2  A    between atoms: N_3  and  C_4
REMARK    3  A    between atoms: C_4  and  C_5
REMARK    4  A    between atoms: N_10  and  C_11
REMARK                            x       y       z     vdW  Elec       q    Type
REMARK                         _______ _______ _______ _____ _____    ______ ____
ROOT
ATOM      1  C   UNL     1       2.455   2.828  18.789  0.00  0.00    +0.000 C 
ATOM      2  O   UNL     1       1.823   1.872  19.248  0.00  0.00    +0.000 OA
ATOM      3  N   UNL     1       2.098   4.139  19.049  0.00  0.00    +0.000 N 
ATOM      4  C   UNL     1       1.068   4.426  20.056  0.00  0.00    +0.000 C 
ATOM      5  C   UNL     1       1.523   5.563  20.989  0.00  0.00    +0.000 C 
ATOM      6  N   UNL     1       1.910   6.744  20.195  0.00  0.00    +0.000 N 
ATOM      7  C   UNL     1       2.942   6.494  19.173  0.00  0.00    +0.000 C 
ATOM      8  C   UNL     1       2.515   5.315  18.269  0.00  0.00    +0.000 C 
ENDROOT
BRANCH   6   9
ATOM      9  C   UNL     1       1.397   8.002  20.440  0.00  0.00    +0.000 A 
ATOM     10  C   UNL     1       1.294   8.976  19.433  0.00  0.00    +0.000 A 
ATOM     11  C   UNL     1       0.749  10.242  19.678  0.00  0.00    +0.000 A 
ATOM     12  C   UNL     1       0.289  10.571  20.948  0.00  0.00    +0.000 A 
ATOM     13  C   UNL     1       0.380   9.632  21.967  0.00  0.00    +0.000 A 
ATOM     14  C   UNL     1       0.926   8.369  21.711  0.00  0.00    +0.000 A 
ENDBRANCH   6   9
BRANCH   1  15
ATOM     15  C   UNL     1       3.669   2.578  17.895  0.00  0.00    +0.000 C 
BRANCH  15  18
ATOM     16  O   UNL     1       4.994   4.304  16.195  0.00  0.00    +0.000 OA
ATOM     17  C   UNL     1       5.374   4.257  17.365  0.00  0.00    +0.000 C 
ATOM     18  N   UNL     1       4.822   3.371  18.265  0.00  0.00    +0.000 N 
ATOM     19  H   UNL     1       5.061   3.479  19.246  0.00  0.00    +0.000 HD
BRANCH  17  20
ATOM     20  C   UNL     1       6.419   5.116  17.880  0.00  0.00    +0.000 A 
ATOM     21  C   UNL     1       6.949   6.280  17.356  0.00  0.00    +0.000 A 
ATOM     22  C   UNL     1       7.976   6.696  18.233  0.00  0.00    +0.000 A 
ATOM     23  C   UNL     1       8.005   5.770  19.249  0.00  0.00    +0.000 A 
ATOM     24  O   UNL     1       7.061   4.810  19.052  0.00  0.00    +0.000 OA
ENDBRANCH  17  20
ENDBRANCH  15  18
ENDBRANCH   1  15
TORSDOF 4
ENDMDL
MODEL 4
REMARK VINA RESULT:      -7.2      2.341      2.971
REMARK  Name = 
REMARK  4 active torsions:
REMARK  status: ('A' for Active; 'I' for Inactive)
REMARK    1  A    between atoms: C_2  and  C_19
REMARK    2  A    between atoms: N_3  and  C_4
REMARK    3  A    between atoms: C_4  and  C_5
REMARK    4  A    between atoms: N_10  and  C_11
REMARK                            x       y       z     vdW  Elec       q    Type
REMARK                         _______ _______ _______ _____ _____    ______ ____
ROOT
ATOM      1  C   UNL     1       4.550   4.015  18.392  0.00  0.00    +0.000 C 
ATOM      2  O   UNL     1       4.201   2.916  18.831  0.00  0.00    +0.000 OA
ATOM      3  N   UNL     1       3.719   5.119  18.429  0.00  0.00    +0.000 N 
ATOM      4  C   UNL     1       2.461   5.059  19.185  0.00  0.00    +0.000 C 
ATOM      5  C   UNL     1       2.286   6.321  20.050  0.00  0.00    +0.000 C 
ATOM      6  N   UNL     1       2.407   7.528  19.212  0.00  0.00    +0.000 N 
ATOM      7  C   UNL     1       3.657   7.624  18.437  0.00  0.00    +0.000 C 
ATOM      8  C   UNL     1       3.866   6.335  17.611  0.00  0.00    +0.000 C 
ENDROOT
BRANCH   6   9
ATOM      9  C   UNL     1       1.454   8.527  19.210  0.00  0.00    +0.000 A 
ATOM     10  C   UNL     1       1.015   9.138  18.025  0.00  0.00    +0.000 A 
ATOM     11  C   UNL     1       0.029  10.133  18.024  0.00  0.00    +0.000 A 
ATOM     12  C   UNL     1      -0.547  10.547  19.218  0.00  0.00    +0.000 A 
ATOM     13  C   UNL     1      -0.132   9.966  20.409  0.00  0.00    +0.000 A 
ATOM     14  C   UNL     1       0.853   8.972  20.399  0.00  0.00    +0.000 A 
ENDBRANCH   6   9
BRANCH   1  15
ATOM     15  C   UNL     1       5.939   4.181  17.776  0.00  0.00    +0.000 C 
BRANCH  15  18
ATOM     16  O   UNL     1       7.318   5.851  16.063  0.00  0.00    +0.000 OA
ATOM     17  C   UNL     1       6.718   4.899  15.565  0.00  0.00    +0.000 C 
ATOM     18  N   UNL     1       5.942   4.057  16.333  0.00  0.00    +0.000 N 
ATOM     19  H   UNL     1       5.596   3.205  15.904  0.00  0.00    +0.000 HD
BRANCH  17  20
ATOM     20  C   UNL     1       6.776   4.593  14.152  0.00  0.00    +0.000 A 
ATOM     21  C   UNL     1       6.098   3.633  13.424  0.00  0.00    +0.000 A 
ATOM     22  C   UNL     1       6.554   3.730  12.090  0.00  0.00    +0.000 A 
ATOM     23  C   UNL     1       7.474   4.752  12.078  0.00  0.00    +0.000 A 
ATOM     24  O   UNL     1       7.614   5.289  13.320  0.00  0.00    +0.000 OA
ENDBRANCH  17  20
ENDBRANCH  15  18
ENDBRANCH   1  15
TORSDOF 4
ENDMDL
MODEL 5
REMARK VINA RESULT:      -7.1      4.483      9.019
REMARK  Name = 
REMARK  4 active torsions:
REMARK  status: ('A' for Active; 'I' for Inactive)
REMARK    1  A    between atoms: C_2  and  C_19
REMARK    2  A    between atoms: N_3  and  C_4
REMARK    3  A    between atoms: C_4  and  C_5
REMARK    4  A    between atoms: N_10  and  C_11
REMARK                            x       y       z     vdW  Elec       q    Type
REMARK                         _______ _______ _______ _____ _____    ______ ____
ROOT
ATOM      1  C   UNL     1       0.857  10.857  19.713  0.00  0.00    +0.000 C 
ATOM      2  O   UNL     1       0.590  11.724  18.877  0.00  0.00    +0.000 OA
ATOM      3  N   UNL     1       1.147   9.553  19.354  0.00  0.00    +0.000 N 
ATOM      4  C   UNL     1       1.344   9.214  17.939  0.00  0.00    +0.000 C 
ATOM      5  C   UNL     1       2.597   8.337  17.760  0.00  0.00    +0.000 C 
ATOM      6  N   UNL     1       2.516   7.155  18.638  0.00  0.00    +0.000 N 
ATOM      7  C   UNL     1       2.317   7.456  20.067  0.00  0.00    +0.000 C 
ATOM      8  C   UNL     1       1.094   8.383  20.247  0.00  0.00    +0.000 C 
ENDROOT
BRANCH   6   9
ATOM      9  C   UNL     1       2.686   5.869  18.167  0.00  0.00    +0.000 A 
ATOM     10  C   UNL     1       1.682   4.894  18.279  0.00  0.00    +0.000 A 
ATOM     11  C   UNL     1       1.848   3.597  17.776  0.00  0.00    +0.000 A 
ATOM     12  C   UNL     1       3.032   3.239  17.144  0.00  0.00    +0.000 A 
ATOM     13  C   UNL     1       4.047   4.179  17.020  0.00  0.00    +0.000 A 
ATOM     14  C   UNL     1       3.871   5.472  17.525  0.00  0.00    +0.000 A 
ENDBRANCH   6   9
BRANCH   1  15
ATOM     15  C   UNL     1       0.866  11.212  21.199  0.00  0.00    +0.000 C 
BRANCH  15  18
ATOM     16  O   UNL     1      -0.588  10.473  23.428  0.00  0.00    +0.000 OA
ATOM     17  C   UNL     1      -0.970  11.463  22.805  0.00  0.00    +0.000 C 
ATOM     18  N   UNL     1      -0.352  11.861  21.638  0.00  0.00    +0.000 N 
ATOM     19  H   UNL     1      -0.605  12.764  21.250  0.00  0.00    +0.000 HD
BRANCH  17  20
ATOM     20  C   UNL     1      -2.086  12.275  23.239  0.00  0.00    +0.000 A 
ATOM     21  C   UNL     1      -2.197  13.650  23.337  0.00  0.00    +0.000 A 
ATOM     22  C   UNL     1      -3.482  13.923  23.857  0.00  0.00    +0.000 A 
ATOM     23  C   UNL     1      -4.086  12.700  24.034  0.00  0.00    +0.000 A 
ATOM     24  O   UNL     1      -3.254  11.693  23.657  0.00  0.00    +0.000 OA
ENDBRANCH  17  20
ENDBRANCH  15  18
ENDBRANCH   1  15
TORSDOF 4
ENDMDL
MODEL 6
REMARK VINA RESULT:      -7.0      3.576      5.845
REMARK  Name = 
REMARK  4 active torsions:
REMARK  status: ('A' for Active; 'I' for Inactive)
REMARK    1  A    between atoms: C_2  and  C_19
REMARK    2  A    between atoms: N_3  and  C_4
REMARK    3  A    between atoms: C_4  and  C_5
REMARK    4  A    between atoms: N_10  and  C_11
REMARK                            x       y       z     vdW  Elec       q    Type
REMARK                         _______ _______ _______ _____ _____    ______ ____
ROOT
ATOM      1  C   UNL     1       7.067   6.053  16.514  0.00  0.00    +0.000 C 
ATOM      2  O   UNL     1       7.368   7.241  16.658  0.00  0.00    +0.000 OA
ATOM      3  N   UNL     1       6.084   5.445  17.274  0.00  0.00    +0.000 N 
ATOM      4  C   UNL     1       5.226   6.262  18.142  0.00  0.00    +0.000 C 
ATOM      5  C   UNL     1       3.748   5.861  17.977  0.00  0.00    +0.000 C 
ATOM      6  N   UNL     1       3.591   4.411  18.198  0.00  0.00    +0.000 N 
ATOM      7  C   UNL     1       4.438   3.558  17.345  0.00  0.00    +0.000 C 
ATOM      8  C   UNL     1       5.916   3.995  17.463  0.00  0.00    +0.000 C 
ENDROOT
BRANCH   6   9
ATOM      9  C   UNL     1       2.669   3.892  19.084  0.00  0.00    +0.000 A 
ATOM     10  C   UNL     1       2.770   4.092  20.470  0.00  0.00    +0.000 A 
ATOM     11  C   UNL     1       1.818   3.586  21.365  0.00  0.00    +0.000 A 
ATOM     12  C   UNL     1       0.732   2.860  20.892  0.00  0.00    +0.000 A 
ATOM     13  C   UNL     1       0.605   2.641  19.527  0.00  0.00    +0.000 A 
ATOM     14  C   UNL     1       1.561   3.152  18.641  0.00  0.00    +0.000 A 
ENDBRANCH   6   9
BRANCH   1  15
ATOM     15  C   UNL     1       7.796   5.205  15.472  0.00  0.00    +0.000 C 
BRANCH  15  18
ATOM     16  O   UNL     1       7.839   5.366  12.715  0.00  0.00    +0.000 OA
ATOM     17  C   UNL     1       7.043   4.578  13.225  0.00  0.00    +0.000 C 
ATOM     18  N   UNL     1       6.898   4.486  14.592  0.00  0.00    +0.000 N 
ATOM     19  H   UNL     1       6.345   3.719  14.962  0.00  0.00    +0.000 HD
BRANCH  17  20
ATOM     20  C   UNL     1       6.203   3.700  12.438  0.00  0.00    +0.000 A 
ATOM     21  C   UNL     1       4.863   3.808  12.115  0.00  0.00    +0.000 A 
ATOM     22  C   UNL     1       4.527   2.660  11.363  0.00  0.00    +0.000 A 
ATOM     23  C   UNL     1       5.683   1.924  11.259  0.00  0.00    +0.000 A 
ATOM     24  O   UNL     1       6.710   2.545  11.900  0.00  0.00    +0.000 OA
ENDBRANCH  17  20
ENDBRANCH  15  18
ENDBRANCH   1  15
TORSDOF 4
ENDMDL
MODEL 7
REMARK VINA RESULT:      -7.0      4.462      8.987
REMARK  Name = 
REMARK  4 active torsions:
REMARK  status: ('A' for Active; 'I' for Inactive)
REMARK    1  A    between atoms: C_2  and  C_19
REMARK    2  A    between atoms: N_3  and  C_4
REMARK    3  A    between atoms: C_4  and  C_5
REMARK    4  A    between atoms: N_10  and  C_11
REMARK                            x       y       z     vdW  Elec       q    Type
REMARK                         _______ _______ _______ _____ _____    ______ ____
ROOT
ATOM      1  C   UNL     1       0.868  10.804  19.593  0.00  0.00    +0.000 C 
ATOM      2  O   UNL     1       0.629  11.657  18.734  0.00  0.00    +0.000 OA
ATOM      3  N   UNL     1       1.187   9.499  19.264  0.00  0.00    +0.000 N 
ATOM      4  C   UNL     1       1.449   9.144  17.863  0.00  0.00    +0.000 C 
ATOM      5  C   UNL     1       2.717   8.278  17.750  0.00  0.00    +0.000 C 
ATOM      6  N   UNL     1       2.609   7.107  18.639  0.00  0.00    +0.000 N 
ATOM      7  C   UNL     1       2.346   7.423  20.054  0.00  0.00    +0.000 C 
ATOM      8  C   UNL     1       1.106   8.340  20.169  0.00  0.00    +0.000 C 
ENDROOT
BRANCH   6   9
ATOM      9  C   UNL     1       2.812   5.816  18.193  0.00  0.00    +0.000 A 
ATOM     10  C   UNL     1       4.097   5.300  17.960  0.00  0.00    +0.000 A 
ATOM     11  C   UNL     1       4.300   3.981  17.532  0.00  0.00    +0.000 A 
ATOM     12  C   UNL     1       3.215   3.139  17.324  0.00  0.00    +0.000 A 
ATOM     13  C   UNL     1       1.931   3.620  17.541  0.00  0.00    +0.000 A 
ATOM     14  C   UNL     1       1.739   4.939  17.970  0.00  0.00    +0.000 A 
ENDBRANCH   6   9
BRANCH   1  15
ATOM     15  C   UNL     1       0.810  11.178  21.073  0.00  0.00    +0.000 C 
BRANCH  15  18
ATOM     16  O   UNL     1      -0.516  10.637  23.434  0.00  0.00    +0.000 OA
ATOM     17  C   UNL     1      -1.003  11.490  22.694  0.00  0.00    +0.000 C 
ATOM     18  N   UNL     1      -0.453  11.772  21.462  0.00  0.00    +0.000 N 
ATOM     19  H   UNL     1      -0.798  12.584  20.961  0.00  0.00    +0.000 HD
BRANCH  17  20
ATOM     20  C   UNL     1      -2.180  12.253  23.051  0.00  0.00    +0.000 A 
ATOM     21  C   UNL     1      -2.510  13.564  22.758  0.00  0.00    +0.000 A 
ATOM     22  C   UNL     1      -3.750  13.825  23.383  0.00  0.00    +0.000 A 
ATOM     23  C   UNL     1      -4.112  12.656  24.011  0.00  0.00    +0.000 A 
ATOM     24  O   UNL     1      -3.173  11.692  23.812  0.00  0.00    +0.000 OA
ENDBRANCH  17  20
ENDBRANCH  15  18
ENDBRANCH   1  15
TORSDOF 4
ENDMDL
MODEL 8
REMARK VINA RESULT:      -6.9      2.423      3.394
REMARK  Name = 
REMARK  4 active torsions:
REMARK  status: ('A' for Active; 'I' for Inactive)
REMARK    1  A    between atoms: C_2  and  C_19
REMARK    2  A    between atoms: N_3  and  C_4
REMARK    3  A    between atoms: C_4  and  C_5
REMARK    4  A    between atoms: N_10  and  C_11
REMARK                            x       y       z     vdW  Elec       q    Type
REMARK                         _______ _______ _______ _____ _____    ______ ____
ROOT
ATOM      1  C   UNL     1       4.350   5.655  18.672  0.00  0.00    +0.000 C 
ATOM      2  O   UNL     1       4.269   4.609  19.322  0.00  0.00    +0.000 OA
ATOM      3  N   UNL     1       3.319   6.578  18.632  0.00  0.00    +0.000 N 
ATOM      4  C   UNL     1       2.171   6.427  19.535  0.00  0.00    +0.000 C 
ATOM      5  C   UNL     1       1.824   7.771  20.201  0.00  0.00    +0.000 C 
ATOM      6  N   UNL     1       1.625   8.808  19.171  0.00  0.00    +0.000 N 
ATOM      7  C   UNL     1       2.757   8.988  18.245  0.00  0.00    +0.000 C 
ATOM      8  C   UNL     1       3.147   7.630  17.617  0.00  0.00    +0.000 C 
ENDROOT
BRANCH   6   9
ATOM      9  C   UNL     1       0.495   9.599  19.125  0.00  0.00    +0.000 A 
ATOM     10  C   UNL     1       0.045  10.326  20.238  0.00  0.00    +0.000 A 
ATOM     11  C   UNL     1      -1.087  11.148  20.180  0.00  0.00    +0.000 A 
ATOM     12  C   UNL     1      -1.806  11.265  18.997  0.00  0.00    +0.000 A 
ATOM     13  C   UNL     1      -1.390  10.556  17.878  0.00  0.00    +0.000 A 
ATOM     14  C   UNL     1      -0.257   9.738  17.946  0.00  0.00    +0.000 A 
ENDBRANCH   6   9
BRANCH   1  15
ATOM     15  C   UNL     1       5.616   5.957  17.873  0.00  0.00    +0.000 C 
BRANCH  15  18
ATOM     16  O   UNL     1       7.634   6.268  16.014  0.00  0.00    +0.000 OA
ATOM     17  C   UNL     1       6.665   5.582  15.689  0.00  0.00    +0.000 C 
ATOM     18  N   UNL     1       5.578   5.435  16.523  0.00  0.00    +0.000 N 
ATOM     19  H   UNL     1       4.879   4.741  16.276  0.00  0.00    +0.000 HD
BRANCH  17  20
ATOM     20  C   UNL     1       6.590   4.889  14.421  0.00  0.00    +0.000 A 
ATOM     21  C   UNL     1       5.719   3.899  14.002  0.00  0.00    +0.000 A 
ATOM     22  C   UNL     1       6.108   3.538  12.692  0.00  0.00    +0.000 A 
ATOM     23  C   UNL     1       7.184   4.336  12.383  0.00  0.00    +0.000 A 
ATOM     24  O   UNL     1       7.482   5.165  13.418  0.00  0.00    +0.000 OA
ENDBRANCH  17  20
ENDBRANCH  15  18
ENDBRANCH   1  15
TORSDOF 4
ENDMDL
MODEL 9
REMARK VINA RESULT:      -6.9      3.583      5.795
REMARK  Name = 
REMARK  4 active torsions:
REMARK  status: ('A' for Active; 'I' for Inactive)
REMARK    1  A    between atoms: C_2  and  C_19
REMARK    2  A    between atoms: N_3  and  C_4
REMARK    3  A    between atoms: C_4  and  C_5
REMARK    4  A    between atoms: N_10  and  C_11
REMARK                            x       y       z     vdW  Elec       q    Type
REMARK                         _______ _______ _______ _____ _____    ______ ____
ROOT
ATOM      1  C   UNL     1       6.794   6.164  16.555  0.00  0.00    +0.000 C 
ATOM      2  O   UNL     1       6.956   7.387  16.585  0.00  0.00    +0.000 OA
ATOM      3  N   UNL     1       5.916   5.518  17.406  0.00  0.00    +0.000 N 
ATOM      4  C   UNL     1       4.996   6.304  18.238  0.00  0.00    +0.000 C 
ATOM      5  C   UNL     1       3.572   5.723  18.173  0.00  0.00    +0.000 C 
ATOM      6  N   UNL     1       3.595   4.290  18.522  0.00  0.00    +0.000 N 
ATOM      7  C   UNL     1       4.508   3.468  17.708  0.00  0.00    +0.000 C 
ATOM      8  C   UNL     1       5.927   4.080  17.724  0.00  0.00    +0.000 C 
ENDROOT
BRANCH   6   9
ATOM      9  C   UNL     1       2.771   3.749  19.488  0.00  0.00    +0.000 A 
ATOM     10  C   UNL     1       1.379   3.666  19.322  0.00  0.00    +0.000 A 
ATOM     11  C   UNL     1       0.549   3.093  20.294  0.00  0.00    +0.000 A 
ATOM     12  C   UNL     1       1.093   2.585  21.467  0.00  0.00    +0.000 A 
ATOM     13  C   UNL     1       2.466   2.656  21.664  0.00  0.00    +0.000 A 
ATOM     14  C   UNL     1       3.287   3.229  20.686  0.00  0.00    +0.000 A 
ENDBRANCH   6   9
BRANCH   1  15
ATOM     15  C   UNL     1       7.583   5.317  15.557  0.00  0.00    +0.000 C 
BRANCH  15  18
ATOM     16  O   UNL     1       7.934   5.228  12.820  0.00  0.00    +0.000 OA
ATOM     17  C   UNL     1       7.035   4.537  13.298  0.00  0.00    +0.000 C 
ATOM     18  N   UNL     1       6.737   4.576  14.644  0.00  0.00    +0.000 N 
ATOM     19  H   UNL     1       6.096   3.880  15.010  0.00  0.00    +0.000 HD
BRANCH  17  20
ATOM     20  C   UNL     1       6.226   3.644  12.497  0.00  0.00    +0.000 A 
ATOM     21  C   UNL     1       6.590   2.512  11.790  0.00  0.00    +0.000 A 
ATOM     22  C   UNL     1       5.426   2.039  11.145  0.00  0.00    +0.000 A 
ATOM     23  C   UNL     1       4.416   2.900  11.505  0.00  0.00    +0.000 A 
ATOM     24  O   UNL     1       4.885   3.874  12.330  0.00  0.00    +0.000 OA
ENDBRANCH  17  20
ENDBRANCH  15  18
ENDBRANCH   1  15
TORSDOF 4
ENDMDL
