MODEL 1
REMARK VINA RESULT:      -7.0      0.000      0.000
REMARK  Name = 
REMARK  2 active torsions:
REMARK  status: ('A' for Active; 'I' for Inactive)
REMARK    1  A    between atoms: C_2  and  C_3
REMARK    2  A    between atoms: C_23  and  C_24
REMARK                            x       y       z     vdW  Elec       q    Type
REMARK                         _______ _______ _______ _____ _____    ______ ____
ROOT
ATOM      1  O   UNL     1      -0.788  14.347  23.948  0.00  0.00    +0.000 OA
ATOM      2  C   UNL     1      -1.941  13.976  23.717  0.00  0.00    +0.000 C 
ATOM      3  N   UNL     1      -2.254  13.350  22.525  0.00  0.00    +0.000 N 
ATOM      4  C   UNL     1      -3.575  12.821  22.147  0.00  0.00    +0.000 C 
ATOM      5  C   UNL     1      -3.948  12.963  20.645  0.00  0.00    +0.000 C 
ATOM      6  N   UNL     1      -2.804  12.815  19.726  0.00  0.00    +0.000 N 
ATOM      7  C   UNL     1      -2.838  11.869  18.718  0.00  0.00    +0.000 A 
ATOM      8  C   UNL     1      -1.766  11.667  17.838  0.00  0.00    +0.000 A 
ATOM      9  C   UNL     1      -1.789  10.640  16.893  0.00  0.00    +0.000 A 
ATOM     10  C   UNL     1      -2.910   9.845  16.814  0.00  0.00    +0.000 A 
ATOM     11  F   UNL     1      -2.970   8.842  15.928  0.00  0.00    +0.000 F 
ATOM     12  C   UNL     1      -3.956  10.108  17.667  0.00  0.00    +0.000 A 
ATOM     13  N   UNL     1      -3.938  11.087  18.610  0.00  0.00    +0.000 NA
ATOM     14  C   UNL     1      -1.569  13.489  20.153  0.00  0.00    +0.000 C 
ATOM     15  C   UNL     1      -1.144  13.064  21.582  0.00  0.00    +0.000 C 
ENDROOT
BRANCH   2  16
ATOM     16  C   UNL     1      -3.054  14.348  24.710  0.00  0.00    +0.000 C 
ATOM     17  C   UNL     1      -4.174  15.133  24.003  0.00  0.00    +0.000 C 
ATOM     18  C   UNL     1      -3.721  16.488  23.463  0.00  0.00    +0.000 C 
ATOM     19  S   UNL     1      -3.092  17.554  24.747  0.00  0.00    +0.000 S 
ATOM     20  O   UNL     1      -2.353  18.631  24.120  0.00  0.00    +0.000 OA
ATOM     21  O   UNL     1      -4.196  17.844  25.650  0.00  0.00    +0.000 OA
ATOM     22  C   UNL     1      -1.944  16.513  25.621  0.00  0.00    +0.000 C 
ATOM     23  C   UNL     1      -2.534  15.141  25.926  0.00  0.00    +0.000 C 
ENDBRANCH   2  16
BRANCH  15  24
ATOM     24  C   UNL     1      -0.589  11.639  21.676  0.00  0.00    +0.000 A 
ATOM     25  C   UNL     1      -0.999  10.718  22.657  0.00  0.00    +0.000 A 
ATOM     26  C   UNL     1      -0.535   9.399  22.673  0.00  0.00    +0.000 A 
ATOM     27  C   UNL     1       0.382   8.972  21.723  0.00  0.00    +0.000 A 
ATOM     28  C   UNL     1       0.823   9.865  20.751  0.00  0.00    +0.000 A 
ATOM     29  C   UNL     1       0.333  11.175  20.731  0.00  0.00    +0.000 A 
ATOM     30  F   UNL     1       0.754  11.984  19.745  0.00  0.00    +0.000 F 
ENDBRANCH  15  24
TORSDOF 2
ENDMDL
MODEL 2
REMARK VINA RESULT:      -6.8      4.033      4.870
REMARK  Name = 
REMARK  2 active torsions:
REMARK  status: ('A' for Active; 'I' for Inactive)
REMARK    1  A    between atoms: C_2  and  C_3
REMARK    2  A    between atoms: C_23  and  C_24
REMARK                            x       y       z     vdW  Elec       q    Type
REMARK                         _______ _______ _______ _____ _____    ______ ____
ROOT
ATOM      1  O   UNL     1       3.357  13.454  21.293  0.00  0.00    +0.000 OA
ATOM      2  C   UNL     1       2.325  14.125  21.225  0.00  0.00    +0.000 C 
ATOM      3  N   UNL     1       1.197  13.622  20.603  0.00  0.00    +0.000 N 
ATOM      4  C   UNL     1      -0.105  14.300  20.493  0.00  0.00    +0.000 C 
ATOM      5  C   UNL     1      -0.878  14.054  19.168  0.00  0.00    +0.000 C 
ATOM      6  N   UNL     1      -0.703  12.699  18.614  0.00  0.00    +0.000 N 
ATOM      7  C   UNL     1      -1.807  11.906  18.353  0.00  0.00    +0.000 A 
ATOM      8  C   UNL     1      -1.694  10.601  17.856  0.00  0.00    +0.000 A 
ATOM      9  C   UNL     1      -2.819   9.788  17.694  0.00  0.00    +0.000 A 
ATOM     10  C   UNL     1      -4.055  10.311  17.999  0.00  0.00    +0.000 A 
ATOM     11  F   UNL     1      -5.159   9.563  17.867  0.00  0.00    +0.000 F 
ATOM     12  C   UNL     1      -4.122  11.611  18.441  0.00  0.00    +0.000 A 
ATOM     13  N   UNL     1      -3.034  12.405  18.629  0.00  0.00    +0.000 NA
ATOM     14  C   UNL     1       0.668  12.173  18.670  0.00  0.00    +0.000 C 
ATOM     15  C   UNL     1       1.247  12.223  20.107  0.00  0.00    +0.000 C 
ENDROOT
BRANCH   2  16
ATOM     16  C   UNL     1       2.354  15.583  21.709  0.00  0.00    +0.000 C 
ATOM     17  C   UNL     1       1.984  16.545  20.565  0.00  0.00    +0.000 C 
ATOM     18  C   UNL     1       2.990  16.540  19.416  0.00  0.00    +0.000 C 
ATOM     19  S   UNL     1       4.630  16.996  19.947  0.00  0.00    +0.000 S 
ATOM     20  O   UNL     1       5.566  16.605  18.913  0.00  0.00    +0.000 OA
ATOM     21  O   UNL     1       4.569  18.377  20.405  0.00  0.00    +0.000 OA
ATOM     22  C   UNL     1       4.902  15.969  21.374  0.00  0.00    +0.000 C 
ATOM     23  C   UNL     1       3.710  15.985  22.325  0.00  0.00    +0.000 C 
ENDBRANCH   2  16
BRANCH  15  24
ATOM     24  C   UNL     1       0.641  11.193  21.067  0.00  0.00    +0.000 A 
ATOM     25  C   UNL     1      -0.187  11.544  22.148  0.00  0.00    +0.000 A 
ATOM     26  C   UNL     1      -0.790  10.579  22.962  0.00  0.00    +0.000 A 
ATOM     27  C   UNL     1      -0.554   9.231  22.735  0.00  0.00    +0.000 A 
ATOM     28  C   UNL     1       0.278   8.852  21.685  0.00  0.00    +0.000 A 
ATOM     29  C   UNL     1       0.856   9.825  20.863  0.00  0.00    +0.000 A 
ATOM     30  F   UNL     1       1.613   9.406  19.837  0.00  0.00    +0.000 F 
ENDBRANCH  15  24
TORSDOF 2
ENDMDL
MODEL 3
REMARK VINA RESULT:      -6.7      6.895      9.181
REMARK  Name = 
REMARK  2 active torsions:
REMARK  status: ('A' for Active; 'I' for Inactive)
REMARK    1  A    between atoms: C_2  and  C_3
REMARK    2  A    between atoms: C_23  and  C_24
REMARK                            x       y       z     vdW  Elec       q    Type
REMARK                         _______ _______ _______ _____ _____    ______ ____
ROOT
ATOM      1  O   UNL     1       1.638   7.187  21.287  0.00  0.00    +0.000 OA
ATOM      2  C   UNL     1       1.618   7.704  20.167  0.00  0.00    +0.000 C 
ATOM      3  N   UNL     1       2.474   7.266  19.174  0.00  0.00    +0.000 N 
ATOM      4  C   UNL     1       2.520   7.765  17.790  0.00  0.00    +0.000 C 
ATOM      5  C   UNL     1       3.934   7.830  17.148  0.00  0.00    +0.000 C 
ATOM      6  N   UNL     1       4.835   6.741  17.569  0.00  0.00    +0.000 N 
ATOM      7  C   UNL     1       5.428   5.924  16.624  0.00  0.00    +0.000 A 
ATOM      8  C   UNL     1       6.267   4.857  16.973  0.00  0.00    +0.000 A 
ATOM      9  C   UNL     1       6.775   3.989  16.003  0.00  0.00    +0.000 A 
ATOM     10  C   UNL     1       6.464   4.225  14.683  0.00  0.00    +0.000 A 
ATOM     11  F   UNL     1       6.922   3.412  13.722  0.00  0.00    +0.000 F 
ATOM     12  C   UNL     1       5.675   5.310  14.384  0.00  0.00    +0.000 A 
ATOM     13  N   UNL     1       5.151   6.148  15.319  0.00  0.00    +0.000 NA
ATOM     14  C   UNL     1       4.788   6.411  19.001  0.00  0.00    +0.000 C 
ATOM     15  C   UNL     1       3.345   6.102  19.475  0.00  0.00    +0.000 C 
ENDROOT
BRANCH   2  16
ATOM     16  C   UNL     1       0.732   8.938  19.935  0.00  0.00    +0.000 C 
ATOM     17  C   UNL     1       1.399  10.203  20.506  0.00  0.00    +0.000 C 
ATOM     18  C   UNL     1       1.562  10.173  22.024  0.00  0.00    +0.000 C 
ATOM     19  S   UNL     1       0.003   9.999  22.871  0.00  0.00    +0.000 S 
ATOM     20  O   UNL     1       0.273   9.604  24.239  0.00  0.00    +0.000 OA
ATOM     21  O   UNL     1      -0.780  11.193  22.588  0.00  0.00    +0.000 OA
ATOM     22  C   UNL     1      -0.773   8.636  22.031  0.00  0.00    +0.000 C 
ATOM     23  C   UNL     1      -0.688   8.776  20.515  0.00  0.00    +0.000 C 
ENDBRANCH   2  16
BRANCH  15  24
ATOM     24  C   UNL     1       2.794   4.759  18.983  0.00  0.00    +0.000 A 
ATOM     25  C   UNL     1       2.758   4.394  17.626  0.00  0.00    +0.000 A 
ATOM     26  C   UNL     1       2.322   3.132  17.210  0.00  0.00    +0.000 A 
ATOM     27  C   UNL     1       1.876   2.207  18.144  0.00  0.00    +0.000 A 
ATOM     28  C   UNL     1       1.879   2.546  19.493  0.00  0.00    +0.000 A 
ATOM     29  C   UNL     1       2.340   3.803  19.899  0.00  0.00    +0.000 A 
ATOM     30  F   UNL     1       2.367   4.063  21.216  0.00  0.00    +0.000 F 
ENDBRANCH  15  24
TORSDOF 2
ENDMDL
MODEL 4
REMARK VINA RESULT:      -6.7      4.217      6.172
REMARK  Name = 
REMARK  2 active torsions:
REMARK  status: ('A' for Active; 'I' for Inactive)
REMARK    1  A    between atoms: C_2  and  C_3
REMARK    2  A    between atoms: C_23  and  C_24
REMARK                            x       y       z     vdW  Elec       q    Type
REMARK                         _______ _______ _______ _____ _____    ______ ____
ROOT
ATOM      1  O   UNL     1       2.379  12.828  19.180  0.00  0.00    +0.000 OA
ATOM      2  C   UNL     1       2.217  13.571  20.151  0.00  0.00    +0.000 C 
ATOM      3  N   UNL     1       0.991  13.643  20.784  0.00  0.00    +0.000 N 
ATOM      4  C   UNL     1       0.679  14.451  21.975  0.00  0.00    +0.000 C 
ATOM      5  C   UNL     1      -0.749  15.065  22.013  0.00  0.00    +0.000 C 
ATOM      6  N   UNL     1      -1.787  14.206  21.411  0.00  0.00    +0.000 N 
ATOM      7  C   UNL     1      -2.900  13.841  22.147  0.00  0.00    +0.000 A 
ATOM      8  C   UNL     1      -3.899  13.004  21.633  0.00  0.00    +0.000 A 
ATOM      9  C   UNL     1      -4.962  12.573  22.429  0.00  0.00    +0.000 A 
ATOM     10  C   UNL     1      -5.032  13.020  23.729  0.00  0.00    +0.000 A 
ATOM     11  F   UNL     1      -6.030  12.623  24.531  0.00  0.00    +0.000 F 
ATOM     12  C   UNL     1      -4.054  13.876  24.177  0.00  0.00    +0.000 A 
ATOM     13  N   UNL     1      -2.999  14.283  23.422  0.00  0.00    +0.000 NA
ATOM     14  C   UNL     1      -1.400  13.544  20.158  0.00  0.00    +0.000 C 
ATOM     15  C   UNL     1      -0.086  12.736  20.313  0.00  0.00    +0.000 C 
ENDROOT
BRANCH   2  16
ATOM     16  C   UNL     1       3.353  14.523  20.557  0.00  0.00    +0.000 C 
ATOM     17  C   UNL     1       2.850  15.977  20.618  0.00  0.00    +0.000 C 
ATOM     18  C   UNL     1       2.404  16.524  19.263  0.00  0.00    +0.000 C 
ATOM     19  S   UNL     1       3.714  16.495  18.054  0.00  0.00    +0.000 S 
ATOM     20  O   UNL     1       3.123  16.663  16.742  0.00  0.00    +0.000 OA
ATOM     21  O   UNL     1       4.753  17.403  18.518  0.00  0.00    +0.000 OA
ATOM     22  C   UNL     1       4.354  14.840  18.179  0.00  0.00    +0.000 C 
ATOM     23  C   UNL     1       4.581  14.422  19.628  0.00  0.00    +0.000 C 
ENDBRANCH   2  16
BRANCH  15  24
ATOM     24  C   UNL     1      -0.231  11.451  21.135  0.00  0.00    +0.000 A 
ATOM     25  C   UNL     1      -0.651  11.440  22.477  0.00  0.00    +0.000 A 
ATOM     26  C   UNL     1      -0.849  10.247  23.181  0.00  0.00    +0.000 A 
ATOM     27  C   UNL     1      -0.600   9.028  22.568  0.00  0.00    +0.000 A 
ATOM     28  C   UNL     1      -0.163   9.006  21.247  0.00  0.00    +0.000 A 
ATOM     29  C   UNL     1       0.009  10.204  20.546  0.00  0.00    +0.000 A 
ATOM     30  F   UNL     1       0.387  10.126  19.260  0.00  0.00    +0.000 F 
ENDBRANCH  15  24
TORSDOF 2
ENDMDL
MODEL 5
REMARK VINA RESULT:      -6.7      6.785      9.183
REMARK  Name = 
REMARK  2 active torsions:
REMARK  status: ('A' for Active; 'I' for Inactive)
REMARK    1  A    between atoms: C_2  and  C_3
REMARK    2  A    between atoms: C_23  and  C_24
REMARK                            x       y       z     vdW  Elec       q    Type
REMARK                         _______ _______ _______ _____ _____    ______ ____
ROOT
ATOM      1  O   UNL     1       1.901   9.293  17.571  0.00  0.00    +0.000 OA
ATOM      2  C   UNL     1       1.856   8.876  18.731  0.00  0.00    +0.000 C 
ATOM      3  N   UNL     1       2.164   7.559  19.018  0.00  0.00    +0.000 N 
ATOM      4  C   UNL     1       2.193   6.950  20.358  0.00  0.00    +0.000 C 
ATOM      5  C   UNL     1       1.715   5.474  20.434  0.00  0.00    +0.000 C 
ATOM      6  N   UNL     1       2.067   4.668  19.249  0.00  0.00    +0.000 N 
ATOM      7  C   UNL     1       2.790   3.498  19.394  0.00  0.00    +0.000 A 
ATOM      8  C   UNL     1       3.176   2.712  18.300  0.00  0.00    +0.000 A 
ATOM      9  C   UNL     1       3.988   1.588  18.467  0.00  0.00    +0.000 A 
ATOM     10  C   UNL     1       4.375   1.241  19.741  0.00  0.00    +0.000 A 
ATOM     11  F   UNL     1       5.162   0.176  19.946  0.00  0.00    +0.000 F 
ATOM     12  C   UNL     1       3.935   2.015  20.789  0.00  0.00    +0.000 A 
ATOM     13  N   UNL     1       3.167   3.127  20.640  0.00  0.00    +0.000 NA
ATOM     14  C   UNL     1       1.882   5.343  17.957  0.00  0.00    +0.000 C 
ATOM     15  C   UNL     1       2.632   6.699  17.902  0.00  0.00    +0.000 C 
ENDROOT
BRANCH   2  16
ATOM     16  C   UNL     1       1.315   9.801  19.833  0.00  0.00    +0.000 C 
ATOM     17  C   UNL     1      -0.155   9.467  20.150  0.00  0.00    +0.000 C 
ATOM     18  C   UNL     1      -1.104   9.725  18.981  0.00  0.00    +0.000 C 
ATOM     19  S   UNL     1      -1.077  11.426  18.447  0.00  0.00    +0.000 S 
ATOM     20  O   UNL     1      -1.690  11.498  17.136  0.00  0.00    +0.000 OA
ATOM     21  O   UNL     1      -1.586  12.233  19.546  0.00  0.00    +0.000 OA
ATOM     22  C   UNL     1       0.658  11.778  18.280  0.00  0.00    +0.000 C 
ATOM     23  C   UNL     1       1.458  11.297  19.486  0.00  0.00    +0.000 C 
ENDBRANCH   2  16
BRANCH  15  24
ATOM     24  C   UNL     1       4.156   6.573  17.801  0.00  0.00    +0.000 A 
ATOM     25  C   UNL     1       4.952   6.028  18.824  0.00  0.00    +0.000 A 
ATOM     26  C   UNL     1       6.331   5.854  18.675  0.00  0.00    +0.000 A 
ATOM     27  C   UNL     1       6.960   6.251  17.504  0.00  0.00    +0.000 A 
ATOM     28  C   UNL     1       6.203   6.812  16.480  0.00  0.00    +0.000 A 
ATOM     29  C   UNL     1       4.821   6.960  16.631  0.00  0.00    +0.000 A 
ATOM     30  F   UNL     1       4.130   7.464  15.597  0.00  0.00    +0.000 F 
ENDBRANCH  15  24
TORSDOF 2
ENDMDL
MODEL 6
REMARK VINA RESULT:      -6.6      8.282     10.150
REMARK  Name = 
REMARK  2 active torsions:
REMARK  status: ('A' for Active; 'I' for Inactive)
REMARK    1  A    between atoms: C_2  and  C_3
REMARK    2  A    between atoms: C_23  and  C_24
REMARK                            x       y       z     vdW  Elec       q    Type
REMARK                         _______ _______ _______ _____ _____    ______ ____
ROOT
ATOM      1  O   UNL     1       4.165  17.633  19.351  0.00  0.00    +0.000 OA
ATOM      2  C   UNL     1       4.260  16.570  18.735  0.00  0.00    +0.000 C 
ATOM      3  N   UNL     1       5.434  15.840  18.766  0.00  0.00    +0.000 N 
ATOM      4  C   UNL     1       5.661  14.540  18.114  0.00  0.00    +0.000 C 
ATOM      5  C   UNL     1       7.089  14.319  17.541  0.00  0.00    +0.000 C 
ATOM      6  N   UNL     1       8.160  14.939  18.344  0.00  0.00    +0.000 N 
ATOM      7  C   UNL     1       9.207  14.170  18.819  0.00  0.00    +0.000 A 
ATOM      8  C   UNL     1      10.233  14.704  19.611  0.00  0.00    +0.000 A 
ATOM      9  C   UNL     1      11.225  13.887  20.158  0.00  0.00    +0.000 A 
ATOM     10  C   UNL     1      11.198  12.541  19.872  0.00  0.00    +0.000 A 
ATOM     11  F   UNL     1      12.125  11.720  20.383  0.00  0.00    +0.000 F 
ATOM     12  C   UNL     1      10.199  12.069  19.053  0.00  0.00    +0.000 A 
ATOM     13  N   UNL     1       9.211  12.847  18.536  0.00  0.00    +0.000 NA
ATOM     14  C   UNL     1       7.864  16.290  18.842  0.00  0.00    +0.000 C 
ATOM     15  C   UNL     1       6.533  16.335  19.634  0.00  0.00    +0.000 C 
ENDROOT
BRANCH   2  16
ATOM     16  C   UNL     1       3.107  16.140  17.814  0.00  0.00    +0.000 C 
ATOM     17  C   UNL     1       2.178  17.329  17.512  0.00  0.00    +0.000 C 
ATOM     18  C   UNL     1       1.456  17.867  18.746  0.00  0.00    +0.000 C 
ATOM     19  S   UNL     1       0.447  16.628  19.535  0.00  0.00    +0.000 S 
ATOM     20  O   UNL     1       0.115  17.095  20.866  0.00  0.00    +0.000 OA
ATOM     21  O   UNL     1      -0.605  16.263  18.597  0.00  0.00    +0.000 OA
ATOM     22  C   UNL     1       1.543  15.235  19.681  0.00  0.00    +0.000 C 
ATOM     23  C   UNL     1       2.293  14.959  18.382  0.00  0.00    +0.000 C 
ENDBRANCH   2  16
BRANCH  15  24
ATOM     24  C   UNL     1       6.596  15.666  21.011  0.00  0.00    +0.000 A 
ATOM     25  C   UNL     1       5.716  14.645  21.411  0.00  0.00    +0.000 A 
ATOM     26  C   UNL     1       5.844  13.998  22.645  0.00  0.00    +0.000 A 
ATOM     27  C   UNL     1       6.843  14.379  23.530  0.00  0.00    +0.000 A 
ATOM     28  C   UNL     1       7.717  15.401  23.172  0.00  0.00    +0.000 A 
ATOM     29  C   UNL     1       7.593  16.024  21.926  0.00  0.00    +0.000 A 
ATOM     30  F   UNL     1       8.490  16.972  21.610  0.00  0.00    +0.000 F 
ENDBRANCH  15  24
TORSDOF 2
ENDMDL
MODEL 7
REMARK VINA RESULT:      -6.5      0.883      1.237
REMARK  Name = 
REMARK  2 active torsions:
REMARK  status: ('A' for Active; 'I' for Inactive)
REMARK    1  A    between atoms: C_2  and  C_3
REMARK    2  A    between atoms: C_23  and  C_24
REMARK                            x       y       z     vdW  Elec       q    Type
REMARK                         _______ _______ _______ _____ _____    ______ ____
ROOT
ATOM      1  O   UNL     1      -0.738  14.254  23.903  0.00  0.00    +0.000 OA
ATOM      2  C   UNL     1      -1.908  13.954  23.657  0.00  0.00    +0.000 C 
ATOM      3  N   UNL     1      -2.246  13.360  22.455  0.00  0.00    +0.000 N 
ATOM      4  C   UNL     1      -3.592  12.915  22.059  0.00  0.00    +0.000 C 
ATOM      5  C   UNL     1      -3.940  13.093  20.555  0.00  0.00    +0.000 C 
ATOM      6  N   UNL     1      -2.797  12.888  19.645  0.00  0.00    +0.000 N 
ATOM      7  C   UNL     1      -2.877  11.955  18.627  0.00  0.00    +0.000 A 
ATOM      8  C   UNL     1      -1.810  11.700  17.756  0.00  0.00    +0.000 A 
ATOM      9  C   UNL     1      -1.884  10.685  16.798  0.00  0.00    +0.000 A 
ATOM     10  C   UNL     1      -3.049   9.958  16.701  0.00  0.00    +0.000 A 
ATOM     11  F   UNL     1      -3.159   8.970  15.803  0.00  0.00    +0.000 F 
ATOM     12  C   UNL     1      -4.086  10.274  17.546  0.00  0.00    +0.000 A 
ATOM     13  N   UNL     1      -4.020  11.241  18.500  0.00  0.00    +0.000 NA
ATOM     14  C   UNL     1      -1.530  13.483  20.092  0.00  0.00    +0.000 C 
ATOM     15  C   UNL     1      -1.145  13.019  21.519  0.00  0.00    +0.000 C 
ENDROOT
BRANCH   2  16
ATOM     16  C   UNL     1      -3.007  14.381  24.643  0.00  0.00    +0.000 C 
ATOM     17  C   UNL     1      -4.080  15.226  23.931  0.00  0.00    +0.000 C 
ATOM     18  C   UNL     1      -3.552  16.557  23.398  0.00  0.00    +0.000 C 
ATOM     19  S   UNL     1      -2.877  17.585  24.690  0.00  0.00    +0.000 S 
ATOM     20  O   UNL     1      -2.079  18.623  24.071  0.00  0.00    +0.000 OA
ATOM     21  O   UNL     1      -3.972  17.930  25.586  0.00  0.00    +0.000 OA
ATOM     22  C   UNL     1      -1.792  16.483  25.568  0.00  0.00    +0.000 C 
ATOM     23  C   UNL     1      -2.455  15.143  25.866  0.00  0.00    +0.000 C 
ENDBRANCH   2  16
BRANCH  15  24
ATOM     24  C   UNL     1      -0.676  11.562  21.604  0.00  0.00    +0.000 A 
ATOM     25  C   UNL     1       0.111  10.949  20.613  0.00  0.00    +0.000 A 
ATOM     26  C   UNL     1       0.590   9.642  20.752  0.00  0.00    +0.000 A 
ATOM     27  C   UNL     1       0.265   8.898  21.877  0.00  0.00    +0.000 A 
ATOM     28  C   UNL     1      -0.530   9.469  22.866  0.00  0.00    +0.000 A 
ATOM     29  C   UNL     1      -0.983  10.785  22.727  0.00  0.00    +0.000 A 
ATOM     30  F   UNL     1      -1.707  11.305  23.731  0.00  0.00    +0.000 F 
ENDBRANCH  15  24
TORSDOF 2
ENDMDL
MODEL 8
REMARK VINA RESULT:      -6.5      5.501      8.910
REMARK  Name = 
REMARK  2 active torsions:
REMARK  status: ('A' for Active; 'I' for Inactive)
REMARK    1  A    between atoms: C_2  and  C_3
REMARK    2  A    between atoms: C_23  and  C_24
REMARK                            x       y       z     vdW  Elec       q    Type
REMARK                         _______ _______ _______ _____ _____    ______ ____
ROOT
ATOM      1  O   UNL     1       2.497   7.984  18.831  0.00  0.00    +0.000 OA
ATOM      2  C   UNL     1       1.744   7.616  19.735  0.00  0.00    +0.000 C 
ATOM      3  N   UNL     1       0.989   8.535  20.441  0.00  0.00    +0.000 N 
ATOM      4  C   UNL     1       0.024   8.224  21.508  0.00  0.00    +0.000 C 
ATOM      5  C   UNL     1      -0.047   9.255  22.669  0.00  0.00    +0.000 C 
ATOM      6  N   UNL     1       0.159  10.652  22.244  0.00  0.00    +0.000 N 
ATOM      7  C   UNL     1      -0.792  11.614  22.532  0.00  0.00    +0.000 A 
ATOM      8  C   UNL     1      -0.660  12.949  22.125  0.00  0.00    +0.000 A 
ATOM      9  C   UNL     1      -1.680  13.877  22.345  0.00  0.00    +0.000 A 
ATOM     10  C   UNL     1      -2.813  13.463  23.009  0.00  0.00    +0.000 A 
ATOM     11  F   UNL     1      -3.819  14.319  23.233  0.00  0.00    +0.000 F 
ATOM     12  C   UNL     1      -2.879  12.156  23.430  0.00  0.00    +0.000 A 
ATOM     13  N   UNL     1      -1.907  11.234  23.199  0.00  0.00    +0.000 NA
ATOM     14  C   UNL     1       1.234  10.855  21.262  0.00  0.00    +0.000 C 
ATOM     15  C   UNL     1       1.052   9.956  20.013  0.00  0.00    +0.000 C 
ENDROOT
BRANCH   2  16
ATOM     16  C   UNL     1       1.763   6.141  20.165  0.00  0.00    +0.000 C 
ATOM     17  C   UNL     1       3.193   5.697  20.525  0.00  0.00    +0.000 C 
ATOM     18  C   UNL     1       4.157   5.728  19.340  0.00  0.00    +0.000 C 
ATOM     19  S   UNL     1       3.623   4.674  18.004  0.00  0.00    +0.000 S 
ATOM     20  O   UNL     1       4.360   5.045  16.813  0.00  0.00    +0.000 OA
ATOM     21  O   UNL     1       3.653   3.304  18.493  0.00  0.00    +0.000 OA
ATOM     22  C   UNL     1       1.918   5.127  17.777  0.00  0.00    +0.000 C 
ATOM     23  C   UNL     1       1.164   5.197  19.101  0.00  0.00    +0.000 C 
ENDBRANCH   2  16
BRANCH  15  24
ATOM     24  C   UNL     1      -0.092  10.386  19.089  0.00  0.00    +0.000 A 
ATOM     25  C   UNL     1      -1.103   9.508  18.657  0.00  0.00    +0.000 A 
ATOM     26  C   UNL     1      -2.178   9.945  17.877  0.00  0.00    +0.000 A 
ATOM     27  C   UNL     1      -2.255  11.271  17.478  0.00  0.00    +0.000 A 
ATOM     28  C   UNL     1      -1.259  12.160  17.871  0.00  0.00    +0.000 A 
ATOM     29  C   UNL     1      -0.201  11.717  18.671  0.00  0.00    +0.000 A 
ATOM     30  F   UNL     1       0.709  12.624  19.062  0.00  0.00    +0.000 F 
ENDBRANCH  15  24
TORSDOF 2
ENDMDL
MODEL 9
REMARK VINA RESULT:      -6.4      4.205      5.274
REMARK  Name = 
REMARK  2 active torsions:
REMARK  status: ('A' for Active; 'I' for Inactive)
REMARK    1  A    between atoms: C_2  and  C_3
REMARK    2  A    between atoms: C_23  and  C_24
REMARK                            x       y       z     vdW  Elec       q    Type
REMARK                         _______ _______ _______ _____ _____    ______ ____
ROOT
ATOM      1  O   UNL     1       2.743  14.867  22.468  0.00  0.00    +0.000 OA
ATOM      2  C   UNL     1       2.071  15.350  21.554  0.00  0.00    +0.000 C 
ATOM      3  N   UNL     1       1.287  14.540  20.753  0.00  0.00    +0.000 N 
ATOM      4  C   UNL     1       0.408  14.992  19.662  0.00  0.00    +0.000 C 
ATOM      5  C   UNL     1       0.321  14.045  18.434  0.00  0.00    +0.000 C 
ATOM      6  N   UNL     1       0.395  12.612  18.775  0.00  0.00    +0.000 N 
ATOM      7  C   UNL     1      -0.610  11.749  18.377  0.00  0.00    +0.000 A 
ATOM      8  C   UNL     1      -0.603  10.386  18.702  0.00  0.00    +0.000 A 
ATOM      9  C   UNL     1      -1.679   9.558  18.371  0.00  0.00    +0.000 A 
ATOM     10  C   UNL     1      -2.738  10.102  17.681  0.00  0.00    +0.000 A 
ATOM     11  F   UNL     1      -3.794   9.346  17.352  0.00  0.00    +0.000 F 
ATOM     12  C   UNL     1      -2.681  11.434  17.344  0.00  0.00    +0.000 A 
ATOM     13  N   UNL     1      -1.654  12.258  17.683  0.00  0.00    +0.000 NA
ATOM     14  C   UNL     1       1.396  12.263  19.793  0.00  0.00    +0.000 C 
ATOM     15  C   UNL     1       1.217  13.095  21.089  0.00  0.00    +0.000 C 
ENDROOT
BRANCH   2  16
ATOM     16  C   UNL     1       2.227  16.842  21.223  0.00  0.00    +0.000 C 
ATOM     17  C   UNL     1       2.714  17.032  19.775  0.00  0.00    +0.000 C 
ATOM     18  C   UNL     1       4.112  16.470  19.523  0.00  0.00    +0.000 C 
ATOM     19  S   UNL     1       5.344  17.222  20.571  0.00  0.00    +0.000 S 
ATOM     20  O   UNL     1       6.531  16.392  20.542  0.00  0.00    +0.000 OA
ATOM     21  O   UNL     1       5.419  18.631  20.210  0.00  0.00    +0.000 OA
ATOM     22  C   UNL     1       4.622  17.123  22.193  0.00  0.00    +0.000 C 
ATOM     23  C   UNL     1       3.167  17.578  22.201  0.00  0.00    +0.000 C 
ENDBRANCH   2  16
BRANCH  15  24
ATOM     24  C   UNL     1      -0.006  12.702  21.925  0.00  0.00    +0.000 A 
ATOM     25  C   UNL     1      -0.974  13.628  22.352  0.00  0.00    +0.000 A 
ATOM     26  C   UNL     1      -2.121  13.231  23.048  0.00  0.00    +0.000 A 
ATOM     27  C   UNL     1      -2.314  11.895  23.366  0.00  0.00    +0.000 A 
ATOM     28  C   UNL     1      -1.363  10.957  22.976  0.00  0.00    +0.000 A 
ATOM     29  C   UNL     1      -0.232  11.362  22.260  0.00  0.00    +0.000 A 
ATOM     30  F   UNL     1       0.632  10.413  21.867  0.00  0.00    +0.000 F 
ENDBRANCH  15  24
TORSDOF 2
ENDMDL
