MODEL 1
REMARK VINA RESULT:      -8.4      0.000      0.000
REMARK  Name = 
REMARK  5 active torsions:
REMARK  status: ('A' for Active; 'I' for Inactive)
REMARK    1  A    between atoms: C_1  and  C_2
REMARK    2  A    between atoms: C_8  and  C_9
REMARK    3  A    between atoms: C_9  and  C_10
REMARK    4  A    between atoms: C_10  and  C_11
REMARK    5  A    between atoms: C_11  and  N_12
REMARK                            x       y       z     vdW  Elec       q    Type
REMARK                         _______ _______ _______ _____ _____    ______ ____
ROOT
ATOM      1  C   UNL     1       1.360   3.519  19.854  0.00  0.00    +0.000 C 
ATOM      2  C   UNL     1       1.601   3.410  18.343  0.00  0.00    +0.000 C 
ATOM      3  C   UNL     1       1.696   4.806  17.689  0.00  0.00    +0.000 C 
ATOM      4  C   UNL     1       3.174   5.057  17.718  0.00  0.00    +0.000 A 
ATOM      5  C   UNL     1       3.838   6.262  17.545  0.00  0.00    +0.000 A 
ATOM      6  C   UNL     1       5.227   6.307  17.595  0.00  0.00    +0.000 A 
ATOM      7  N   UNL     1       5.852   7.474  17.450  0.00  0.00    +0.000 NA
ATOM      8  C   UNL     1       7.188   7.501  17.564  0.00  0.00    +0.000 A 
ATOM      9  N   UNL     1       7.943   6.428  17.762  0.00  0.00    +0.000 NA
ATOM     10  N   UNL     1       7.310   5.256  17.874  0.00  0.00    +0.000 N 
ATOM     11  O   UNL     1       8.069   4.257  18.060  0.00  0.00    +0.000 OA
ATOM     12  C   UNL     1       5.930   5.119  17.813  0.00  0.00    +0.000 A 
ATOM     13  C   UNL     1       5.259   3.880  17.966  0.00  0.00    +0.000 A 
ATOM     14  C   UNL     1       3.879   3.871  17.922  0.00  0.00    +0.000 A 
ATOM     15  C   UNL     1       2.944   2.707  18.037  0.00  0.00    +0.000 C 
ENDROOT
BRANCH   8  16
ATOM     16  C   UNL     1       7.852   8.860  17.550  0.00  0.00    +0.000 C 
BRANCH  16  17
ATOM     17  C   UNL     1       8.775   8.979  18.767  0.00  0.00    +0.000 C 
BRANCH  17  18
ATOM     18  C   UNL     1       9.169  10.414  19.143  0.00  0.00    +0.000 C 
BRANCH  18  19
ATOM     19  N   UNL     1       9.433  11.211  17.932  0.00  0.00    +0.000 NA
ATOM     20  C   UNL     1      10.831  11.677  17.786  0.00  0.00    +0.000 C 
ATOM     21  C   UNL     1      11.193  12.881  18.668  0.00  0.00    +0.000 C 
ATOM     22  O   UNL     1      10.312  13.982  18.421  0.00  0.00    +0.000 OA
ATOM     23  C   UNL     1       8.953  13.599  18.659  0.00  0.00    +0.000 C 
ATOM     24  C   UNL     1       8.542  12.386  17.807  0.00  0.00    +0.000 C 
ENDBRANCH  18  19
ENDBRANCH  17  18
ENDBRANCH  16  17
ENDBRANCH   8  16
TORSDOF 4
ENDMDL
MODEL 2
REMARK VINA RESULT:      -8.3      1.086      1.445
REMARK  Name = 
REMARK  5 active torsions:
REMARK  status: ('A' for Active; 'I' for Inactive)
REMARK    1  A    between atoms: C_1  and  C_2
REMARK    2  A    between atoms: C_8  and  C_9
REMARK    3  A    between atoms: C_9  and  C_10
REMARK    4  A    between atoms: C_10  and  C_11
REMARK    5  A    between atoms: C_11  and  N_12
REMARK                            x       y       z     vdW  Elec       q    Type
REMARK                         _______ _______ _______ _____ _____    ______ ____
ROOT
ATOM      1  C   UNL     1       1.278   4.043  19.985  0.00  0.00    +0.000 C 
ATOM      2  C   UNL     1       1.967   3.382  18.785  0.00  0.00    +0.000 C 
ATOM      3  C   UNL     1       2.206   4.399  17.647  0.00  0.00    +0.000 C 
ATOM      4  C   UNL     1       3.596   4.872  17.947  0.00  0.00    +0.000 A 
ATOM      5  C   UNL     1       4.239   5.998  17.455  0.00  0.00    +0.000 A 
ATOM      6  C   UNL     1       5.546   6.279  17.838  0.00  0.00    +0.000 A 
ATOM      7  N   UNL     1       6.144   7.376  17.376  0.00  0.00    +0.000 NA
ATOM      8  C   UNL     1       7.382   7.657  17.809  0.00  0.00    +0.000 A 
ATOM      9  N   UNL     1       8.079   6.887  18.634  0.00  0.00    +0.000 NA
ATOM     10  N   UNL     1       7.484   5.771  19.067  0.00  0.00    +0.000 N 
ATOM     11  O   UNL     1       8.186   5.063  19.850  0.00  0.00    +0.000 OA
ATOM     12  C   UNL     1       6.192   5.404  18.715  0.00  0.00    +0.000 A 
ATOM     13  C   UNL     1       5.549   4.238  19.203  0.00  0.00    +0.000 A 
ATOM     14  C   UNL     1       4.248   3.993  18.812  0.00  0.00    +0.000 A 
ATOM     15  C   UNL     1       3.363   2.838  19.166  0.00  0.00    +0.000 C 
ENDROOT
BRANCH   8  16
ATOM     16  C   UNL     1       7.971   8.986  17.389  0.00  0.00    +0.000 C 
BRANCH  16  17
ATOM     17  C   UNL     1       8.783   9.564  18.553  0.00  0.00    +0.000 C 
BRANCH  17  18
ATOM     18  C   UNL     1       9.266  11.007  18.351  0.00  0.00    +0.000 C 
BRANCH  18  19
ATOM     19  N   UNL     1      10.278  11.360  19.361  0.00  0.00    +0.000 NA
ATOM     20  C   UNL     1       9.966  12.565  20.162  0.00  0.00    +0.000 C 
ATOM     21  C   UNL     1      10.218  13.893  19.435  0.00  0.00    +0.000 C 
ATOM     22  O   UNL     1      11.572  13.982  18.980  0.00  0.00    +0.000 OA
ATOM     23  C   UNL     1      11.880  12.887  18.110  0.00  0.00    +0.000 C 
ATOM     24  C   UNL     1      11.633  11.528  18.788  0.00  0.00    +0.000 C 
ENDBRANCH  18  19
ENDBRANCH  17  18
ENDBRANCH  16  17
ENDBRANCH   8  16
TORSDOF 4
ENDMDL
MODEL 3
REMARK VINA RESULT:      -8.0      1.186      1.332
REMARK  Name = 
REMARK  5 active torsions:
REMARK  status: ('A' for Active; 'I' for Inactive)
REMARK    1  A    between atoms: C_1  and  C_2
REMARK    2  A    between atoms: C_8  and  C_9
REMARK    3  A    between atoms: C_9  and  C_10
REMARK    4  A    between atoms: C_10  and  C_11
REMARK    5  A    between atoms: C_11  and  N_12
REMARK                            x       y       z     vdW  Elec       q    Type
REMARK                         _______ _______ _______ _____ _____    ______ ____
ROOT
ATOM      1  C   UNL     1       1.346   3.622  18.730  0.00  0.00    +0.000 C 
ATOM      2  C   UNL     1       2.377   2.925  17.833  0.00  0.00    +0.000 C 
ATOM      3  C   UNL     1       2.852   3.857  16.698  0.00  0.00    +0.000 C 
ATOM      4  C   UNL     1       4.075   4.478  17.303  0.00  0.00    +0.000 A 
ATOM      5  C   UNL     1       4.755   5.611  16.881  0.00  0.00    +0.000 A 
ATOM      6  C   UNL     1       5.888   6.041  17.564  0.00  0.00    +0.000 A 
ATOM      7  N   UNL     1       6.518   7.143  17.163  0.00  0.00    +0.000 NA
ATOM      8  C   UNL     1       7.570   7.571  17.876  0.00  0.00    +0.000 A 
ATOM      9  N   UNL     1       8.063   6.941  18.934  0.00  0.00    +0.000 NA
ATOM     10  N   UNL     1       7.444   5.818  19.310  0.00  0.00    +0.000 N 
ATOM     11  O   UNL     1       7.949   5.246  20.323  0.00  0.00    +0.000 OA
ATOM     12  C   UNL     1       6.324   5.307  18.670  0.00  0.00    +0.000 A 
ATOM     13  C   UNL     1       5.648   4.133  19.092  0.00  0.00    +0.000 A 
ATOM     14  C   UNL     1       4.520   3.739  18.399  0.00  0.00    +0.000 A 
ATOM     15  C   UNL     1       3.648   2.544  18.628  0.00  0.00    +0.000 C 
ENDROOT
BRANCH   8  16
ATOM     16  C   UNL     1       8.165   8.907  17.487  0.00  0.00    +0.000 C 
BRANCH  16  17
ATOM     17  C   UNL     1       8.794   9.554  18.726  0.00  0.00    +0.000 C 
BRANCH  17  18
ATOM     18  C   UNL     1       9.890  10.587  18.429  0.00  0.00    +0.000 C 
BRANCH  18  19
ATOM     19  N   UNL     1       9.347  11.954  18.507  0.00  0.00    +0.000 NA
ATOM     20  C   UNL     1       9.984  12.932  17.597  0.00  0.00    +0.000 C 
ATOM     21  C   UNL     1      11.353  13.441  18.071  0.00  0.00    +0.000 C 
ATOM     22  O   UNL     1      11.263  14.019  19.377  0.00  0.00    +0.000 OA
ATOM     23  C   UNL     1      10.750  13.065  20.313  0.00  0.00    +0.000 C 
ATOM     24  C   UNL     1       9.382  12.513  19.878  0.00  0.00    +0.000 C 
ENDBRANCH  18  19
ENDBRANCH  17  18
ENDBRANCH  16  17
ENDBRANCH   8  16
TORSDOF 4
ENDMDL
MODEL 4
REMARK VINA RESULT:      -7.3      6.530      8.844
REMARK  Name = 
REMARK  5 active torsions:
REMARK  status: ('A' for Active; 'I' for Inactive)
REMARK    1  A    between atoms: C_1  and  C_2
REMARK    2  A    between atoms: C_8  and  C_9
REMARK    3  A    between atoms: C_9  and  C_10
REMARK    4  A    between atoms: C_10  and  C_11
REMARK    5  A    between atoms: C_11  and  N_12
REMARK                            x       y       z     vdW  Elec       q    Type
REMARK                         _______ _______ _______ _____ _____    ______ ____
ROOT
ATOM      1  C   UNL     1       1.438   3.604  18.182  0.00  0.00    +0.000 C 
ATOM      2  C   UNL     1       2.763   4.243  18.614  0.00  0.00    +0.000 C 
ATOM      3  C   UNL     1       3.086   5.492  17.765  0.00  0.00    +0.000 C 
ATOM      4  C   UNL     1       2.499   6.589  18.601  0.00  0.00    +0.000 A 
ATOM      5  C   UNL     1       2.213   7.893  18.221  0.00  0.00    +0.000 A 
ATOM      6  C   UNL     1       1.675   8.786  19.140  0.00  0.00    +0.000 A 
ATOM      7  N   UNL     1       1.384  10.027  18.755  0.00  0.00    +0.000 NA
ATOM      8  C   UNL     1       0.808  10.851  19.643  0.00  0.00    +0.000 A 
ATOM      9  N   UNL     1       0.550  10.530  20.904  0.00  0.00    +0.000 NA
ATOM     10  N   UNL     1       0.875   9.292  21.291  0.00  0.00    +0.000 N 
ATOM     11  O   UNL     1       0.615   9.027  22.503  0.00  0.00    +0.000 OA
ATOM     12  C   UNL     1       1.438   8.346  20.445  0.00  0.00    +0.000 A 
ATOM     13  C   UNL     1       1.750   7.023  20.847  0.00  0.00    +0.000 A 
ATOM     14  C   UNL     1       2.274   6.157  19.908  0.00  0.00    +0.000 A 
ATOM     15  C   UNL     1       2.700   4.732  20.079  0.00  0.00    +0.000 C 
ENDROOT
BRANCH   8  16
ATOM     16  C   UNL     1       0.349  12.199  19.133  0.00  0.00    +0.000 C 
BRANCH  16  17
ATOM     17  C   UNL     1      -0.715  11.989  18.050  0.00  0.00    +0.000 C 
BRANCH  17  18
ATOM     18  C   UNL     1      -2.154  11.868  18.572  0.00  0.00    +0.000 C 
BRANCH  18  19
ATOM     19  N   UNL     1      -2.753  10.593  18.145  0.00  0.00    +0.000 NA
ATOM     20  C   UNL     1      -2.189  10.024  16.900  0.00  0.00    +0.000 C 
ATOM     21  C   UNL     1      -2.686  10.698  15.613  0.00  0.00    +0.000 C 
ATOM     22  O   UNL     1      -4.114  10.658  15.531  0.00  0.00    +0.000 OA
ATOM     23  C   UNL     1      -4.700  11.299  16.670  0.00  0.00    +0.000 C 
ATOM     24  C   UNL     1      -4.223  10.667  17.990  0.00  0.00    +0.000 C 
ENDBRANCH  18  19
ENDBRANCH  17  18
ENDBRANCH  16  17
ENDBRANCH   8  16
TORSDOF 4
ENDMDL
MODEL 5
REMARK VINA RESULT:      -7.3      1.382      1.634
REMARK  Name = 
REMARK  5 active torsions:
REMARK  status: ('A' for Active; 'I' for Inactive)
REMARK    1  A    between atoms: C_1  and  C_2
REMARK    2  A    between atoms: C_8  and  C_9
REMARK    3  A    between atoms: C_9  and  C_10
REMARK    4  A    between atoms: C_10  and  C_11
REMARK    5  A    between atoms: C_11  and  N_12
REMARK                            x       y       z     vdW  Elec       q    Type
REMARK                         _______ _______ _______ _____ _____    ______ ____
ROOT
ATOM      1  C   UNL     1       1.901   2.735  20.600  0.00  0.00    +0.000 C 
ATOM      2  C   UNL     1       1.296   3.500  19.416  0.00  0.00    +0.000 C 
ATOM      3  C   UNL     1       1.646   5.003  19.482  0.00  0.00    +0.000 C 
ATOM      4  C   UNL     1       2.889   5.065  18.647  0.00  0.00    +0.000 A 
ATOM      5  C   UNL     1       3.825   6.086  18.583  0.00  0.00    +0.000 A 
ATOM      6  C   UNL     1       4.922   5.977  17.736  0.00  0.00    +0.000 A 
ATOM      7  N   UNL     1       5.825   6.954  17.701  0.00  0.00    +0.000 NA
ATOM      8  C   UNL     1       6.906   6.796  16.923  0.00  0.00    +0.000 A 
ATOM      9  N   UNL     1       7.116   5.748  16.139  0.00  0.00    +0.000 NA
ATOM     10  N   UNL     1       6.188   4.786  16.155  0.00  0.00    +0.000 N 
ATOM     11  O   UNL     1       6.427   3.803  15.389  0.00  0.00    +0.000 OA
ATOM     12  C   UNL     1       5.053   4.827  16.952  0.00  0.00    +0.000 A 
ATOM     13  C   UNL     1       4.087   3.790  16.993  0.00  0.00    +0.000 A 
ATOM     14  C   UNL     1       3.015   3.924  17.853  0.00  0.00    +0.000 A 
ATOM     15  C   UNL     1       1.863   2.993  18.070  0.00  0.00    +0.000 C 
ENDROOT
BRANCH   8  16
ATOM     16  C   UNL     1       7.986   7.851  17.025  0.00  0.00    +0.000 C 
BRANCH  16  17
ATOM     17  C   UNL     1       7.835   8.595  18.356  0.00  0.00    +0.000 C 
BRANCH  17  18
ATOM     18  C   UNL     1       9.098   9.325  18.835  0.00  0.00    +0.000 C 
BRANCH  18  19
ATOM     19  N   UNL     1       8.858  10.776  18.912  0.00  0.00    +0.000 NA
ATOM     20  C   UNL     1       9.554  11.579  17.881  0.00  0.00    +0.000 C 
ATOM     21  C   UNL     1      11.048  11.803  18.153  0.00  0.00    +0.000 C 
ATOM     22  O   UNL     1      11.252  12.418  19.429  0.00  0.00    +0.000 OA
ATOM     23  C   UNL     1      10.685  11.613  20.469  0.00  0.00    +0.000 C 
ATOM     24  C   UNL     1       9.188  11.348  20.238  0.00  0.00    +0.000 C 
ENDBRANCH  18  19
ENDBRANCH  17  18
ENDBRANCH  16  17
ENDBRANCH   8  16
TORSDOF 4
ENDMDL
MODEL 6
REMARK VINA RESULT:      -7.2      1.051      1.394
REMARK  Name = 
REMARK  5 active torsions:
REMARK  status: ('A' for Active; 'I' for Inactive)
REMARK    1  A    between atoms: C_1  and  C_2
REMARK    2  A    between atoms: C_8  and  C_9
REMARK    3  A    between atoms: C_9  and  C_10
REMARK    4  A    between atoms: C_10  and  C_11
REMARK    5  A    between atoms: C_11  and  N_12
REMARK                            x       y       z     vdW  Elec       q    Type
REMARK                         _______ _______ _______ _____ _____    ______ ____
ROOT
ATOM      1  C   UNL     1       1.566   2.749  19.430  0.00  0.00    +0.000 C 
ATOM      2  C   UNL     1       1.406   3.552  18.133  0.00  0.00    +0.000 C 
ATOM      3  C   UNL     1       1.689   5.053  18.365  0.00  0.00    +0.000 C 
ATOM      4  C   UNL     1       3.146   5.145  18.023  0.00  0.00    +0.000 A 
ATOM      5  C   UNL     1       4.030   6.170  18.324  0.00  0.00    +0.000 A 
ATOM      6  C   UNL     1       5.357   6.091  17.915  0.00  0.00    +0.000 A 
ATOM      7  N   UNL     1       6.201   7.071  18.231  0.00  0.00    +0.000 NA
ATOM      8  C   UNL     1       7.489   6.942  17.879  0.00  0.00    +0.000 A 
ATOM      9  N   UNL     1       7.975   5.921  17.187  0.00  0.00    +0.000 NA
ATOM     10  N   UNL     1       7.115   4.957  16.845  0.00  0.00    +0.000 N 
ATOM     11  O   UNL     1       7.621   4.001  16.182  0.00  0.00    +0.000 OA
ATOM     12  C   UNL     1       5.771   4.969  17.192  0.00  0.00    +0.000 A 
ATOM     13  C   UNL     1       4.866   3.929  16.859  0.00  0.00    +0.000 A 
ATOM     14  C   UNL     1       3.559   4.033  17.289  0.00  0.00    +0.000 A 
ATOM     15  C   UNL     1       2.417   3.092  17.058  0.00  0.00    +0.000 C 
ENDROOT
BRANCH   8  16
ATOM     16  C   UNL     1       8.449   7.995  18.387  0.00  0.00    +0.000 C 
BRANCH  16  17
ATOM     17  C   UNL     1       8.012   9.366  17.862  0.00  0.00    +0.000 C 
BRANCH  17  18
ATOM     18  C   UNL     1       9.111  10.438  17.861  0.00  0.00    +0.000 C 
BRANCH  18  19
ATOM     19  N   UNL     1       8.894  11.401  18.954  0.00  0.00    +0.000 NA
ATOM     20  C   UNL     1       8.962  12.825  18.554  0.00  0.00    +0.000 C 
ATOM     21  C   UNL     1      10.388  13.360  18.354  0.00  0.00    +0.000 C 
ATOM     22  O   UNL     1      11.176  13.176  19.535  0.00  0.00    +0.000 OA
ATOM     23  C   UNL     1      11.225  11.790  19.893  0.00  0.00    +0.000 C 
ATOM     24  C   UNL     1       9.818  11.200  20.094  0.00  0.00    +0.000 C 
ENDBRANCH  18  19
ENDBRANCH  17  18
ENDBRANCH  16  17
ENDBRANCH   8  16
TORSDOF 4
ENDMDL
MODEL 7
REMARK VINA RESULT:      -7.1      1.426      1.735
REMARK  Name = 
REMARK  5 active torsions:
REMARK  status: ('A' for Active; 'I' for Inactive)
REMARK    1  A    between atoms: C_1  and  C_2
REMARK    2  A    between atoms: C_8  and  C_9
REMARK    3  A    between atoms: C_9  and  C_10
REMARK    4  A    between atoms: C_10  and  C_11
REMARK    5  A    between atoms: C_11  and  N_12
REMARK                            x       y       z     vdW  Elec       q    Type
REMARK                         _______ _______ _______ _____ _____    ______ ____
ROOT
ATOM      1  C   UNL     1       2.534   2.356  20.796  0.00  0.00    +0.000 C 
ATOM      2  C   UNL     1       1.790   3.233  19.781  0.00  0.00    +0.000 C 
ATOM      3  C   UNL     1       2.168   4.722  19.945  0.00  0.00    +0.000 C 
ATOM      4  C   UNL     1       3.290   4.862  18.962  0.00  0.00    +0.000 A 
ATOM      5  C   UNL     1       4.225   5.883  18.873  0.00  0.00    +0.000 A 
ATOM      6  C   UNL     1       5.199   5.854  17.881  0.00  0.00    +0.000 A 
ATOM      7  N   UNL     1       6.104   6.829  17.822  0.00  0.00    +0.000 NA
ATOM      8  C   UNL     1       7.071   6.745  16.896  0.00  0.00    +0.000 A 
ATOM      9  N   UNL     1       7.161   5.777  15.994  0.00  0.00    +0.000 NA
ATOM     10  N   UNL     1       6.229   4.819  16.040  0.00  0.00    +0.000 N 
ATOM     11  O   UNL     1       6.350   3.915  15.159  0.00  0.00    +0.000 OA
ATOM     12  C   UNL     1       5.209   4.786  16.980  0.00  0.00    +0.000 A 
ATOM     13  C   UNL     1       4.242   3.751  17.050  0.00  0.00    +0.000 A 
ATOM     14  C   UNL     1       3.294   3.804  18.053  0.00  0.00    +0.000 A 
ATOM     15  C   UNL     1       2.167   2.858  18.330  0.00  0.00    +0.000 C 
ENDROOT
BRANCH   8  16
ATOM     16  C   UNL     1       8.170   7.783  16.954  0.00  0.00    +0.000 C 
BRANCH  16  17
ATOM     17  C   UNL     1       8.166   8.439  18.339  0.00  0.00    +0.000 C 
BRANCH  17  18
ATOM     18  C   UNL     1       8.346   9.964  18.332  0.00  0.00    +0.000 C 
BRANCH  18  19
ATOM     19  N   UNL     1       9.604  10.339  19.000  0.00  0.00    +0.000 NA
ATOM     20  C   UNL     1       9.438  11.068  20.278  0.00  0.00    +0.000 C 
ATOM     21  C   UNL     1       9.071  12.551  20.119  0.00  0.00    +0.000 C 
ATOM     22  O   UNL     1      10.040  13.237  19.320  0.00  0.00    +0.000 OA
ATOM     23  C   UNL     1      10.150  12.624  18.030  0.00  0.00    +0.000 C 
ATOM     24  C   UNL     1      10.505  11.131  18.134  0.00  0.00    +0.000 C 
ENDBRANCH  18  19
ENDBRANCH  17  18
ENDBRANCH  16  17
ENDBRANCH   8  16
TORSDOF 4
ENDMDL
MODEL 8
REMARK VINA RESULT:      -7.1      1.520      1.950
REMARK  Name = 
REMARK  5 active torsions:
REMARK  status: ('A' for Active; 'I' for Inactive)
REMARK    1  A    between atoms: C_1  and  C_2
REMARK    2  A    between atoms: C_8  and  C_9
REMARK    3  A    between atoms: C_9  and  C_10
REMARK    4  A    between atoms: C_10  and  C_11
REMARK    5  A    between atoms: C_11  and  N_12
REMARK                            x       y       z     vdW  Elec       q    Type
REMARK                         _______ _______ _______ _____ _____    ______ ____
ROOT
ATOM      1  C   UNL     1       3.035   1.136  18.537  0.00  0.00    +0.000 C 
ATOM      2  C   UNL     1       2.308   2.412  18.981  0.00  0.00    +0.000 C 
ATOM      3  C   UNL     1       3.135   3.193  20.026  0.00  0.00    +0.000 C 
ATOM      4  C   UNL     1       3.896   4.151  19.160  0.00  0.00    +0.000 A 
ATOM      5  C   UNL     1       5.015   4.899  19.495  0.00  0.00    +0.000 A 
ATOM      6  C   UNL     1       5.590   5.752  18.559  0.00  0.00    +0.000 A 
ATOM      7  N   UNL     1       6.677   6.447  18.885  0.00  0.00    +0.000 NA
ATOM      8  C   UNL     1       7.249   7.215  17.945  0.00  0.00    +0.000 A 
ATOM      9  N   UNL     1       6.775   7.370  16.717  0.00  0.00    +0.000 NA
ATOM     10  N   UNL     1       5.664   6.694  16.407  0.00  0.00    +0.000 N 
ATOM     11  O   UNL     1       5.243   6.874  15.225  0.00  0.00    +0.000 OA
ATOM     12  C   UNL     1       5.014   5.841  17.289  0.00  0.00    +0.000 A 
ATOM     13  C   UNL     1       3.855   5.098  16.948  0.00  0.00    +0.000 A 
ATOM     14  C   UNL     1       3.315   4.252  17.896  0.00  0.00    +0.000 A 
ATOM     15  C   UNL     1       2.101   3.382  17.795  0.00  0.00    +0.000 C 
ENDROOT
BRANCH   8  16
ATOM     16  C   UNL     1       8.567   7.868  18.300  0.00  0.00    +0.000 C 
BRANCH  16  17
ATOM     17  C   UNL     1       8.416   9.389  18.196  0.00  0.00    +0.000 C 
BRANCH  17  18
ATOM     18  C   UNL     1       9.197  10.190  19.247  0.00  0.00    +0.000 C 
BRANCH  18  19
ATOM     19  N   UNL     1      10.132  11.123  18.596  0.00  0.00    +0.000 NA
ATOM     20  C   UNL     1      11.083  11.793  19.512  0.00  0.00    +0.000 C 
ATOM     21  C   UNL     1      10.477  12.951  20.319  0.00  0.00    +0.000 C 
ATOM     22  O   UNL     1       9.901  13.934  19.454  0.00  0.00    +0.000 OA
ATOM     23  C   UNL     1       8.895  13.343  18.624  0.00  0.00    +0.000 C 
ATOM     24  C   UNL     1       9.448  12.167  17.801  0.00  0.00    +0.000 C 
ENDBRANCH  18  19
ENDBRANCH  17  18
ENDBRANCH  16  17
ENDBRANCH   8  16
TORSDOF 4
ENDMDL
MODEL 9
REMARK VINA RESULT:      -7.1      5.254      7.840
REMARK  Name = 
REMARK  5 active torsions:
REMARK  status: ('A' for Active; 'I' for Inactive)
REMARK    1  A    between atoms: C_1  and  C_2
REMARK    2  A    between atoms: C_8  and  C_9
REMARK    3  A    between atoms: C_9  and  C_10
REMARK    4  A    between atoms: C_10  and  C_11
REMARK    5  A    between atoms: C_11  and  N_12
REMARK                            x       y       z     vdW  Elec       q    Type
REMARK                         _______ _______ _______ _____ _____    ______ ____
ROOT
ATOM      1  C   UNL     1      -2.534  11.733  22.280  0.00  0.00    +0.000 C 
ATOM      2  C   UNL     1      -1.079  11.916  22.731  0.00  0.00    +0.000 C 
ATOM      3  C   UNL     1      -0.480  10.586  23.238  0.00  0.00    +0.000 C 
ATOM      4  C   UNL     1       0.168  10.050  21.997  0.00  0.00    +0.000 A 
ATOM      5  C   UNL     1       0.605   8.756  21.753  0.00  0.00    +0.000 A 
ATOM      6  C   UNL     1       1.198   8.437  20.536  0.00  0.00    +0.000 A 
ATOM      7  N   UNL     1       1.592   7.187  20.306  0.00  0.00    +0.000 NA
ATOM      8  C   UNL     1       2.103   6.891  19.101  0.00  0.00    +0.000 A 
ATOM      9  N   UNL     1       2.292   7.775  18.132  0.00  0.00    +0.000 NA
ATOM     10  N   UNL     1       1.924   9.036  18.383  0.00  0.00    +0.000 N 
ATOM     11  O   UNL     1       2.125   9.849  17.430  0.00  0.00    +0.000 OA
ATOM     12  C   UNL     1       1.348   9.443  19.578  0.00  0.00    +0.000 A 
ATOM     13  C   UNL     1       0.926  10.774  19.830  0.00  0.00    +0.000 A 
ATOM     14  C   UNL     1       0.331  11.055  21.044  0.00  0.00    +0.000 A 
ATOM     15  C   UNL     1      -0.179  12.366  21.557  0.00  0.00    +0.000 C 
ENDROOT
BRANCH   8  16
ATOM     16  C   UNL     1       2.396   5.434  18.818  0.00  0.00    +0.000 C 
BRANCH  16  17
ATOM     17  C   UNL     1       3.515   4.957  19.751  0.00  0.00    +0.000 C 
BRANCH  17  18
ATOM     18  C   UNL     1       4.768   4.428  19.040  0.00  0.00    +0.000 C 
BRANCH  18  19
ATOM     19  N   UNL     1       5.360   5.475  18.189  0.00  0.00    +0.000 NA
ATOM     20  C   UNL     1       5.231   5.242  16.733  0.00  0.00    +0.000 C 
ATOM     21  C   UNL     1       6.217   4.211  16.165  0.00  0.00    +0.000 C 
ATOM     22  O   UNL     1       7.569   4.581  16.454  0.00  0.00    +0.000 OA
ATOM     23  C   UNL     1       7.763   4.709  17.867  0.00  0.00    +0.000 C 
ATOM     24  C   UNL     1       6.788   5.724  18.489  0.00  0.00    +0.000 C 
ENDBRANCH  18  19
ENDBRANCH  17  18
ENDBRANCH  16  17
ENDBRANCH   8  16
TORSDOF 4
ENDMDL
