MODEL 1
REMARK VINA RESULT:      -8.2      0.000      0.000
REMARK  Name = 
REMARK  7 active torsions:
REMARK  status: ('A' for Active; 'I' for Inactive)
REMARK    1  A    between atoms: S_2  and  N_4
REMARK    2  A    between atoms: S_2  and  C_20
REMARK    3  A    between atoms: N_4  and  C_5
REMARK    4  A    between atoms: N_8  and  C_9
REMARK    5  A    between atoms: C_9  and  C_10
REMARK    6  A    between atoms: C_10  and  O_11
REMARK    7  A    between atoms: O_11  and  C_12
REMARK                            x       y       z     vdW  Elec       q    Type
REMARK                         _______ _______ _______ _____ _____    ______ ____
ROOT
ATOM      1  C   UNL     1       6.726   4.497  17.489  0.00  0.00    +0.000 C 
ATOM      2  C   UNL     1       8.041   4.743  18.206  0.00  0.00    +0.000 C 
ATOM      3  C   UNL     1       7.749   5.990  19.016  0.00  0.00    +0.000 C 
ATOM      4  N   UNL     1       7.007   6.864  18.093  0.00  0.00    +0.000 NA
ATOM      5  C   UNL     1       6.256   5.945  17.194  0.00  0.00    +0.000 C 
ENDROOT
BRANCH   1   6
ATOM      6  N   UNL     1       5.741   3.810  18.347  0.00  0.00    +0.000 NA
ATOM      7  H   UNL     1       6.080   3.122  19.021  0.00  0.00    +0.000 HD
BRANCH   6   9
ATOM      8  O   UNL     1       3.990   3.946  16.500  0.00  0.00    +0.000 OA
ATOM      9  S   UNL     1       4.146   3.556  17.882  0.00  0.00    +0.000 S 
ATOM     10  O   UNL     1       3.801   2.232  18.342  0.00  0.00    +0.000 OA
BRANCH   9  11
ATOM     11  C   UNL     1       3.246   4.703  18.880  0.00  0.00    +0.000 A 
ATOM     12  C   UNL     1       2.642   4.266  20.069  0.00  0.00    +0.000 A 
ATOM     13  C   UNL     1       1.904   5.168  20.837  0.00  0.00    +0.000 A 
ATOM     14  C   UNL     1       1.782   6.489  20.411  0.00  0.00    +0.000 A 
ATOM     15  F   UNL     1       1.048   7.343  21.134  0.00  0.00    +0.000 F 
ATOM     16  C   UNL     1       2.411   6.919  19.246  0.00  0.00    +0.000 A 
ATOM     17  F   UNL     1       2.296   8.195  18.851  0.00  0.00    +0.000 F 
ATOM     18  C   UNL     1       3.154   6.036  18.472  0.00  0.00    +0.000 A 
ENDBRANCH   9  11
ENDBRANCH   6   9
ENDBRANCH   1   6
BRANCH   4  19
ATOM     19  C   UNL     1       7.951   7.743  17.367  0.00  0.00    +0.000 C 
BRANCH  19  20
ATOM     20  C   UNL     1       7.951   9.186  17.883  0.00  0.00    +0.000 C 
BRANCH  20  21
ATOM     21  O   UNL     1       8.775   9.284  19.049  0.00  0.00    +0.000 OA
BRANCH  21  22
ATOM     22  C   UNL     1       9.480  10.453  19.176  0.00  0.00    +0.000 A 
ATOM     23  C   UNL     1       9.920  11.005  20.386  0.00  0.00    +0.000 A 
ATOM     24  C   UNL     1      10.628  12.209  20.405  0.00  0.00    +0.000 A 
ATOM     25  C   UNL     1      10.903  12.868  19.211  0.00  0.00    +0.000 A 
ATOM     26  C   UNL     1      10.466  12.318  18.011  0.00  0.00    +0.000 A 
ATOM     27  F   UNL     1      10.733  12.956  16.864  0.00  0.00    +0.000 F 
ATOM     28  C   UNL     1       9.758  11.120  17.982  0.00  0.00    +0.000 A 
ENDBRANCH  21  22
ENDBRANCH  20  21
ENDBRANCH  19  20
ENDBRANCH   4  19
TORSDOF 7
ENDMDL
MODEL 2
REMARK VINA RESULT:      -7.8      0.730      1.383
REMARK  Name = 
REMARK  7 active torsions:
REMARK  status: ('A' for Active; 'I' for Inactive)
REMARK    1  A    between atoms: S_2  and  N_4
REMARK    2  A    between atoms: S_2  and  C_20
REMARK    3  A    between atoms: N_4  and  C_5
REMARK    4  A    between atoms: N_8  and  C_9
REMARK    5  A    between atoms: C_9  and  C_10
REMARK    6  A    between atoms: C_10  and  O_11
REMARK    7  A    between atoms: O_11  and  C_12
REMARK                            x       y       z     vdW  Elec       q    Type
REMARK                         _______ _______ _______ _____ _____    ______ ____
ROOT
ATOM      1  C   UNL     1       6.730   4.493  17.087  0.00  0.00    +0.000 C 
ATOM      2  C   UNL     1       8.036   4.668  17.841  0.00  0.00    +0.000 C 
ATOM      3  C   UNL     1       7.730   5.823  18.773  0.00  0.00    +0.000 C 
ATOM      4  N   UNL     1       6.993   6.786  17.937  0.00  0.00    +0.000 NA
ATOM      5  C   UNL     1       6.257   5.963  16.938  0.00  0.00    +0.000 C 
ENDROOT
BRANCH   1   6
ATOM      6  N   UNL     1       5.739   3.718  17.857  0.00  0.00    +0.000 NA
ATOM      7  H   UNL     1       6.072   2.949  18.442  0.00  0.00    +0.000 HD
BRANCH   6   9
ATOM      8  O   UNL     1       3.984   4.111  16.052  0.00  0.00    +0.000 OA
ATOM      9  S   UNL     1       4.142   3.538  17.368  0.00  0.00    +0.000 S 
ATOM     10  O   UNL     1       3.789   2.166  17.647  0.00  0.00    +0.000 OA
BRANCH   9  11
ATOM     11  C   UNL     1       3.251   4.545  18.515  0.00  0.00    +0.000 A 
ATOM     12  C   UNL     1       2.964   5.880  18.192  0.00  0.00    +0.000 A 
ATOM     13  C   UNL     1       2.290   6.681  19.115  0.00  0.00    +0.000 A 
ATOM     14  C   UNL     1       1.909   6.139  20.341  0.00  0.00    +0.000 A 
ATOM     15  F   UNL     1       1.289   6.919  21.235  0.00  0.00    +0.000 F 
ATOM     16  C   UNL     1       2.171   4.805  20.638  0.00  0.00    +0.000 A 
ATOM     17  F   UNL     1       1.790   4.290  21.816  0.00  0.00    +0.000 F 
ATOM     18  C   UNL     1       2.836   3.992  19.729  0.00  0.00    +0.000 A 
ENDBRANCH   9  11
ENDBRANCH   6   9
ENDBRANCH   1   6
BRANCH   4  19
ATOM     19  C   UNL     1       7.941   7.739  17.317  0.00  0.00    +0.000 C 
BRANCH  19  20
ATOM     20  C   UNL     1       7.923   9.123  17.975  0.00  0.00    +0.000 C 
BRANCH  20  21
ATOM     21  O   UNL     1       8.959   9.206  18.959  0.00  0.00    +0.000 OA
BRANCH  21  22
ATOM     22  C   UNL     1       9.441  10.466  19.200  0.00  0.00    +0.000 A 
ATOM     23  C   UNL     1       9.584  11.048  20.467  0.00  0.00    +0.000 A 
ATOM     24  C   UNL     1      10.082  12.346  20.603  0.00  0.00    +0.000 A 
ATOM     25  C   UNL     1      10.444  13.071  19.472  0.00  0.00    +0.000 A 
ATOM     26  C   UNL     1      10.303  12.490  18.216  0.00  0.00    +0.000 A 
ATOM     27  F   UNL     1      10.652  13.191  17.129  0.00  0.00    +0.000 F 
ATOM     28  C   UNL     1       9.805  11.199  18.070  0.00  0.00    +0.000 A 
ENDBRANCH  21  22
ENDBRANCH  20  21
ENDBRANCH  19  20
ENDBRANCH   4  19
TORSDOF 7
ENDMDL
MODEL 3
REMARK VINA RESULT:      -7.7      5.063      7.907
REMARK  Name = 
REMARK  7 active torsions:
REMARK  status: ('A' for Active; 'I' for Inactive)
REMARK    1  A    between atoms: S_2  and  N_4
REMARK    2  A    between atoms: S_2  and  C_20
REMARK    3  A    between atoms: N_4  and  C_5
REMARK    4  A    between atoms: N_8  and  C_9
REMARK    5  A    between atoms: C_9  and  C_10
REMARK    6  A    between atoms: C_10  and  O_11
REMARK    7  A    between atoms: O_11  and  C_12
REMARK                            x       y       z     vdW  Elec       q    Type
REMARK                         _______ _______ _______ _____ _____    ______ ____
ROOT
ATOM      1  C   UNL     1       5.077   4.536  19.140  0.00  0.00    +0.000 C 
ATOM      2  C   UNL     1       4.193   3.456  19.737  0.00  0.00    +0.000 C 
ATOM      3  C   UNL     1       2.928   3.566  18.912  0.00  0.00    +0.000 C 
ATOM      4  N   UNL     1       2.690   5.015  18.794  0.00  0.00    +0.000 NA
ATOM      5  C   UNL     1       4.040   5.642  18.814  0.00  0.00    +0.000 C 
ENDROOT
BRANCH   1   6
ATOM      6  N   UNL     1       5.746   4.089  17.902  0.00  0.00    +0.000 NA
ATOM      7  H   UNL     1       5.687   3.102  17.647  0.00  0.00    +0.000 HD
BRANCH   6   9
ATOM      8  O   UNL     1       6.996   6.278  17.528  0.00  0.00    +0.000 OA
ATOM      9  S   UNL     1       7.095   4.862  17.266  0.00  0.00    +0.000 S 
ATOM     10  O   UNL     1       8.237   4.088  17.692  0.00  0.00    +0.000 OA
BRANCH   9  11
ATOM     11  C   UNL     1       6.922   4.613  15.525  0.00  0.00    +0.000 A 
ATOM     12  C   UNL     1       5.977   3.694  15.044  0.00  0.00    +0.000 A 
ATOM     13  C   UNL     1       5.867   3.476  13.670  0.00  0.00    +0.000 A 
ATOM     14  C   UNL     1       6.695   4.180  12.798  0.00  0.00    +0.000 A 
ATOM     15  F   UNL     1       6.607   3.945  11.483  0.00  0.00    +0.000 F 
ATOM     16  C   UNL     1       7.608   5.112  13.284  0.00  0.00    +0.000 A 
ATOM     17  F   UNL     1       8.392   5.791  12.436  0.00  0.00    +0.000 F 
ATOM     18  C   UNL     1       7.727   5.344  14.649  0.00  0.00    +0.000 A 
ENDBRANCH   9  11
ENDBRANCH   6   9
ENDBRANCH   1   6
BRANCH   4  19
ATOM     19  C   UNL     1       1.822   5.471  19.904  0.00  0.00    +0.000 C 
BRANCH  19  20
ATOM     20  C   UNL     1       2.032   6.944  20.269  0.00  0.00    +0.000 C 
BRANCH  20  21
ATOM     21  O   UNL     1       1.077   7.339  21.259  0.00  0.00    +0.000 OA
BRANCH  21  22
ATOM     22  C   UNL     1       0.663   8.644  21.190  0.00  0.00    +0.000 A 
ATOM     23  C   UNL     1       0.811   9.481  20.076  0.00  0.00    +0.000 A 
ATOM     24  C   UNL     1       0.358  10.802  20.112  0.00  0.00    +0.000 A 
ATOM     25  C   UNL     1      -0.247  11.295  21.262  0.00  0.00    +0.000 A 
ATOM     26  C   UNL     1      -0.394  10.463  22.367  0.00  0.00    +0.000 A 
ATOM     27  F   UNL     1      -0.977  10.941  23.474  0.00  0.00    +0.000 F 
ATOM     28  C   UNL     1       0.056   9.146  22.341  0.00  0.00    +0.000 A 
ENDBRANCH  21  22
ENDBRANCH  20  21
ENDBRANCH  19  20
ENDBRANCH   4  19
TORSDOF 7
ENDMDL
MODEL 4
REMARK VINA RESULT:      -7.6      4.753      7.064
REMARK  Name = 
REMARK  7 active torsions:
REMARK  status: ('A' for Active; 'I' for Inactive)
REMARK    1  A    between atoms: S_2  and  N_4
REMARK    2  A    between atoms: S_2  and  C_20
REMARK    3  A    between atoms: N_4  and  C_5
REMARK    4  A    between atoms: N_8  and  C_9
REMARK    5  A    between atoms: C_9  and  C_10
REMARK    6  A    between atoms: C_10  and  O_11
REMARK    7  A    between atoms: O_11  and  C_12
REMARK                            x       y       z     vdW  Elec       q    Type
REMARK                         _______ _______ _______ _____ _____    ______ ____
ROOT
ATOM      1  C   UNL     1       2.482   8.039  19.036  0.00  0.00    +0.000 C 
ATOM      2  C   UNL     1       3.103   7.109  18.010  0.00  0.00    +0.000 C 
ATOM      3  C   UNL     1       2.227   5.877  18.103  0.00  0.00    +0.000 C 
ATOM      4  N   UNL     1       2.024   5.678  19.548  0.00  0.00    +0.000 NA
ATOM      5  C   UNL     1       2.060   7.041  20.145  0.00  0.00    +0.000 C 
ENDROOT
BRANCH   1   6
ATOM      6  N   UNL     1       1.295   8.741  18.508  0.00  0.00    +0.000 NA
ATOM      7  H   UNL     1       0.998   8.540  17.552  0.00  0.00    +0.000 HD
BRANCH   6   9
ATOM      8  O   UNL     1       0.671  10.222  20.486  0.00  0.00    +0.000 OA
ATOM      9  S   UNL     1       0.817  10.257  19.049  0.00  0.00    +0.000 S 
ATOM     10  O   UNL     1       1.687  11.208  18.397  0.00  0.00    +0.000 OA
BRANCH   9  11
ATOM     11  C   UNL     1      -0.789  10.454  18.340  0.00  0.00    +0.000 A 
ATOM     12  C   UNL     1      -1.706  11.338  18.926  0.00  0.00    +0.000 A 
ATOM     13  C   UNL     1      -2.985  11.465  18.382  0.00  0.00    +0.000 A 
ATOM     14  C   UNL     1      -3.327  10.712  17.260  0.00  0.00    +0.000 A 
ATOM     15  F   UNL     1      -4.565  10.814  16.759  0.00  0.00    +0.000 F 
ATOM     16  C   UNL     1      -2.400   9.861  16.667  0.00  0.00    +0.000 A 
ATOM     17  F   UNL     1      -2.737   9.150  15.582  0.00  0.00    +0.000 F 
ATOM     18  C   UNL     1      -1.121   9.727  17.194  0.00  0.00    +0.000 A 
ENDBRANCH   9  11
ENDBRANCH   6   9
ENDBRANCH   1   6
BRANCH   4  19
ATOM     19  C   UNL     1       3.074   4.782  20.083  0.00  0.00    +0.000 C 
BRANCH  19  20
ATOM     20  C   UNL     1       3.602   3.785  19.047  0.00  0.00    +0.000 C 
BRANCH  20  21
ATOM     21  O   UNL     1       5.028   3.699  19.139  0.00  0.00    +0.000 OA
BRANCH  21  22
ATOM     22  C   UNL     1       5.723   4.568  18.339  0.00  0.00    +0.000 A 
ATOM     23  C   UNL     1       5.525   4.734  16.962  0.00  0.00    +0.000 A 
ATOM     24  C   UNL     1       6.295   5.645  16.236  0.00  0.00    +0.000 A 
ATOM     25  C   UNL     1       7.267   6.401  16.883  0.00  0.00    +0.000 A 
ATOM     26  C   UNL     1       7.460   6.236  18.250  0.00  0.00    +0.000 A 
ATOM     27  F   UNL     1       8.398   6.965  18.870  0.00  0.00    +0.000 F 
ATOM     28  C   UNL     1       6.701   5.328  18.982  0.00  0.00    +0.000 A 
ENDBRANCH  21  22
ENDBRANCH  20  21
ENDBRANCH  19  20
ENDBRANCH   4  19
TORSDOF 7
ENDMDL
MODEL 5
REMARK VINA RESULT:      -7.6      4.696      8.422
REMARK  Name = 
REMARK  7 active torsions:
REMARK  status: ('A' for Active; 'I' for Inactive)
REMARK    1  A    between atoms: S_2  and  N_4
REMARK    2  A    between atoms: S_2  and  C_20
REMARK    3  A    between atoms: N_4  and  C_5
REMARK    4  A    between atoms: N_8  and  C_9
REMARK    5  A    between atoms: C_9  and  C_10
REMARK    6  A    between atoms: C_10  and  O_11
REMARK    7  A    between atoms: O_11  and  C_12
REMARK                            x       y       z     vdW  Elec       q    Type
REMARK                         _______ _______ _______ _____ _____    ______ ____
ROOT
ATOM      1  C   UNL     1       2.356   5.627  19.440  0.00  0.00    +0.000 C 
ATOM      2  C   UNL     1       2.132   6.283  18.090  0.00  0.00    +0.000 C 
ATOM      3  C   UNL     1       2.694   7.675  18.299  0.00  0.00    +0.000 C 
ATOM      4  N   UNL     1       2.205   8.074  19.629  0.00  0.00    +0.000 NA
ATOM      5  C   UNL     1       2.098   6.810  20.409  0.00  0.00    +0.000 C 
ENDROOT
BRANCH   1   6
ATOM      6  N   UNL     1       3.739   5.135  19.599  0.00  0.00    +0.000 NA
ATOM      7  H   UNL     1       4.484   5.818  19.740  0.00  0.00    +0.000 HD
BRANCH   6   9
ATOM      8  O   UNL     1       5.144   3.025  19.866  0.00  0.00    +0.000 OA
ATOM      9  S   UNL     1       4.276   3.693  18.924  0.00  0.00    +0.000 S 
ATOM     10  O   UNL     1       3.107   3.047  18.377  0.00  0.00    +0.000 OA
BRANCH   9  11
ATOM     11  C   UNL     1       5.260   4.228  17.557  0.00  0.00    +0.000 A 
ATOM     12  C   UNL     1       5.180   3.547  16.333  0.00  0.00    +0.000 A 
ATOM     13  C   UNL     1       5.983   3.952  15.266  0.00  0.00    +0.000 A 
ATOM     14  C   UNL     1       6.849   5.031  15.434  0.00  0.00    +0.000 A 
ATOM     15  F   UNL     1       7.640   5.397  14.418  0.00  0.00    +0.000 F 
ATOM     16  C   UNL     1       6.897   5.719  16.643  0.00  0.00    +0.000 A 
ATOM     17  F   UNL     1       7.726   6.763  16.790  0.00  0.00    +0.000 F 
ATOM     18  C   UNL     1       6.101   5.332  17.713  0.00  0.00    +0.000 A 
ENDBRANCH   9  11
ENDBRANCH   6   9
ENDBRANCH   1   6
BRANCH   4  19
ATOM     19  C   UNL     1       0.913   8.784  19.495  0.00  0.00    +0.000 C 
BRANCH  19  20
ATOM     20  C   UNL     1       0.915   9.837  18.382  0.00  0.00    +0.000 C 
BRANCH  20  21
ATOM     21  O   UNL     1       0.030  10.908  18.727  0.00  0.00    +0.000 OA
BRANCH  21  22
ATOM     22  C   UNL     1      -1.246  10.798  18.237  0.00  0.00    +0.000 A 
ATOM     23  C   UNL     1      -1.641   9.948  17.196  0.00  0.00    +0.000 A 
ATOM     24  C   UNL     1      -2.970   9.917  16.766  0.00  0.00    +0.000 A 
ATOM     25  C   UNL     1      -3.914  10.736  17.377  0.00  0.00    +0.000 A 
ATOM     26  C   UNL     1      -3.519  11.578  18.411  0.00  0.00    +0.000 A 
ATOM     27  F   UNL     1      -4.431  12.366  18.997  0.00  0.00    +0.000 F 
ATOM     28  C   UNL     1      -2.197  11.618  18.845  0.00  0.00    +0.000 A 
ENDBRANCH  21  22
ENDBRANCH  20  21
ENDBRANCH  19  20
ENDBRANCH   4  19
TORSDOF 7
ENDMDL
MODEL 6
REMARK VINA RESULT:      -7.5      5.254      7.675
REMARK  Name = 
REMARK  7 active torsions:
REMARK  status: ('A' for Active; 'I' for Inactive)
REMARK    1  A    between atoms: S_2  and  N_4
REMARK    2  A    between atoms: S_2  and  C_20
REMARK    3  A    between atoms: N_4  and  C_5
REMARK    4  A    between atoms: N_8  and  C_9
REMARK    5  A    between atoms: C_9  and  C_10
REMARK    6  A    between atoms: C_10  and  O_11
REMARK    7  A    between atoms: O_11  and  C_12
REMARK                            x       y       z     vdW  Elec       q    Type
REMARK                         _______ _______ _______ _____ _____    ______ ____
ROOT
ATOM      1  C   UNL     1       4.079   2.851  18.179  0.00  0.00    +0.000 C 
ATOM      2  C   UNL     1       2.666   2.374  17.897  0.00  0.00    +0.000 C 
ATOM      3  C   UNL     1       1.916   3.671  17.672  0.00  0.00    +0.000 C 
ATOM      4  N   UNL     1       2.409   4.570  18.728  0.00  0.00    +0.000 NA
ATOM      5  C   UNL     1       3.814   4.151  18.982  0.00  0.00    +0.000 C 
ENDROOT
BRANCH   1   6
ATOM      6  N   UNL     1       4.822   3.162  16.942  0.00  0.00    +0.000 NA
ATOM      7  H   UNL     1       5.177   2.386  16.381  0.00  0.00    +0.000 HD
BRANCH   6   9
ATOM      8  O   UNL     1       4.782   5.708  16.828  0.00  0.00    +0.000 OA
ATOM      9  S   UNL     1       5.687   4.587  16.733  0.00  0.00    +0.000 S 
ATOM     10  O   UNL     1       6.851   4.476  17.580  0.00  0.00    +0.000 OA
BRANCH   9  11
ATOM     11  C   UNL     1       6.250   4.477  15.062  0.00  0.00    +0.000 A 
ATOM     12  C   UNL     1       7.359   5.231  14.650  0.00  0.00    +0.000 A 
ATOM     13  C   UNL     1       7.779   5.166  13.321  0.00  0.00    +0.000 A 
ATOM     14  C   UNL     1       7.092   4.348  12.425  0.00  0.00    +0.000 A 
ATOM     15  F   UNL     1       7.480   4.313  11.145  0.00  0.00    +0.000 F 
ATOM     16  C   UNL     1       6.012   3.581  12.852  0.00  0.00    +0.000 A 
ATOM     17  F   UNL     1       5.365   2.789  11.985  0.00  0.00    +0.000 F 
ATOM     18  C   UNL     1       5.584   3.630  14.173  0.00  0.00    +0.000 A 
ENDBRANCH   9  11
ENDBRANCH   6   9
ENDBRANCH   1   6
BRANCH   4  19
ATOM     19  C   UNL     1       1.544   4.458  19.925  0.00  0.00    +0.000 C 
BRANCH  19  20
ATOM     20  C   UNL     1       1.528   5.729  20.779  0.00  0.00    +0.000 C 
BRANCH  20  21
ATOM     21  O   UNL     1       2.488   6.664  20.275  0.00  0.00    +0.000 OA
BRANCH  21  22
ATOM     22  C   UNL     1       1.964   7.798  19.710  0.00  0.00    +0.000 A 
ATOM     23  C   UNL     1       2.155   8.201  18.381  0.00  0.00    +0.000 A 
ATOM     24  C   UNL     1       1.580   9.382  17.906  0.00  0.00    +0.000 A 
ATOM     25  C   UNL     1       0.807  10.167  18.755  0.00  0.00    +0.000 A 
ATOM     26  C   UNL     1       0.619   9.764  20.073  0.00  0.00    +0.000 A 
ATOM     27  F   UNL     1      -0.125  10.524  20.888  0.00  0.00    +0.000 F 
ATOM     28  C   UNL     1       1.189   8.591  20.557  0.00  0.00    +0.000 A 
ENDBRANCH  21  22
ENDBRANCH  20  21
ENDBRANCH  19  20
ENDBRANCH   4  19
TORSDOF 7
ENDMDL
MODEL 7
REMARK VINA RESULT:      -7.5      4.997      8.284
REMARK  Name = 
REMARK  7 active torsions:
REMARK  status: ('A' for Active; 'I' for Inactive)
REMARK    1  A    between atoms: S_2  and  N_4
REMARK    2  A    between atoms: S_2  and  C_20
REMARK    3  A    between atoms: N_4  and  C_5
REMARK    4  A    between atoms: N_8  and  C_9
REMARK    5  A    between atoms: C_9  and  C_10
REMARK    6  A    between atoms: C_10  and  O_11
REMARK    7  A    between atoms: O_11  and  C_12
REMARK                            x       y       z     vdW  Elec       q    Type
REMARK                         _______ _______ _______ _____ _____    ______ ____
ROOT
ATOM      1  C   UNL     1       2.360   5.761  19.246  0.00  0.00    +0.000 C 
ATOM      2  C   UNL     1       2.348   5.934  17.739  0.00  0.00    +0.000 C 
ATOM      3  C   UNL     1       3.187   7.180  17.541  0.00  0.00    +0.000 C 
ATOM      4  N   UNL     1       2.733   8.102  18.595  0.00  0.00    +0.000 NA
ATOM      5  C   UNL     1       2.318   7.234  19.730  0.00  0.00    +0.000 C 
ENDROOT
BRANCH   1   6
ATOM      6  N   UNL     1       3.593   5.106  19.724  0.00  0.00    +0.000 NA
ATOM      7  H   UNL     1       4.351   5.695  20.074  0.00  0.00    +0.000 HD
BRANCH   6   9
ATOM      8  O   UNL     1       4.914   2.971  20.162  0.00  0.00    +0.000 OA
ATOM      9  S   UNL     1       4.119   3.619  19.146  0.00  0.00    +0.000 S 
ATOM     10  O   UNL     1       2.959   2.982  18.567  0.00  0.00    +0.000 OA
BRANCH   9  11
ATOM     11  C   UNL     1       5.189   4.059  17.810  0.00  0.00    +0.000 A 
ATOM     12  C   UNL     1       6.448   4.616  18.081  0.00  0.00    +0.000 A 
ATOM     13  C   UNL     1       7.275   4.992  17.022  0.00  0.00    +0.000 A 
ATOM     14  C   UNL     1       6.838   4.803  15.712  0.00  0.00    +0.000 A 
ATOM     15  F   UNL     1       7.623   5.194  14.701  0.00  0.00    +0.000 F 
ATOM     16  C   UNL     1       5.601   4.221  15.455  0.00  0.00    +0.000 A 
ATOM     17  F   UNL     1       5.195   4.034  14.191  0.00  0.00    +0.000 F 
ATOM     18  C   UNL     1       4.767   3.836  16.497  0.00  0.00    +0.000 A 
ENDBRANCH   9  11
ENDBRANCH   6   9
ENDBRANCH   1   6
BRANCH   4  19
ATOM     19  C   UNL     1       1.633   8.949  18.080  0.00  0.00    +0.000 C 
BRANCH  19  20
ATOM     20  C   UNL     1       0.824   9.629  19.189  0.00  0.00    +0.000 C 
BRANCH  20  21
ATOM     21  O   UNL     1       0.249  10.843  18.695  0.00  0.00    +0.000 OA
BRANCH  21  22
ATOM     22  C   UNL     1      -1.071  10.765  18.333  0.00  0.00    +0.000 A 
ATOM     23  C   UNL     1      -1.596   9.884  17.378  0.00  0.00    +0.000 A 
ATOM     24  C   UNL     1      -2.960   9.890  17.078  0.00  0.00    +0.000 A 
ATOM     25  C   UNL     1      -3.810  10.776  17.733  0.00  0.00    +0.000 A 
ATOM     26  C   UNL     1      -3.286  11.648  18.681  0.00  0.00    +0.000 A 
ATOM     27  F   UNL     1      -4.107  12.501  19.309  0.00  0.00    +0.000 F 
ATOM     28  C   UNL     1      -1.928  11.652  18.985  0.00  0.00    +0.000 A 
ENDBRANCH  21  22
ENDBRANCH  20  21
ENDBRANCH  19  20
ENDBRANCH   4  19
TORSDOF 7
ENDMDL
MODEL 8
REMARK VINA RESULT:      -7.5      4.761      7.060
REMARK  Name = 
REMARK  7 active torsions:
REMARK  status: ('A' for Active; 'I' for Inactive)
REMARK    1  A    between atoms: S_2  and  N_4
REMARK    2  A    between atoms: S_2  and  C_20
REMARK    3  A    between atoms: N_4  and  C_5
REMARK    4  A    between atoms: N_8  and  C_9
REMARK    5  A    between atoms: C_9  and  C_10
REMARK    6  A    between atoms: C_10  and  O_11
REMARK    7  A    between atoms: O_11  and  C_12
REMARK                            x       y       z     vdW  Elec       q    Type
REMARK                         _______ _______ _______ _____ _____    ______ ____
ROOT
ATOM      1  C   UNL     1       2.211   7.774  19.776  0.00  0.00    +0.000 C 
ATOM      2  C   UNL     1       3.094   7.160  18.705  0.00  0.00    +0.000 C 
ATOM      3  C   UNL     1       2.368   5.872  18.373  0.00  0.00    +0.000 C 
ATOM      4  N   UNL     1       1.965   5.329  19.681  0.00  0.00    +0.000 NA
ATOM      5  C   UNL     1       1.742   6.516  20.552  0.00  0.00    +0.000 C 
ENDROOT
BRANCH   1   6
ATOM      6  N   UNL     1       1.047   8.479  19.204  0.00  0.00    +0.000 NA
ATOM      7  H   UNL     1       0.510   8.014  18.471  0.00  0.00    +0.000 HD
BRANCH   6   9
ATOM      8  O   UNL     1       0.997  10.673  20.500  0.00  0.00    +0.000 OA
ATOM      9  S   UNL     1       0.932  10.154  19.154  0.00  0.00    +0.000 S 
ATOM     10  O   UNL     1       1.849  10.588  18.126  0.00  0.00    +0.000 OA
BRANCH   9  11
ATOM     11  C   UNL     1      -0.702  10.429  18.539  0.00  0.00    +0.000 A 
ATOM     12  C   UNL     1      -1.141   9.740  17.398  0.00  0.00    +0.000 A 
ATOM     13  C   UNL     1      -2.420   9.986  16.897  0.00  0.00    +0.000 A 
ATOM     14  C   UNL     1      -3.242  10.908  17.542  0.00  0.00    +0.000 A 
ATOM     15  F   UNL     1      -4.456  11.163  17.039  0.00  0.00    +0.000 F 
ATOM     16  C   UNL     1      -2.807  11.563  18.690  0.00  0.00    +0.000 A 
ATOM     17  F   UNL     1      -3.610  12.440  19.309  0.00  0.00    +0.000 F 
ATOM     18  C   UNL     1      -1.539  11.327  19.206  0.00  0.00    +0.000 A 
ENDBRANCH   9  11
ENDBRANCH   6   9
ENDBRANCH   1   6
BRANCH   4  19
ATOM     19  C   UNL     1       3.018   4.423  20.193  0.00  0.00    +0.000 C 
BRANCH  19  20
ATOM     20  C   UNL     1       3.761   3.672  19.083  0.00  0.00    +0.000 C 
BRANCH  20  21
ATOM     21  O   UNL     1       5.173   3.768  19.295  0.00  0.00    +0.000 OA
BRANCH  21  22
ATOM     22  C   UNL     1       5.835   4.637  18.466  0.00  0.00    +0.000 A 
ATOM     23  C   UNL     1       5.621   4.761  17.087  0.00  0.00    +0.000 A 
ATOM     24  C   UNL     1       6.356   5.677  16.331  0.00  0.00    +0.000 A 
ATOM     25  C   UNL     1       7.309   6.478  16.950  0.00  0.00    +0.000 A 
ATOM     26  C   UNL     1       7.519   6.355  18.319  0.00  0.00    +0.000 A 
ATOM     27  F   UNL     1       8.439   7.128  18.912  0.00  0.00    +0.000 F 
ATOM     28  C   UNL     1       6.794   5.443  19.081  0.00  0.00    +0.000 A 
ENDBRANCH  21  22
ENDBRANCH  20  21
ENDBRANCH  19  20
ENDBRANCH   4  19
TORSDOF 7
ENDMDL
MODEL 9
REMARK VINA RESULT:      -7.5      4.857      7.980
REMARK  Name = 
REMARK  7 active torsions:
REMARK  status: ('A' for Active; 'I' for Inactive)
REMARK    1  A    between atoms: S_2  and  N_4
REMARK    2  A    between atoms: S_2  and  C_20
REMARK    3  A    between atoms: N_4  and  C_5
REMARK    4  A    between atoms: N_8  and  C_9
REMARK    5  A    between atoms: C_9  and  C_10
REMARK    6  A    between atoms: C_10  and  O_11
REMARK    7  A    between atoms: O_11  and  C_12
REMARK                            x       y       z     vdW  Elec       q    Type
REMARK                         _______ _______ _______ _____ _____    ______ ____
ROOT
ATOM      1  C   UNL     1       2.078   5.177  19.690  0.00  0.00    +0.000 C 
ATOM      2  C   UNL     1       2.153   5.861  18.337  0.00  0.00    +0.000 C 
ATOM      3  C   UNL     1       2.844   7.169  18.663  0.00  0.00    +0.000 C 
ATOM      4  N   UNL     1       2.204   7.623  19.909  0.00  0.00    +0.000 NA
ATOM      5  C   UNL     1       1.819   6.380  20.633  0.00  0.00    +0.000 C 
ENDROOT
BRANCH   1   6
ATOM      6  N   UNL     1       3.346   4.514  20.052  0.00  0.00    +0.000 NA
ATOM      7  H   UNL     1       4.078   5.073  20.494  0.00  0.00    +0.000 HD
BRANCH   6   9
ATOM      8  O   UNL     1       4.784   2.411  20.127  0.00  0.00    +0.000 OA
ATOM      9  S   UNL     1       3.937   3.169  19.236  0.00  0.00    +0.000 S 
ATOM     10  O   UNL     1       2.801   2.571  18.575  0.00  0.00    +0.000 OA
BRANCH   9  11
ATOM     11  C   UNL     1       4.957   3.875  17.978  0.00  0.00    +0.000 A 
ATOM     12  C   UNL     1       4.651   3.651  16.627  0.00  0.00    +0.000 A 
ATOM     13  C   UNL     1       5.479   4.183  15.637  0.00  0.00    +0.000 A 
ATOM     14  C   UNL     1       6.594   4.931  16.008  0.00  0.00    +0.000 A 
ATOM     15  F   UNL     1       7.402   5.413  15.056  0.00  0.00    +0.000 F 
ATOM     16  C   UNL     1       6.871   5.173  17.351  0.00  0.00    +0.000 A 
ATOM     17  F   UNL     1       7.940   5.904  17.696  0.00  0.00    +0.000 F 
ATOM     18  C   UNL     1       6.055   4.656  18.348  0.00  0.00    +0.000 A 
ENDBRANCH   9  11
ENDBRANCH   6   9
ENDBRANCH   1   6
BRANCH   4  19
ATOM     19  C   UNL     1       1.047   8.491  19.591  0.00  0.00    +0.000 C 
BRANCH  19  20
ATOM     20  C   UNL     1       1.279   9.381  18.366  0.00  0.00    +0.000 C 
BRANCH  20  21
ATOM     21  O   UNL     1       0.799  10.703  18.629  0.00  0.00    +0.000 OA
BRANCH  21  22
ATOM     22  C   UNL     1      -0.555  10.874  18.500  0.00  0.00    +0.000 A 
ATOM     23  C   UNL     1      -1.332  11.770  19.247  0.00  0.00    +0.000 A 
ATOM     24  C   UNL     1      -2.710  11.862  19.040  0.00  0.00    +0.000 A 
ATOM     25  C   UNL     1      -3.321  11.060  18.081  0.00  0.00    +0.000 A 
ATOM     26  C   UNL     1      -2.548  10.173  17.340  0.00  0.00    +0.000 A 
ATOM     27  F   UNL     1      -3.140   9.402  16.418  0.00  0.00    +0.000 F 
ATOM     28  C   UNL     1      -1.174  10.073  17.541  0.00  0.00    +0.000 A 
ENDBRANCH  21  22
ENDBRANCH  20  21
ENDBRANCH  19  20
ENDBRANCH   4  19
TORSDOF 7
ENDMDL
