MODEL 1
REMARK VINA RESULT:      -7.5      0.000      0.000
REMARK  Name = 
REMARK  4 active torsions:
REMARK  status: ('A' for Active; 'I' for Inactive)
REMARK    1  A    between atoms: C_1  and  O_2
REMARK    2  A    between atoms: O_2  and  C_3
REMARK    3  A    between atoms: C_6  and  C_7
REMARK    4  A    between atoms: C_7  and  O_9
REMARK                            x       y       z     vdW  Elec       q    Type
REMARK                         _______ _______ _______ _____ _____    ______ ____
ROOT
ATOM      1  C   UNL     1       5.748   4.366  15.429  0.00  0.00    +0.000 A 
ATOM      2  C   UNL     1       6.997   4.965  15.392  0.00  0.00    +0.000 A 
ATOM      3  C   UNL     1       7.532   5.519  16.555  0.00  0.00    +0.000 A 
ATOM      4  C   UNL     1       6.851   5.509  17.797  0.00  0.00    +0.000 A 
ATOM      5  C   UNL     1       5.561   4.932  17.821  0.00  0.00    +0.000 A 
ATOM      6  C   UNL     1       4.682   4.864  19.024  0.00  0.00    +0.000 A 
ATOM      7  O   UNL     1       4.982   5.455  20.057  0.00  0.00    +0.000 OA
ATOM      8  C   UNL     1       3.409   4.112  19.005  0.00  0.00    +0.000 A 
ATOM      9  C   UNL     1       2.678   3.931  20.185  0.00  0.00    +0.000 A 
ATOM     10  C   UNL     1       1.475   3.233  20.151  0.00  0.00    +0.000 A 
ATOM     11  C   UNL     1       1.005   2.726  18.939  0.00  0.00    +0.000 A 
ATOM     12  C   UNL     1       1.742   2.910  17.763  0.00  0.00    +0.000 A 
ATOM     13  C   UNL     1       2.952   3.606  17.788  0.00  0.00    +0.000 A 
ATOM     14  N   UNL     1       3.745   3.742  16.650  0.00  0.00    +0.000 N 
ATOM     15  C   UNL     1       5.010   4.375  16.630  0.00  0.00    +0.000 A 
ATOM     16  H   UNL     1       3.365   3.499  15.742  0.00  0.00    +0.000 HD
ENDROOT
BRANCH   1  18
ATOM     17  C   UNL     1       5.966   3.677  13.174  0.00  0.00    +0.000 C 
ATOM     18  O   UNL     1       5.147   3.782  14.340  0.00  0.00    +0.000 OA
ENDBRANCH   1  18
BRANCH   4  19
ATOM     19  C   UNL     1       7.684   6.107  18.905  0.00  0.00    +0.000 C 
ATOM     20  O   UNL     1       8.284   7.158  18.719  0.00  0.00    +0.000 OA
BRANCH  19  21
ATOM     21  O   UNL     1       7.809   5.492  20.087  0.00  0.00    +0.000 OA
ATOM     22  H   UNL     1       8.710   5.465  20.480  0.00  0.00    +0.000 HD
ENDBRANCH  19  21
ENDBRANCH   4  19
TORSDOF 3
ENDMDL
MODEL 2
REMARK VINA RESULT:      -7.4      2.934      5.825
REMARK  Name = 
REMARK  4 active torsions:
REMARK  status: ('A' for Active; 'I' for Inactive)
REMARK    1  A    between atoms: C_1  and  O_2
REMARK    2  A    between atoms: O_2  and  C_3
REMARK    3  A    between atoms: C_6  and  C_7
REMARK    4  A    between atoms: C_7  and  O_9
REMARK                            x       y       z     vdW  Elec       q    Type
REMARK                         _______ _______ _______ _____ _____    ______ ____
ROOT
ATOM      1  C   UNL     1       2.238   7.695  19.277  0.00  0.00    +0.000 A 
ATOM      2  C   UNL     1       1.443   7.471  20.389  0.00  0.00    +0.000 A 
ATOM      3  C   UNL     1       1.300   6.175  20.886  0.00  0.00    +0.000 A 
ATOM      4  C   UNL     1       1.931   5.051  20.298  0.00  0.00    +0.000 A 
ATOM      5  C   UNL     1       2.708   5.279  19.141  0.00  0.00    +0.000 A 
ATOM      6  C   UNL     1       3.413   4.217  18.367  0.00  0.00    +0.000 A 
ATOM      7  O   UNL     1       3.232   3.029  18.617  0.00  0.00    +0.000 OA
ATOM      8  C   UNL     1       4.328   4.554  17.256  0.00  0.00    +0.000 A 
ATOM      9  C   UNL     1       5.098   3.556  16.646  0.00  0.00    +0.000 A 
ATOM     10  C   UNL     1       5.945   3.885  15.593  0.00  0.00    +0.000 A 
ATOM     11  C   UNL     1       6.014   5.205  15.147  0.00  0.00    +0.000 A 
ATOM     12  C   UNL     1       5.242   6.199  15.762  0.00  0.00    +0.000 A 
ATOM     13  C   UNL     1       4.391   5.879  16.823  0.00  0.00    +0.000 A 
ATOM     14  N   UNL     1       3.667   6.856  17.504  0.00  0.00    +0.000 N 
ATOM     15  C   UNL     1       2.846   6.602  18.627  0.00  0.00    +0.000 A 
ATOM     16  H   UNL     1       3.601   7.791  17.118  0.00  0.00    +0.000 HD
ENDROOT
BRANCH   1  18
ATOM     17  C   UNL     1       1.292   9.558  18.162  0.00  0.00    +0.000 C 
ATOM     18  O   UNL     1       2.449   8.936  18.725  0.00  0.00    +0.000 OA
ENDBRANCH   1  18
BRANCH   4  19
ATOM     19  C   UNL     1       1.668   3.783  21.075  0.00  0.00    +0.000 C 
ATOM     20  O   UNL     1       2.303   3.551  22.097  0.00  0.00    +0.000 OA
BRANCH  19  21
ATOM     21  O   UNL     1       0.775   2.883  20.650  0.00  0.00    +0.000 OA
ATOM     22  H   UNL     1       0.760   2.694  19.685  0.00  0.00    +0.000 HD
ENDBRANCH  19  21
ENDBRANCH   4  19
TORSDOF 3
ENDMDL
MODEL 3
REMARK VINA RESULT:      -7.3      2.405      3.350
REMARK  Name = 
REMARK  4 active torsions:
REMARK  status: ('A' for Active; 'I' for Inactive)
REMARK    1  A    between atoms: C_1  and  O_2
REMARK    2  A    between atoms: O_2  and  C_3
REMARK    3  A    between atoms: C_6  and  C_7
REMARK    4  A    between atoms: C_7  and  O_9
REMARK                            x       y       z     vdW  Elec       q    Type
REMARK                         _______ _______ _______ _____ _____    ______ ____
ROOT
ATOM      1  C   UNL     1       3.375   7.194  17.552  0.00  0.00    +0.000 A 
ATOM      2  C   UNL     1       4.449   7.550  16.753  0.00  0.00    +0.000 A 
ATOM      3  C   UNL     1       5.586   6.740  16.723  0.00  0.00    +0.000 A 
ATOM      4  C   UNL     1       5.705   5.554  17.487  0.00  0.00    +0.000 A 
ATOM      5  C   UNL     1       4.623   5.216  18.331  0.00  0.00    +0.000 A 
ATOM      6  C   UNL     1       4.586   4.030  19.233  0.00  0.00    +0.000 A 
ATOM      7  O   UNL     1       5.585   3.338  19.406  0.00  0.00    +0.000 OA
ATOM      8  C   UNL     1       3.358   3.663  19.971  0.00  0.00    +0.000 A 
ATOM      9  C   UNL     1       3.296   2.462  20.688  0.00  0.00    +0.000 A 
ATOM     10  C   UNL     1       2.140   2.136  21.389  0.00  0.00    +0.000 A 
ATOM     11  C   UNL     1       1.055   3.013  21.379  0.00  0.00    +0.000 A 
ATOM     12  C   UNL     1       1.123   4.212  20.659  0.00  0.00    +0.000 A 
ATOM     13  C   UNL     1       2.278   4.547  19.949  0.00  0.00    +0.000 A 
ATOM     14  N   UNL     1       2.351   5.695  19.163  0.00  0.00    +0.000 N 
ATOM     15  C   UNL     1       3.466   6.049  18.369  0.00  0.00    +0.000 A 
ATOM     16  H   UNL     1       1.631   6.405  19.245  0.00  0.00    +0.000 HD
ENDROOT
BRANCH   1  18
ATOM     17  C   UNL     1       2.380   9.318  17.877  0.00  0.00    +0.000 C 
ATOM     18  O   UNL     1       2.211   7.920  17.636  0.00  0.00    +0.000 OA
ENDBRANCH   1  18
BRANCH   4  19
ATOM     19  C   UNL     1       7.004   4.832  17.213  0.00  0.00    +0.000 C 
ATOM     20  O   UNL     1       7.354   4.623  16.059  0.00  0.00    +0.000 OA
BRANCH  19  21
ATOM     21  O   UNL     1       7.770   4.382  18.214  0.00  0.00    +0.000 OA
ATOM     22  H   UNL     1       8.644   4.004  17.967  0.00  0.00    +0.000 HD
ENDBRANCH  19  21
ENDBRANCH   4  19
TORSDOF 3
ENDMDL
MODEL 4
REMARK VINA RESULT:      -7.2      3.318      4.903
REMARK  Name = 
REMARK  4 active torsions:
REMARK  status: ('A' for Active; 'I' for Inactive)
REMARK    1  A    between atoms: C_1  and  O_2
REMARK    2  A    between atoms: O_2  and  C_3
REMARK    3  A    between atoms: C_6  and  C_7
REMARK    4  A    between atoms: C_7  and  O_9
REMARK                            x       y       z     vdW  Elec       q    Type
REMARK                         _______ _______ _______ _____ _____    ______ ____
ROOT
ATOM      1  C   UNL     1       4.076   4.205  17.382  0.00  0.00    +0.000 A 
ATOM      2  C   UNL     1       4.139   2.911  17.873  0.00  0.00    +0.000 A 
ATOM      3  C   UNL     1       3.515   2.600  19.081  0.00  0.00    +0.000 A 
ATOM      4  C   UNL     1       2.813   3.556  19.853  0.00  0.00    +0.000 A 
ATOM      5  C   UNL     1       2.784   4.884  19.369  0.00  0.00    +0.000 A 
ATOM      6  C   UNL     1       2.128   6.029  20.063  0.00  0.00    +0.000 A 
ATOM      7  O   UNL     1       1.686   5.906  21.201  0.00  0.00    +0.000 OA
ATOM      8  C   UNL     1       2.013   7.355  19.419  0.00  0.00    +0.000 A 
ATOM      9  C   UNL     1       1.258   8.369  20.019  0.00  0.00    +0.000 A 
ATOM     10  C   UNL     1       1.170   9.616  19.409  0.00  0.00    +0.000 A 
ATOM     11  C   UNL     1       1.841   9.847  18.208  0.00  0.00    +0.000 A 
ATOM     12  C   UNL     1       2.593   8.828  17.611  0.00  0.00    +0.000 A 
ATOM     13  C   UNL     1       2.685   7.571  18.215  0.00  0.00    +0.000 A 
ATOM     14  N   UNL     1       3.363   6.514  17.611  0.00  0.00    +0.000 N 
ATOM     15  C   UNL     1       3.431   5.204  18.139  0.00  0.00    +0.000 A 
ATOM     16  H   UNL     1       3.961   6.693  16.812  0.00  0.00    +0.000 HD
ENDROOT
BRANCH   1  18
ATOM     17  C   UNL     1       5.851   3.921  15.841  0.00  0.00    +0.000 C 
ATOM     18  O   UNL     1       4.647   4.603  16.196  0.00  0.00    +0.000 OA
ENDBRANCH   1  18
BRANCH   4  19
ATOM     19  C   UNL     1       2.173   2.940  21.075  0.00  0.00    +0.000 C 
ATOM     20  O   UNL     1       2.876   2.439  21.945  0.00  0.00    +0.000 OA
BRANCH  19  21
ATOM     21  O   UNL     1       0.843   2.898  21.214  0.00  0.00    +0.000 OA
ATOM     22  H   UNL     1       0.388   3.753  21.387  0.00  0.00    +0.000 HD
ENDBRANCH  19  21
ENDBRANCH   4  19
TORSDOF 3
ENDMDL
MODEL 5
REMARK VINA RESULT:      -6.9      2.679      6.276
REMARK  Name = 
REMARK  4 active torsions:
REMARK  status: ('A' for Active; 'I' for Inactive)
REMARK    1  A    between atoms: C_1  and  O_2
REMARK    2  A    between atoms: O_2  and  C_3
REMARK    3  A    between atoms: C_6  and  C_7
REMARK    4  A    between atoms: C_7  and  O_9
REMARK                            x       y       z     vdW  Elec       q    Type
REMARK                         _______ _______ _______ _____ _____    ______ ____
ROOT
ATOM      1  C   UNL     1       2.134   6.284  19.999  0.00  0.00    +0.000 A 
ATOM      2  C   UNL     1       1.087   5.537  20.515  0.00  0.00    +0.000 A 
ATOM      3  C   UNL     1       0.900   4.222  20.089  0.00  0.00    +0.000 A 
ATOM      4  C   UNL     1       1.736   3.597  19.132  0.00  0.00    +0.000 A 
ATOM      5  C   UNL     1       2.779   4.375  18.579  0.00  0.00    +0.000 A 
ATOM      6  C   UNL     1       3.732   3.900  17.535  0.00  0.00    +0.000 A 
ATOM      7  O   UNL     1       3.567   2.821  16.975  0.00  0.00    +0.000 OA
ATOM      8  C   UNL     1       4.887   4.723  17.117  0.00  0.00    +0.000 A 
ATOM      9  C   UNL     1       5.854   4.197  16.252  0.00  0.00    +0.000 A 
ATOM     10  C   UNL     1       6.928   4.987  15.856  0.00  0.00    +0.000 A 
ATOM     11  C   UNL     1       7.028   6.300  16.318  0.00  0.00    +0.000 A 
ATOM     12  C   UNL     1       6.058   6.820  17.183  0.00  0.00    +0.000 A 
ATOM     13  C   UNL     1       4.977   6.033  17.589  0.00  0.00    +0.000 A 
ATOM     14  N   UNL     1       4.036   6.496  18.507  0.00  0.00    +0.000 N 
ATOM     15  C   UNL     1       2.962   5.722  19.007  0.00  0.00    +0.000 A 
ATOM     16  H   UNL     1       4.015   7.480  18.751  0.00  0.00    +0.000 HD
ENDROOT
BRANCH   1  18
ATOM     17  C   UNL     1       1.314   8.284  20.966  0.00  0.00    +0.000 C 
ATOM     18  O   UNL     1       2.404   7.580  20.368  0.00  0.00    +0.000 OA
ENDBRANCH   1  18
BRANCH   4  19
ATOM     19  C   UNL     1       1.359   2.152  18.906  0.00  0.00    +0.000 C 
ATOM     20  O   UNL     1       0.189   1.852  18.701  0.00  0.00    +0.000 OA
BRANCH  19  21
ATOM     21  O   UNL     1       2.277   1.180  18.960  0.00  0.00    +0.000 OA
ATOM     22  H   UNL     1       3.215   1.449  18.835  0.00  0.00    +0.000 HD
ENDBRANCH  19  21
ENDBRANCH   4  19
TORSDOF 3
ENDMDL
MODEL 6
REMARK VINA RESULT:      -6.8      2.599      5.432
REMARK  Name = 
REMARK  4 active torsions:
REMARK  status: ('A' for Active; 'I' for Inactive)
REMARK    1  A    between atoms: C_1  and  O_2
REMARK    2  A    between atoms: O_2  and  C_3
REMARK    3  A    between atoms: C_6  and  C_7
REMARK    4  A    between atoms: C_7  and  O_9
REMARK                            x       y       z     vdW  Elec       q    Type
REMARK                         _______ _______ _______ _____ _____    ______ ____
ROOT
ATOM      1  C   UNL     1       3.029   3.479  19.898  0.00  0.00    +0.000 A 
ATOM      2  C   UNL     1       2.203   4.120  20.807  0.00  0.00    +0.000 A 
ATOM      3  C   UNL     1       1.937   5.482  20.658  0.00  0.00    +0.000 A 
ATOM      4  C   UNL     1       2.484   6.263  19.610  0.00  0.00    +0.000 A 
ATOM      5  C   UNL     1       3.357   5.614  18.709  0.00  0.00    +0.000 A 
ATOM      6  C   UNL     1       4.054   6.280  17.571  0.00  0.00    +0.000 A 
ATOM      7  O   UNL     1       4.020   7.500  17.438  0.00  0.00    +0.000 OA
ATOM      8  C   UNL     1       4.833   5.502  16.584  0.00  0.00    +0.000 A 
ATOM      9  C   UNL     1       5.348   6.124  15.440  0.00  0.00    +0.000 A 
ATOM     10  C   UNL     1       6.090   5.382  14.527  0.00  0.00    +0.000 A 
ATOM     11  C   UNL     1       6.322   4.027  14.763  0.00  0.00    +0.000 A 
ATOM     12  C   UNL     1       5.804   3.411  15.909  0.00  0.00    +0.000 A 
ATOM     13  C   UNL     1       5.054   4.146  16.830  0.00  0.00    +0.000 A 
ATOM     14  N   UNL     1       4.462   3.547  17.940  0.00  0.00    +0.000 N 
ATOM     15  C   UNL     1       3.637   4.225  18.867  0.00  0.00    +0.000 A 
ATOM     16  H   UNL     1       4.724   2.602  18.200  0.00  0.00    +0.000 HD
ENDROOT
BRANCH   1  18
ATOM     17  C   UNL     1       4.489   1.813  20.734  0.00  0.00    +0.000 C 
ATOM     18  O   UNL     1       3.337   2.141  19.955  0.00  0.00    +0.000 OA
ENDBRANCH   1  18
BRANCH   4  19
ATOM     19  C   UNL     1       1.978   7.686  19.640  0.00  0.00    +0.000 C 
ATOM     20  O   UNL     1       1.791   8.245  20.714  0.00  0.00    +0.000 OA
BRANCH  19  21
ATOM     21  O   UNL     1       1.694   8.343  18.510  0.00  0.00    +0.000 OA
ATOM     22  H   UNL     1       2.441   8.806  18.067  0.00  0.00    +0.000 HD
ENDBRANCH  19  21
ENDBRANCH   4  19
TORSDOF 3
ENDMDL
MODEL 7
REMARK VINA RESULT:      -6.8      3.772      5.526
REMARK  Name = 
REMARK  4 active torsions:
REMARK  status: ('A' for Active; 'I' for Inactive)
REMARK    1  A    between atoms: C_1  and  O_2
REMARK    2  A    between atoms: O_2  and  C_3
REMARK    3  A    between atoms: C_6  and  C_7
REMARK    4  A    between atoms: C_7  and  O_9
REMARK                            x       y       z     vdW  Elec       q    Type
REMARK                         _______ _______ _______ _____ _____    ______ ____
ROOT
ATOM      1  C   UNL     1       3.043   4.537  20.226  0.00  0.00    +0.000 A 
ATOM      2  C   UNL     1       3.877   3.677  19.530  0.00  0.00    +0.000 A 
ATOM      3  C   UNL     1       4.426   4.080  18.312  0.00  0.00    +0.000 A 
ATOM      4  C   UNL     1       4.165   5.346  17.733  0.00  0.00    +0.000 A 
ATOM      5  C   UNL     1       3.283   6.205  18.426  0.00  0.00    +0.000 A 
ATOM      6  C   UNL     1       2.863   7.555  17.953  0.00  0.00    +0.000 A 
ATOM      7  O   UNL     1       3.157   7.948  16.828  0.00  0.00    +0.000 OA
ATOM      8  C   UNL     1       2.057   8.453  18.807  0.00  0.00    +0.000 A 
ATOM      9  C   UNL     1       1.807   9.772  18.408  0.00  0.00    +0.000 A 
ATOM     10  C   UNL     1       1.035  10.602  19.215  0.00  0.00    +0.000 A 
ATOM     11  C   UNL     1       0.510  10.110  20.411  0.00  0.00    +0.000 A 
ATOM     12  C   UNL     1       0.766   8.791  20.804  0.00  0.00    +0.000 A 
ATOM     13  C   UNL     1       1.542   7.951  20.003  0.00  0.00    +0.000 A 
ATOM     14  N   UNL     1       1.876   6.658  20.401  0.00  0.00    +0.000 N 
ATOM     15  C   UNL     1       2.715   5.788  19.666  0.00  0.00    +0.000 A 
ATOM     16  H   UNL     1       1.403   6.240  21.195  0.00  0.00    +0.000 HD
ENDROOT
BRANCH   1  18
ATOM     17  C   UNL     1       1.685   3.039  21.457  0.00  0.00    +0.000 C 
ATOM     18  O   UNL     1       2.469   4.233  21.437  0.00  0.00    +0.000 OA
ENDBRANCH   1  18
BRANCH   4  19
ATOM     19  C   UNL     1       4.941   5.554  16.454  0.00  0.00    +0.000 C 
ATOM     20  O   UNL     1       4.949   4.679  15.596  0.00  0.00    +0.000 OA
BRANCH  19  21
ATOM     21  O   UNL     1       5.652   6.668  16.249  0.00  0.00    +0.000 OA
ATOM     22  H   UNL     1       6.157   6.724  15.407  0.00  0.00    +0.000 HD
ENDBRANCH  19  21
ENDBRANCH   4  19
TORSDOF 3
ENDMDL
MODEL 8
REMARK VINA RESULT:      -6.7      1.950      5.632
REMARK  Name = 
REMARK  4 active torsions:
REMARK  status: ('A' for Active; 'I' for Inactive)
REMARK    1  A    between atoms: C_1  and  O_2
REMARK    2  A    between atoms: O_2  and  C_3
REMARK    3  A    between atoms: C_6  and  C_7
REMARK    4  A    between atoms: C_7  and  O_9
REMARK                            x       y       z     vdW  Elec       q    Type
REMARK                         _______ _______ _______ _____ _____    ______ ____
ROOT
ATOM      1  C   UNL     1       7.259   6.107  18.043  0.00  0.00    +0.000 A 
ATOM      2  C   UNL     1       6.665   5.861  19.270  0.00  0.00    +0.000 A 
ATOM      3  C   UNL     1       5.620   4.940  19.359  0.00  0.00    +0.000 A 
ATOM      4  C   UNL     1       5.119   4.234  18.238  0.00  0.00    +0.000 A 
ATOM      5  C   UNL     1       5.701   4.518  16.982  0.00  0.00    +0.000 A 
ATOM      6  C   UNL     1       5.280   3.904  15.691  0.00  0.00    +0.000 A 
ATOM      7  O   UNL     1       4.274   3.203  15.624  0.00  0.00    +0.000 OA
ATOM      8  C   UNL     1       6.037   4.140  14.443  0.00  0.00    +0.000 A 
ATOM      9  C   UNL     1       5.719   3.432  13.278  0.00  0.00    +0.000 A 
ATOM     10  C   UNL     1       6.432   3.674  12.107  0.00  0.00    +0.000 A 
ATOM     11  C   UNL     1       7.451   4.626  12.103  0.00  0.00    +0.000 A 
ATOM     12  C   UNL     1       7.765   5.330  13.272  0.00  0.00    +0.000 A 
ATOM     13  C   UNL     1       7.058   5.091  14.454  0.00  0.00    +0.000 A 
ATOM     14  N   UNL     1       7.395   5.720  15.651  0.00  0.00    +0.000 N 
ATOM     15  C   UNL     1       6.762   5.467  16.890  0.00  0.00    +0.000 A 
ATOM     16  H   UNL     1       8.039   6.503  15.642  0.00  0.00    +0.000 HD
ENDROOT
BRANCH   1  18
ATOM     17  C   UNL     1       7.930   8.361  17.769  0.00  0.00    +0.000 C 
ATOM     18  O   UNL     1       8.301   6.985  17.860  0.00  0.00    +0.000 OA
ENDBRANCH   1  18
BRANCH   4  19
ATOM     19  C   UNL     1       4.040   3.250  18.624  0.00  0.00    +0.000 C 
ATOM     20  O   UNL     1       3.012   3.648  19.157  0.00  0.00    +0.000 OA
BRANCH  19  21
ATOM     21  O   UNL     1       4.199   1.936  18.425  0.00  0.00    +0.000 OA
ATOM     22  H   UNL     1       3.485   1.472  17.934  0.00  0.00    +0.000 HD
ENDBRANCH  19  21
ENDBRANCH   4  19
TORSDOF 3
ENDMDL
MODEL 9
REMARK VINA RESULT:      -6.7      2.584      3.881
REMARK  Name = 
REMARK  4 active torsions:
REMARK  status: ('A' for Active; 'I' for Inactive)
REMARK    1  A    between atoms: C_1  and  O_2
REMARK    2  A    between atoms: O_2  and  C_3
REMARK    3  A    between atoms: C_6  and  C_7
REMARK    4  A    between atoms: C_7  and  O_9
REMARK                            x       y       z     vdW  Elec       q    Type
REMARK                         _______ _______ _______ _____ _____    ______ ____
ROOT
ATOM      1  C   UNL     1       3.794   7.307  17.500  0.00  0.00    +0.000 A 
ATOM      2  C   UNL     1       4.635   7.525  16.421  0.00  0.00    +0.000 A 
ATOM      3  C   UNL     1       5.182   6.436  15.740  0.00  0.00    +0.000 A 
ATOM      4  C   UNL     1       4.925   5.092  16.106  0.00  0.00    +0.000 A 
ATOM      5  C   UNL     1       4.098   4.875  17.232  0.00  0.00    +0.000 A 
ATOM      6  C   UNL     1       3.749   3.535  17.785  0.00  0.00    +0.000 A 
ATOM      7  O   UNL     1       4.296   2.519  17.367  0.00  0.00    +0.000 OA
ATOM      8  C   UNL     1       2.759   3.387  18.872  0.00  0.00    +0.000 A 
ATOM      9  C   UNL     1       2.330   2.114  19.270  0.00  0.00    +0.000 A 
ATOM     10  C   UNL     1       1.408   1.989  20.303  0.00  0.00    +0.000 A 
ATOM     11  C   UNL     1       0.924   3.132  20.941  0.00  0.00    +0.000 A 
ATOM     12  C   UNL     1       1.356   4.401  20.538  0.00  0.00    +0.000 A 
ATOM     13  C   UNL     1       2.279   4.538  19.499  0.00  0.00    +0.000 A 
ATOM     14  N   UNL     1       2.672   5.788  19.025  0.00  0.00    +0.000 N 
ATOM     15  C   UNL     1       3.548   5.988  17.932  0.00  0.00    +0.000 A 
ATOM     16  H   UNL     1       2.437   6.621  19.553  0.00  0.00    +0.000 HD
ENDROOT
BRANCH   1  18
ATOM     17  C   UNL     1       2.024   8.875  17.630  0.00  0.00    +0.000 C 
ATOM     18  O   UNL     1       3.198   8.314  18.221  0.00  0.00    +0.000 OA
ENDBRANCH   1  18
BRANCH   4  19
ATOM     19  C   UNL     1       5.581   4.112  15.162  0.00  0.00    +0.000 C 
ATOM     20  O   UNL     1       5.359   4.181  13.960  0.00  0.00    +0.000 OA
BRANCH  19  21
ATOM     21  O   UNL     1       6.380   3.141  15.618  0.00  0.00    +0.000 OA
ATOM     22  H   UNL     1       5.941   2.341  15.984  0.00  0.00    +0.000 HD
ENDBRANCH  19  21
ENDBRANCH   4  19
TORSDOF 3
ENDMDL
