MODEL 1
REMARK VINA RESULT:      -7.0      0.000      0.000
REMARK  Name = 
REMARK  5 active torsions:
REMARK  status: ('A' for Active; 'I' for Inactive)
REMARK    1  A    between atoms: C_1  and  N_2
REMARK    2  A    between atoms: C_4  and  N_5
REMARK    3  A    between atoms: C_6  and  C_8
REMARK    4  A    between atoms: C_8  and  C_9
REMARK    5  A    between atoms: C_9  and  C_10
REMARK                            x       y       z     vdW  Elec       q    Type
REMARK                         _______ _______ _______ _____ _____    ______ ____
ROOT
ATOM      1  N   UNL     1       6.888   7.923  17.041  0.00  0.00    +0.000 N 
ATOM      2  C   UNL     1       7.924   8.188  17.925  0.00  0.00    +0.000 C 
ATOM      3  O   UNL     1       8.393   7.396  18.741  0.00  0.00    +0.000 OA
ATOM      4  H   UNL     1       6.640   8.674  16.401  0.00  0.00    +0.000 HD
ENDROOT
BRANCH   1   8
ATOM      5  C   UNL     1       6.154   3.488  15.196  0.00  0.00    +0.000 C 
ATOM      6  N   UNL     1       5.727   4.569  16.067  0.00  0.00    +0.000 N 
ATOM      7  C   UNL     1       6.494   5.716  16.147  0.00  0.00    +0.000 A 
ATOM      8  C   UNL     1       6.157   6.756  16.928  0.00  0.00    +0.000 A 
ATOM      9  C   UNL     1       4.942   6.648  17.718  0.00  0.00    +0.000 A 
ATOM     10  C   UNL     1       4.163   5.554  17.676  0.00  0.00    +0.000 A 
ATOM     11 BR   UNL     1       2.603   5.411  18.695  0.00  0.00    +0.000 Br
ATOM     12  C   UNL     1       4.545   4.399  16.790  0.00  0.00    +0.000 A 
ATOM     13  O   UNL     1       3.858   3.383  16.720  0.00  0.00    +0.000 OA
ENDBRANCH   1   8
BRANCH   2  14
ATOM     14  C   UNL     1       8.483   9.590  17.832  0.00  0.00    +0.000 C 
BRANCH  14  15
ATOM     15  C   UNL     1       9.048  10.039  19.174  0.00  0.00    +0.000 C 
BRANCH  15  16
ATOM     16  C   UNL     1      10.166  11.030  19.011  0.00  0.00    +0.000 A 
ATOM     17  C   UNL     1      10.900  11.468  20.110  0.00  0.00    +0.000 A 
ATOM     18  C   UNL     1      11.925  12.388  19.906  0.00  0.00    +0.000 A 
ATOM     19  C   UNL     1      12.184  12.846  18.619  0.00  0.00    +0.000 A 
ATOM     20  C   UNL     1      11.402  12.361  17.584  0.00  0.00    +0.000 A 
ATOM     21  N   UNL     1      10.408  11.459  17.750  0.00  0.00    +0.000 NA
ENDBRANCH  15  16
ENDBRANCH  14  15
ENDBRANCH   2  14
TORSDOF 4
ENDMDL
MODEL 2
REMARK VINA RESULT:      -7.0      0.655      1.076
REMARK  Name = 
REMARK  5 active torsions:
REMARK  status: ('A' for Active; 'I' for Inactive)
REMARK    1  A    between atoms: C_1  and  N_2
REMARK    2  A    between atoms: C_4  and  N_5
REMARK    3  A    between atoms: C_6  and  C_8
REMARK    4  A    between atoms: C_8  and  C_9
REMARK    5  A    between atoms: C_9  and  C_10
REMARK                            x       y       z     vdW  Elec       q    Type
REMARK                         _______ _______ _______ _____ _____    ______ ____
ROOT
ATOM      1  N   UNL     1       6.831   7.999  17.155  0.00  0.00    +0.000 N 
ATOM      2  C   UNL     1       7.937   8.196  17.969  0.00  0.00    +0.000 C 
ATOM      3  O   UNL     1       8.474   7.341  18.672  0.00  0.00    +0.000 OA
ATOM      4  H   UNL     1       6.529   8.800  16.604  0.00  0.00    +0.000 HD
ENDROOT
BRANCH   1   8
ATOM      5  C   UNL     1       6.140   3.584  15.244  0.00  0.00    +0.000 C 
ATOM      6  N   UNL     1       5.685   4.662  16.105  0.00  0.00    +0.000 N 
ATOM      7  C   UNL     1       6.458   5.803  16.227  0.00  0.00    +0.000 A 
ATOM      8  C   UNL     1       6.097   6.839  17.001  0.00  0.00    +0.000 A 
ATOM      9  C   UNL     1       4.849   6.735  17.738  0.00  0.00    +0.000 A 
ATOM     10  C   UNL     1       4.063   5.648  17.655  0.00  0.00    +0.000 A 
ATOM     11 BR   UNL     1       2.460   5.510  18.606  0.00  0.00    +0.000 Br
ATOM     12  C   UNL     1       4.473   4.497  16.777  0.00  0.00    +0.000 A 
ATOM     13  O   UNL     1       3.781   3.487  16.669  0.00  0.00    +0.000 OA
ENDBRANCH   1   8
BRANCH   2  14
ATOM     14  C   UNL     1       8.483   9.607  17.952  0.00  0.00    +0.000 C 
BRANCH  14  15
ATOM     15  C   UNL     1       9.210   9.922  19.253  0.00  0.00    +0.000 C 
BRANCH  15  16
ATOM     16  C   UNL     1      10.213  11.028  19.084  0.00  0.00    +0.000 A 
ATOM     17  C   UNL     1      10.660  11.403  17.819  0.00  0.00    +0.000 A 
ATOM     18  C   UNL     1      11.591  12.433  17.716  0.00  0.00    +0.000 A 
ATOM     19  C   UNL     1      12.050  13.054  18.872  0.00  0.00    +0.000 A 
ATOM     20  C   UNL     1      11.557  12.616  20.089  0.00  0.00    +0.000 A 
ATOM     21  N   UNL     1      10.645  11.627  20.220  0.00  0.00    +0.000 NA
ENDBRANCH  15  16
ENDBRANCH  14  15
ENDBRANCH   2  14
TORSDOF 4
ENDMDL
MODEL 3
REMARK VINA RESULT:      -7.0      5.198      6.875
REMARK  Name = 
REMARK  5 active torsions:
REMARK  status: ('A' for Active; 'I' for Inactive)
REMARK    1  A    between atoms: C_1  and  N_2
REMARK    2  A    between atoms: C_4  and  N_5
REMARK    3  A    between atoms: C_6  and  C_8
REMARK    4  A    between atoms: C_8  and  C_9
REMARK    5  A    between atoms: C_9  and  C_10
REMARK                            x       y       z     vdW  Elec       q    Type
REMARK                         _______ _______ _______ _____ _____    ______ ____
ROOT
ATOM      1  N   UNL     1       5.134   4.895  17.835  0.00  0.00    +0.000 N 
ATOM      2  C   UNL     1       6.475   4.817  18.186  0.00  0.00    +0.000 C 
ATOM      3  O   UNL     1       6.936   5.009  19.309  0.00  0.00    +0.000 OA
ATOM      4  H   UNL     1       4.908   4.671  16.869  0.00  0.00    +0.000 HD
ENDROOT
BRANCH   1   8
ATOM      5  C   UNL     1       1.880   8.090  19.515  0.00  0.00    +0.000 C 
ATOM      6  N   UNL     1       2.440   6.749  19.524  0.00  0.00    +0.000 N 
ATOM      7  C   UNL     1       3.502   6.455  18.689  0.00  0.00    +0.000 A 
ATOM      8  C   UNL     1       4.072   5.239  18.648  0.00  0.00    +0.000 A 
ATOM      9  C   UNL     1       3.532   4.205  19.515  0.00  0.00    +0.000 A 
ATOM     10  C   UNL     1       2.500   4.440  20.344  0.00  0.00    +0.000 A 
ATOM     11 BR   UNL     1       1.800   3.112  21.455  0.00  0.00    +0.000 Br
ATOM     12  C   UNL     1       1.876   5.809  20.388  0.00  0.00    +0.000 A 
ATOM     13  O   UNL     1       0.934   6.068  21.134  0.00  0.00    +0.000 OA
ENDBRANCH   1   8
BRANCH   2  14
ATOM     14  C   UNL     1       7.401   4.465  17.042  0.00  0.00    +0.000 C 
BRANCH  14  15
ATOM     15  C   UNL     1       7.366   5.543  15.966  0.00  0.00    +0.000 C 
BRANCH  15  16
ATOM     16  C   UNL     1       7.112   4.967  14.601  0.00  0.00    +0.000 A 
ATOM     17  C   UNL     1       6.146   3.984  14.406  0.00  0.00    +0.000 A 
ATOM     18  C   UNL     1       5.951   3.482  13.123  0.00  0.00    +0.000 A 
ATOM     19  C   UNL     1       6.723   3.971  12.075  0.00  0.00    +0.000 A 
ATOM     20  C   UNL     1       7.664   4.947  12.358  0.00  0.00    +0.000 A 
ATOM     21  N   UNL     1       7.869   5.461  13.591  0.00  0.00    +0.000 NA
ENDBRANCH  15  16
ENDBRANCH  14  15
ENDBRANCH   2  14
TORSDOF 4
ENDMDL
MODEL 4
REMARK VINA RESULT:      -7.0      3.861      8.346
REMARK  Name = 
REMARK  5 active torsions:
REMARK  status: ('A' for Active; 'I' for Inactive)
REMARK    1  A    between atoms: C_1  and  N_2
REMARK    2  A    between atoms: C_4  and  N_5
REMARK    3  A    between atoms: C_6  and  C_8
REMARK    4  A    between atoms: C_8  and  C_9
REMARK    5  A    between atoms: C_9  and  C_10
REMARK                            x       y       z     vdW  Elec       q    Type
REMARK                         _______ _______ _______ _____ _____    ______ ____
ROOT
ATOM      1  N   UNL     1       3.917   5.350  19.429  0.00  0.00    +0.000 N 
ATOM      2  C   UNL     1       2.653   5.922  19.468  0.00  0.00    +0.000 C 
ATOM      3  O   UNL     1       2.185   6.688  18.628  0.00  0.00    +0.000 OA
ATOM      4  H   UNL     1       4.143   4.705  20.183  0.00  0.00    +0.000 HD
ENDROOT
BRANCH   1   8
ATOM      5  C   UNL     1       7.907   7.601  17.806  0.00  0.00    +0.000 C 
ATOM      6  N   UNL     1       6.861   6.611  17.614  0.00  0.00    +0.000 N 
ATOM      7  C   UNL     1       5.899   6.445  18.594  0.00  0.00    +0.000 A 
ATOM      8  C   UNL     1       4.902   5.552  18.481  0.00  0.00    +0.000 A 
ATOM      9  C   UNL     1       4.854   4.733  17.282  0.00  0.00    +0.000 A 
ATOM     10  C   UNL     1       5.765   4.855  16.301  0.00  0.00    +0.000 A 
ATOM     11 BR   UNL     1       5.709   3.799  14.761  0.00  0.00    +0.000 Br
ATOM     12  C   UNL     1       6.873   5.866  16.434  0.00  0.00    +0.000 A 
ATOM     13  O   UNL     1       7.723   6.012  15.559  0.00  0.00    +0.000 OA
ENDBRANCH   1   8
BRANCH   2  14
ATOM     14  C   UNL     1       1.829   5.535  20.676  0.00  0.00    +0.000 C 
BRANCH  14  15
ATOM     15  C   UNL     1       1.079   4.234  20.424  0.00  0.00    +0.000 C 
BRANCH  15  16
ATOM     16  C   UNL     1       1.917   3.237  19.674  0.00  0.00    +0.000 A 
ATOM     17  C   UNL     1       1.591   2.861  18.374  0.00  0.00    +0.000 A 
ATOM     18  C   UNL     1       2.399   1.933  17.722  0.00  0.00    +0.000 A 
ATOM     19  C   UNL     1       3.501   1.407  18.385  0.00  0.00    +0.000 A 
ATOM     20  C   UNL     1       3.750   1.832  19.679  0.00  0.00    +0.000 A 
ATOM     21  N   UNL     1       2.991   2.740  20.332  0.00  0.00    +0.000 NA
ENDBRANCH  15  16
ENDBRANCH  14  15
ENDBRANCH   2  14
TORSDOF 4
ENDMDL
MODEL 5
REMARK VINA RESULT:      -7.0      1.520      1.979
REMARK  Name = 
REMARK  5 active torsions:
REMARK  status: ('A' for Active; 'I' for Inactive)
REMARK    1  A    between atoms: C_1  and  N_2
REMARK    2  A    between atoms: C_4  and  N_5
REMARK    3  A    between atoms: C_6  and  C_8
REMARK    4  A    between atoms: C_8  and  C_9
REMARK    5  A    between atoms: C_9  and  C_10
REMARK                            x       y       z     vdW  Elec       q    Type
REMARK                         _______ _______ _______ _____ _____    ______ ____
ROOT
ATOM      1  N   UNL     1       6.994   7.906  17.225  0.00  0.00    +0.000 N 
ATOM      2  C   UNL     1       8.047   8.220  18.073  0.00  0.00    +0.000 C 
ATOM      3  O   UNL     1       8.589   7.448  18.863  0.00  0.00    +0.000 OA
ATOM      4  H   UNL     1       6.682   8.648  16.602  0.00  0.00    +0.000 HD
ENDROOT
BRANCH   1   8
ATOM      5  C   UNL     1       4.180   4.401  19.072  0.00  0.00    +0.000 C 
ATOM      6  N   UNL     1       4.947   4.938  17.961  0.00  0.00    +0.000 N 
ATOM      7  C   UNL     1       5.596   6.149  18.109  0.00  0.00    +0.000 A 
ATOM      8  C   UNL     1       6.326   6.701  17.126  0.00  0.00    +0.000 A 
ATOM      9  C   UNL     1       6.417   5.988  15.863  0.00  0.00    +0.000 A 
ATOM     10  C   UNL     1       5.803   4.808  15.668  0.00  0.00    +0.000 A 
ATOM     11 BR   UNL     1       5.914   3.892  14.044  0.00  0.00    +0.000 Br
ATOM     12  C   UNL     1       4.996   4.194  16.780  0.00  0.00    +0.000 A 
ATOM     13  O   UNL     1       4.424   3.115  16.645  0.00  0.00    +0.000 OA
ENDBRANCH   1   8
BRANCH   2  14
ATOM     14  C   UNL     1       8.524   9.653  17.975  0.00  0.00    +0.000 C 
BRANCH  14  15
ATOM     15  C   UNL     1       9.190  10.091  19.273  0.00  0.00    +0.000 C 
BRANCH  15  16
ATOM     16  C   UNL     1      10.233  11.149  19.041  0.00  0.00    +0.000 A 
ATOM     17  C   UNL     1      10.915  11.729  20.107  0.00  0.00    +0.000 A 
ATOM     18  C   UNL     1      11.871  12.704  19.838  0.00  0.00    +0.000 A 
ATOM     19  C   UNL     1      12.114  13.075  18.521  0.00  0.00    +0.000 A 
ATOM     20  C   UNL     1      11.387  12.450  17.522  0.00  0.00    +0.000 A 
ATOM     21  N   UNL     1      10.462  11.492  17.750  0.00  0.00    +0.000 NA
ENDBRANCH  15  16
ENDBRANCH  14  15
ENDBRANCH   2  14
TORSDOF 4
ENDMDL
MODEL 6
REMARK VINA RESULT:      -6.9      6.506      8.478
REMARK  Name = 
REMARK  5 active torsions:
REMARK  status: ('A' for Active; 'I' for Inactive)
REMARK    1  A    between atoms: C_1  and  N_2
REMARK    2  A    between atoms: C_4  and  N_5
REMARK    3  A    between atoms: C_6  and  C_8
REMARK    4  A    between atoms: C_8  and  C_9
REMARK    5  A    between atoms: C_9  and  C_10
REMARK                            x       y       z     vdW  Elec       q    Type
REMARK                         _______ _______ _______ _____ _____    ______ ____
ROOT
ATOM      1  N   UNL     1       2.421   5.827  20.828  0.00  0.00    +0.000 N 
ATOM      2  C   UNL     1       1.788   4.599  20.695  0.00  0.00    +0.000 C 
ATOM      3  O   UNL     1       0.659   4.418  20.243  0.00  0.00    +0.000 OA
ATOM      4  H   UNL     1       3.373   5.806  21.186  0.00  0.00    +0.000 HD
ENDROOT
BRANCH   1   8
ATOM      5  C   UNL     1       1.786   9.582  17.809  0.00  0.00    +0.000 C 
ATOM      6  N   UNL     1       1.550   8.958  19.099  0.00  0.00    +0.000 N 
ATOM      7  C   UNL     1       2.083   7.708  19.353  0.00  0.00    +0.000 A 
ATOM      8  C   UNL     1       1.908   7.074  20.525  0.00  0.00    +0.000 A 
ATOM      9  C   UNL     1       1.119   7.739  21.547  0.00  0.00    +0.000 A 
ATOM     10  C   UNL     1       0.579   8.954  21.349  0.00  0.00    +0.000 A 
ATOM     11 BR   UNL     1      -0.441   9.809  22.661  0.00  0.00    +0.000 Br
ATOM     12  C   UNL     1       0.789   9.659  20.036  0.00  0.00    +0.000 A 
ATOM     13  O   UNL     1       0.317  10.772  19.816  0.00  0.00    +0.000 OA
ENDBRANCH   1   8
BRANCH   2  14
ATOM     14  C   UNL     1       2.607   3.419  21.169  0.00  0.00    +0.000 C 
BRANCH  14  15
ATOM     15  C   UNL     1       2.969   2.508  20.003  0.00  0.00    +0.000 C 
BRANCH  15  16
ATOM     16  C   UNL     1       3.812   3.215  18.979  0.00  0.00    +0.000 A 
ATOM     17  C   UNL     1       3.377   3.351  17.663  0.00  0.00    +0.000 A 
ATOM     18  C   UNL     1       4.195   4.012  16.752  0.00  0.00    +0.000 A 
ATOM     19  C   UNL     1       5.420   4.514  17.176  0.00  0.00    +0.000 A 
ATOM     20  C   UNL     1       5.777   4.331  18.501  0.00  0.00    +0.000 A 
ATOM     21  N   UNL     1       4.999   3.703  19.411  0.00  0.00    +0.000 NA
ENDBRANCH  15  16
ENDBRANCH  14  15
ENDBRANCH   2  14
TORSDOF 4
ENDMDL
MODEL 7
REMARK VINA RESULT:      -6.9      4.742      8.242
REMARK  Name = 
REMARK  5 active torsions:
REMARK  status: ('A' for Active; 'I' for Inactive)
REMARK    1  A    between atoms: C_1  and  N_2
REMARK    2  A    between atoms: C_4  and  N_5
REMARK    3  A    between atoms: C_6  and  C_8
REMARK    4  A    between atoms: C_8  and  C_9
REMARK    5  A    between atoms: C_9  and  C_10
REMARK                            x       y       z     vdW  Elec       q    Type
REMARK                         _______ _______ _______ _____ _____    ______ ____
ROOT
ATOM      1  N   UNL     1       3.870   5.337  19.278  0.00  0.00    +0.000 N 
ATOM      2  C   UNL     1       2.622   5.944  19.323  0.00  0.00    +0.000 C 
ATOM      3  O   UNL     1       2.141   6.663  18.449  0.00  0.00    +0.000 OA
ATOM      4  H   UNL     1       4.108   4.739  20.066  0.00  0.00    +0.000 HD
ENDROOT
BRANCH   1   8
ATOM      5  C   UNL     1       5.959   3.833  15.156  0.00  0.00    +0.000 C 
ATOM      6  N   UNL     1       5.904   4.772  16.263  0.00  0.00    +0.000 N 
ATOM      7  C   UNL     1       4.929   4.619  17.232  0.00  0.00    +0.000 A 
ATOM      8  C   UNL     1       4.822   5.448  18.284  0.00  0.00    +0.000 A 
ATOM      9  C   UNL     1       5.771   6.544  18.386  0.00  0.00    +0.000 A 
ATOM     10  C   UNL     1       6.735   6.736  17.470  0.00  0.00    +0.000 A 
ATOM     11 BR   UNL     1       7.952   8.149  17.595  0.00  0.00    +0.000 Br
ATOM     12  C   UNL     1       6.851   5.796  16.300  0.00  0.00    +0.000 A 
ATOM     13  O   UNL     1       7.721   5.933  15.443  0.00  0.00    +0.000 OA
ENDBRANCH   1   8
BRANCH   2  14
ATOM     14  C   UNL     1       1.835   5.662  20.583  0.00  0.00    +0.000 C 
BRANCH  14  15
ATOM     15  C   UNL     1       1.121   4.320  20.487  0.00  0.00    +0.000 C 
BRANCH  15  16
ATOM     16  C   UNL     1       1.934   3.303  19.735  0.00  0.00    +0.000 A 
ATOM     17  C   UNL     1       1.583   2.919  18.443  0.00  0.00    +0.000 A 
ATOM     18  C   UNL     1       2.368   1.973  17.790  0.00  0.00    +0.000 A 
ATOM     19  C   UNL     1       3.473   1.437  18.442  0.00  0.00    +0.000 A 
ATOM     20  C   UNL     1       3.747   1.872  19.727  0.00  0.00    +0.000 A 
ATOM     21  N   UNL     1       3.010   2.797  20.383  0.00  0.00    +0.000 NA
ENDBRANCH  15  16
ENDBRANCH  14  15
ENDBRANCH   2  14
TORSDOF 4
ENDMDL
MODEL 8
REMARK VINA RESULT:      -6.7      5.326      6.888
REMARK  Name = 
REMARK  5 active torsions:
REMARK  status: ('A' for Active; 'I' for Inactive)
REMARK    1  A    between atoms: C_1  and  N_2
REMARK    2  A    between atoms: C_4  and  N_5
REMARK    3  A    between atoms: C_6  and  C_8
REMARK    4  A    between atoms: C_8  and  C_9
REMARK    5  A    between atoms: C_9  and  C_10
REMARK                            x       y       z     vdW  Elec       q    Type
REMARK                         _______ _______ _______ _____ _____    ______ ____
ROOT
ATOM      1  N   UNL     1       5.233   4.248  17.548  0.00  0.00    +0.000 N 
ATOM      2  C   UNL     1       6.512   4.562  17.988  0.00  0.00    +0.000 C 
ATOM      3  O   UNL     1       6.824   4.853  19.141  0.00  0.00    +0.000 OA
ATOM      4  H   UNL     1       5.145   3.990  16.568  0.00  0.00    +0.000 HD
ENDROOT
BRANCH   1   8
ATOM      5  C   UNL     1       1.421   1.965  19.518  0.00  0.00    +0.000 C 
ATOM      6  N   UNL     1       2.168   3.190  19.291  0.00  0.00    +0.000 N 
ATOM      7  C   UNL     1       3.330   3.146  18.543  0.00  0.00    +0.000 A 
ATOM      8  C   UNL     1       4.068   4.240  18.291  0.00  0.00    +0.000 A 
ATOM      9  C   UNL     1       3.616   5.506  18.840  0.00  0.00    +0.000 A 
ATOM     10  C   UNL     1       2.495   5.603  19.575  0.00  0.00    +0.000 A 
ATOM     11 BR   UNL     1       1.915   7.230  20.288  0.00  0.00    +0.000 Br
ATOM     12  C   UNL     1       1.671   4.372  19.843  0.00  0.00    +0.000 A 
ATOM     13  O   UNL     1       0.637   4.417  20.506  0.00  0.00    +0.000 OA
ENDBRANCH   1   8
BRANCH   2  14
ATOM     14  C   UNL     1       7.570   4.529  16.907  0.00  0.00    +0.000 C 
BRANCH  14  15
ATOM     15  C   UNL     1       7.261   5.548  15.817  0.00  0.00    +0.000 C 
BRANCH  15  16
ATOM     16  C   UNL     1       6.978   4.890  14.496  0.00  0.00    +0.000 A 
ATOM     17  C   UNL     1       7.718   5.213  13.361  0.00  0.00    +0.000 A 
ATOM     18  C   UNL     1       7.415   4.576  12.161  0.00  0.00    +0.000 A 
ATOM     19  C   UNL     1       6.386   3.642  12.126  0.00  0.00    +0.000 A 
ATOM     20  C   UNL     1       5.699   3.384  13.300  0.00  0.00    +0.000 A 
ATOM     21  N   UNL     1       5.977   3.977  14.482  0.00  0.00    +0.000 NA
ENDBRANCH  15  16
ENDBRANCH  14  15
ENDBRANCH   2  14
TORSDOF 4
ENDMDL
MODEL 9
REMARK VINA RESULT:      -6.7      4.733      7.204
REMARK  Name = 
REMARK  5 active torsions:
REMARK  status: ('A' for Active; 'I' for Inactive)
REMARK    1  A    between atoms: C_1  and  N_2
REMARK    2  A    between atoms: C_4  and  N_5
REMARK    3  A    between atoms: C_6  and  C_8
REMARK    4  A    between atoms: C_8  and  C_9
REMARK    5  A    between atoms: C_9  and  C_10
REMARK                            x       y       z     vdW  Elec       q    Type
REMARK                         _______ _______ _______ _____ _____    ______ ____
ROOT
ATOM      1  N   UNL     1       2.790   6.269  20.023  0.00  0.00    +0.000 N 
ATOM      2  C   UNL     1       2.758   5.262  19.070  0.00  0.00    +0.000 C 
ATOM      3  O   UNL     1       2.119   5.286  18.019  0.00  0.00    +0.000 OA
ATOM      4  H   UNL     1       3.400   6.113  20.823  0.00  0.00    +0.000 HD
ENDROOT
BRANCH   1   8
ATOM      5  C   UNL     1       1.367  10.376  17.849  0.00  0.00    +0.000 C 
ATOM      6  N   UNL     1       1.350   9.501  19.009  0.00  0.00    +0.000 N 
ATOM      7  C   UNL     1       2.062   8.316  18.973  0.00  0.00    +0.000 A 
ATOM      8  C   UNL     1       2.093   7.462  20.009  0.00  0.00    +0.000 A 
ATOM      9  C   UNL     1       1.337   7.809  21.200  0.00  0.00    +0.000 A 
ATOM     10  C   UNL     1       0.628   8.948  21.285  0.00  0.00    +0.000 A 
ATOM     11 BR   UNL     1      -0.349   9.394  22.813  0.00  0.00    +0.000 Br
ATOM     12  C   UNL     1       0.608   9.902  20.121  0.00  0.00    +0.000 A 
ATOM     13  O   UNL     1      -0.024  10.956  20.159  0.00  0.00    +0.000 OA
ENDBRANCH   1   8
BRANCH   2  14
ATOM     14  C   UNL     1       3.600   4.051  19.410  0.00  0.00    +0.000 C 
BRANCH  14  15
ATOM     15  C   UNL     1       4.612   3.768  18.307  0.00  0.00    +0.000 C 
BRANCH  15  16
ATOM     16  C   UNL     1       5.710   4.793  18.275  0.00  0.00    +0.000 A 
ATOM     17  C   UNL     1       5.870   5.638  17.179  0.00  0.00    +0.000 A 
ATOM     18  C   UNL     1       6.904   6.569  17.198  0.00  0.00    +0.000 A 
ATOM     19  C   UNL     1       7.747   6.630  18.301  0.00  0.00    +0.000 A 
ATOM     20  C   UNL     1       7.519   5.750  19.346  0.00  0.00    +0.000 A 
ATOM     21  N   UNL     1       6.518   4.843  19.361  0.00  0.00    +0.000 NA
ENDBRANCH  15  16
ENDBRANCH  14  15
ENDBRANCH   2  14
TORSDOF 4
ENDMDL
