MODEL 1
REMARK VINA RESULT:      -8.2      0.000      0.000
REMARK  Name = 
REMARK  10 active torsions:
REMARK  status: ('A' for Active; 'I' for Inactive)
REMARK    1  A    between atoms: C_1  and  O_2
REMARK    2  A    between atoms: O_2  and  C_3
REMARK    3  A    between atoms: C_6  and  C_7
REMARK    4  A    between atoms: C_8  and  P_9
REMARK    5  A    between atoms: P_9  and  C_11
REMARK    6  A    between atoms: P_9  and  O_19
REMARK    7  A    between atoms: C_11  and  C_12
REMARK    8  A    between atoms: C_12  and  C_13
REMARK    9  A    between atoms: O_19  and  C_20
REMARK   10  A    between atoms: N_23  and  C_24
REMARK                            x       y       z     vdW  Elec       q    Type
REMARK                         _______ _______ _______ _____ _____    ______ ____
ROOT
ATOM      1  C   UNL     1       3.315   6.823  19.085  0.00  0.00    +0.000 C 
ATOM      2  C   UNL     1       4.144   6.736  17.776  0.00  0.00    +0.000 C 
ATOM      3  C   UNL     1       3.688   5.263  17.727  0.00  0.00    +0.000 C 
ATOM      4  O   UNL     1       3.877   4.310  17.000  0.00  0.00    +0.000 OA
ATOM      5  N   UNL     1       2.901   5.435  18.824  0.00  0.00    +0.000 N 
ENDROOT
BRANCH   1   9
ATOM      6  C   UNL     1       0.222  10.024  19.154  0.00  0.00    +0.000 A 
ATOM      7  C   UNL     1       0.853   9.685  17.960  0.00  0.00    +0.000 A 
ATOM      8  C   UNL     1       1.797   8.653  17.925  0.00  0.00    +0.000 A 
ATOM      9  C   UNL     1       2.170   7.941  19.087  0.00  0.00    +0.000 A 
ATOM     10  C   UNL     1       1.506   8.303  20.272  0.00  0.00    +0.000 A 
ATOM     11  C   UNL     1       0.549   9.325  20.312  0.00  0.00    +0.000 A 
BRANCH   6  13
ATOM     12  C   UNL     1      -1.928  10.769  18.510  0.00  0.00    +0.000 C 
ATOM     13  O   UNL     1      -0.657  11.067  19.077  0.00  0.00    +0.000 OA
ENDBRANCH   6  13
ENDBRANCH   1   9
BRANCH   5  14
ATOM     14  C   UNL     1       2.262   4.504  19.642  0.00  0.00    +0.000 A 
ATOM     15  C   UNL     1       1.213   3.715  19.147  0.00  0.00    +0.000 A 
ATOM     16  C   UNL     1       0.623   2.732  19.940  0.00  0.00    +0.000 A 
ATOM     17  C   UNL     1       1.046   2.547  21.252  0.00  0.00    +0.000 A 
ATOM     18  C   UNL     1       2.058   3.353  21.770  0.00  0.00    +0.000 A 
ATOM     19  C   UNL     1       2.668   4.321  20.966  0.00  0.00    +0.000 A 
ENDBRANCH   5  14
BRANCH   2  20
ATOM     20  P   UNL     1       5.950   7.024  17.708  0.00  0.00    +0.000 P 
ATOM     21  O   UNL     1       6.083   5.838  18.662  0.00  0.00    +0.000 OA
BRANCH  20  22
ATOM     22  O   UNL     1       7.658   7.297  17.645  0.00  0.00    +0.000 OA
ATOM     23  C   UNL     1       8.249   8.571  17.848  0.00  0.00    +0.000 C 
ENDBRANCH  20  22
BRANCH  20  24
ATOM     24  C   UNL     1       6.058   6.390  15.873  0.00  0.00    +0.000 C 
BRANCH  24  25
ATOM     25  C   UNL     1       6.935   5.200  15.508  0.00  0.00    +0.000 C 
BRANCH  25  26
ATOM     26  C   UNL     1       6.680   4.672  14.108  0.00  0.00    +0.000 A 
ATOM     27  C   UNL     1       7.601   4.866  13.065  0.00  0.00    +0.000 A 
ATOM     28  C   UNL     1       7.411   4.258  11.822  0.00  0.00    +0.000 A 
ATOM     29  C   UNL     1       6.306   3.440  11.608  0.00  0.00    +0.000 A 
ATOM     30  C   UNL     1       5.377   3.251  12.629  0.00  0.00    +0.000 A 
ATOM     31  C   UNL     1       5.560   3.866  13.869  0.00  0.00    +0.000 A 
ENDBRANCH  25  26
ENDBRANCH  24  25
ENDBRANCH  20  24
ENDBRANCH   2  20
TORSDOF 8
ENDMDL
MODEL 2
REMARK VINA RESULT:      -8.1      0.566      1.017
REMARK  Name = 
REMARK  10 active torsions:
REMARK  status: ('A' for Active; 'I' for Inactive)
REMARK    1  A    between atoms: C_1  and  O_2
REMARK    2  A    between atoms: O_2  and  C_3
REMARK    3  A    between atoms: C_6  and  C_7
REMARK    4  A    between atoms: C_8  and  P_9
REMARK    5  A    between atoms: P_9  and  C_11
REMARK    6  A    between atoms: P_9  and  O_19
REMARK    7  A    between atoms: C_11  and  C_12
REMARK    8  A    between atoms: C_12  and  C_13
REMARK    9  A    between atoms: O_19  and  C_20
REMARK   10  A    between atoms: N_23  and  C_24
REMARK                            x       y       z     vdW  Elec       q    Type
REMARK                         _______ _______ _______ _____ _____    ______ ____
ROOT
ATOM      1  C   UNL     1       3.354   6.737  19.016  0.00  0.00    +0.000 C 
ATOM      2  C   UNL     1       3.982   6.665  17.599  0.00  0.00    +0.000 C 
ATOM      3  C   UNL     1       3.565   5.179  17.621  0.00  0.00    +0.000 C 
ATOM      4  O   UNL     1       3.672   4.228  16.876  0.00  0.00    +0.000 OA
ATOM      5  N   UNL     1       2.945   5.336  18.822  0.00  0.00    +0.000 N 
ENDROOT
BRANCH   1   9
ATOM      6  C   UNL     1       0.211   9.844  19.554  0.00  0.00    +0.000 A 
ATOM      7  C   UNL     1       0.779   9.632  18.300  0.00  0.00    +0.000 A 
ATOM      8  C   UNL     1       1.738   8.630  18.118  0.00  0.00    +0.000 A 
ATOM      9  C   UNL     1       2.191   7.822  19.185  0.00  0.00    +0.000 A 
ATOM     10  C   UNL     1       1.589   8.058  20.434  0.00  0.00    +0.000 A 
ATOM     11  C   UNL     1       0.617   9.049  20.622  0.00  0.00    +0.000 A 
BRANCH   6  13
ATOM     12  C   UNL     1      -1.247  11.292  18.384  0.00  0.00    +0.000 C 
ATOM     13  O   UNL     1      -0.689  10.869  19.623  0.00  0.00    +0.000 OA
ENDBRANCH   6  13
ENDBRANCH   1   9
BRANCH   5  14
ATOM     14  C   UNL     1       2.461   4.393  19.728  0.00  0.00    +0.000 A 
ATOM     15  C   UNL     1       1.088   4.119  19.812  0.00  0.00    +0.000 A 
ATOM     16  C   UNL     1       0.609   3.124  20.663  0.00  0.00    +0.000 A 
ATOM     17  C   UNL     1       1.490   2.413  21.469  0.00  0.00    +0.000 A 
ATOM     18  C   UNL     1       2.852   2.704  21.427  0.00  0.00    +0.000 A 
ATOM     19  C   UNL     1       3.336   3.684  20.554  0.00  0.00    +0.000 A 
ENDBRANCH   5  14
BRANCH   2  20
ATOM     20  P   UNL     1       5.749   7.003  17.263  0.00  0.00    +0.000 P 
ATOM     21  O   UNL     1       6.058   5.970  18.346  0.00  0.00    +0.000 OA
BRANCH  20  22
ATOM     22  O   UNL     1       7.420   7.322  16.946  0.00  0.00    +0.000 OA
ATOM     23  C   UNL     1       8.202   8.211  17.728  0.00  0.00    +0.000 C 
ENDBRANCH  20  22
BRANCH  20  24
ATOM     24  C   UNL     1       5.668   6.116  15.534  0.00  0.00    +0.000 C 
BRANCH  24  25
ATOM     25  C   UNL     1       6.799   5.212  15.066  0.00  0.00    +0.000 C 
BRANCH  25  26
ATOM     26  C   UNL     1       6.435   4.372  13.855  0.00  0.00    +0.000 A 
ATOM     27  C   UNL     1       5.133   3.882  13.658  0.00  0.00    +0.000 A 
ATOM     28  C   UNL     1       4.788   3.226  12.474  0.00  0.00    +0.000 A 
ATOM     29  C   UNL     1       5.735   3.062  11.467  0.00  0.00    +0.000 A 
ATOM     30  C   UNL     1       7.034   3.529  11.655  0.00  0.00    +0.000 A 
ATOM     31  C   UNL     1       7.383   4.176  12.842  0.00  0.00    +0.000 A 
ENDBRANCH  25  26
ENDBRANCH  24  25
ENDBRANCH  20  24
ENDBRANCH   2  20
TORSDOF 8
ENDMDL
MODEL 3
REMARK VINA RESULT:      -8.1      0.693      1.045
REMARK  Name = 
REMARK  10 active torsions:
REMARK  status: ('A' for Active; 'I' for Inactive)
REMARK    1  A    between atoms: C_1  and  O_2
REMARK    2  A    between atoms: O_2  and  C_3
REMARK    3  A    between atoms: C_6  and  C_7
REMARK    4  A    between atoms: C_8  and  P_9
REMARK    5  A    between atoms: P_9  and  C_11
REMARK    6  A    between atoms: P_9  and  O_19
REMARK    7  A    between atoms: C_11  and  C_12
REMARK    8  A    between atoms: C_12  and  C_13
REMARK    9  A    between atoms: O_19  and  C_20
REMARK   10  A    between atoms: N_23  and  C_24
REMARK                            x       y       z     vdW  Elec       q    Type
REMARK                         _______ _______ _______ _____ _____    ______ ____
ROOT
ATOM      1  C   UNL     1       3.357   6.575  18.958  0.00  0.00    +0.000 C 
ATOM      2  C   UNL     1       3.948   6.487  17.526  0.00  0.00    +0.000 C 
ATOM      3  C   UNL     1       3.479   5.017  17.553  0.00  0.00    +0.000 C 
ATOM      4  O   UNL     1       3.533   4.066  16.802  0.00  0.00    +0.000 OA
ATOM      5  N   UNL     1       2.894   5.191  18.769  0.00  0.00    +0.000 N 
ENDROOT
BRANCH   1   9
ATOM      6  C   UNL     1       0.339   9.787  19.591  0.00  0.00    +0.000 A 
ATOM      7  C   UNL     1       0.934   9.620  18.343  0.00  0.00    +0.000 A 
ATOM      8  C   UNL     1       1.853   8.588  18.128  0.00  0.00    +0.000 A 
ATOM      9  C   UNL     1       2.238   7.701  19.158  0.00  0.00    +0.000 A 
ATOM     10  C   UNL     1       1.611   7.893  20.403  0.00  0.00    +0.000 A 
ATOM     11  C   UNL     1       0.679   8.915  20.622  0.00  0.00    +0.000 A 
BRANCH   6  13
ATOM     12  C   UNL     1      -0.923  11.441  18.468  0.00  0.00    +0.000 C 
ATOM     13  O   UNL     1      -0.517  10.846  19.695  0.00  0.00    +0.000 OA
ENDBRANCH   6  13
ENDBRANCH   1   9
BRANCH   5  14
ATOM     14  C   UNL     1       2.397   4.262  19.682  0.00  0.00    +0.000 A 
ATOM     15  C   UNL     1       3.258   3.594  20.566  0.00  0.00    +0.000 A 
ATOM     16  C   UNL     1       2.756   2.722  21.530  0.00  0.00    +0.000 A 
ATOM     17  C   UNL     1       1.389   2.476  21.604  0.00  0.00    +0.000 A 
ATOM     18  C   UNL     1       0.526   3.101  20.705  0.00  0.00    +0.000 A 
ATOM     19  C   UNL     1       1.027   3.996  19.755  0.00  0.00    +0.000 A 
ENDBRANCH   5  14
BRANCH   2  20
ATOM     20  P   UNL     1       5.718   6.762  17.149  0.00  0.00    +0.000 P 
ATOM     21  O   UNL     1       6.015   5.719  18.225  0.00  0.00    +0.000 OA
BRANCH  20  22
ATOM     22  O   UNL     1       7.392   7.023  16.794  0.00  0.00    +0.000 OA
ATOM     23  C   UNL     1       8.170   8.030  17.419  0.00  0.00    +0.000 C 
ENDBRANCH  20  22
BRANCH  20  24
ATOM     24  C   UNL     1       5.565   5.880  15.423  0.00  0.00    +0.000 C 
BRANCH  24  25
ATOM     25  C   UNL     1       6.754   5.154  14.809  0.00  0.00    +0.000 C 
BRANCH  25  26
ATOM     26  C   UNL     1       6.397   4.358  13.567  0.00  0.00    +0.000 A 
ATOM     27  C   UNL     1       7.383   3.836  12.714  0.00  0.00    +0.000 A 
ATOM     28  C   UNL     1       7.039   2.994  11.653  0.00  0.00    +0.000 A 
ATOM     29  C   UNL     1       5.706   2.654  11.439  0.00  0.00    +0.000 A 
ATOM     30  C   UNL     1       4.716   3.177  12.267  0.00  0.00    +0.000 A 
ATOM     31  C   UNL     1       5.058   4.026  13.322  0.00  0.00    +0.000 A 
ENDBRANCH  25  26
ENDBRANCH  24  25
ENDBRANCH  20  24
ENDBRANCH   2  20
TORSDOF 8
ENDMDL
MODEL 4
REMARK VINA RESULT:      -8.0      1.764      4.376
REMARK  Name = 
REMARK  10 active torsions:
REMARK  status: ('A' for Active; 'I' for Inactive)
REMARK    1  A    between atoms: C_1  and  O_2
REMARK    2  A    between atoms: O_2  and  C_3
REMARK    3  A    between atoms: C_6  and  C_7
REMARK    4  A    between atoms: C_8  and  P_9
REMARK    5  A    between atoms: P_9  and  C_11
REMARK    6  A    between atoms: P_9  and  O_19
REMARK    7  A    between atoms: C_11  and  C_12
REMARK    8  A    between atoms: C_12  and  C_13
REMARK    9  A    between atoms: O_19  and  C_20
REMARK   10  A    between atoms: N_23  and  C_24
REMARK                            x       y       z     vdW  Elec       q    Type
REMARK                         _______ _______ _______ _____ _____    ______ ____
ROOT
ATOM      1  C   UNL     1       3.772   6.077  18.457  0.00  0.00    +0.000 C 
ATOM      2  C   UNL     1       4.088   5.802  16.962  0.00  0.00    +0.000 C 
ATOM      3  C   UNL     1       3.454   4.417  17.208  0.00  0.00    +0.000 C 
ATOM      4  O   UNL     1       3.258   3.414  16.553  0.00  0.00    +0.000 OA
ATOM      5  N   UNL     1       3.116   4.759  18.480  0.00  0.00    +0.000 N 
ENDROOT
BRANCH   1   9
ATOM      6  C   UNL     1       1.112   9.584  19.126  0.00  0.00    +0.000 A 
ATOM      7  C   UNL     1       1.292   8.639  20.133  0.00  0.00    +0.000 A 
ATOM      8  C   UNL     1       2.157   7.556  19.942  0.00  0.00    +0.000 A 
ATOM      9  C   UNL     1       2.852   7.358  18.728  0.00  0.00    +0.000 A 
ATOM     10  C   UNL     1       2.654   8.336  17.737  0.00  0.00    +0.000 A 
ATOM     11  C   UNL     1       1.801   9.431  17.926  0.00  0.00    +0.000 A 
BRANCH   6  13
ATOM     12  C   UNL     1       0.453  11.298  20.614  0.00  0.00    +0.000 C 
ATOM     13  O   UNL     1       0.220  10.579  19.409  0.00  0.00    +0.000 OA
ENDBRANCH   6  13
ENDBRANCH   1   9
BRANCH   5  14
ATOM     14  C   UNL     1       2.677   3.978  19.548  0.00  0.00    +0.000 A 
ATOM     15  C   UNL     1       3.568   3.148  20.244  0.00  0.00    +0.000 A 
ATOM     16  C   UNL     1       3.148   2.424  21.359  0.00  0.00    +0.000 A 
ATOM     17  C   UNL     1       1.823   2.490  21.774  0.00  0.00    +0.000 A 
ATOM     18  C   UNL     1       0.916   3.278  21.067  0.00  0.00    +0.000 A 
ATOM     19  C   UNL     1       1.344   4.025  19.964  0.00  0.00    +0.000 A 
ENDBRANCH   5  14
BRANCH   2  20
ATOM     20  P   UNL     1       5.785   5.803  16.276  0.00  0.00    +0.000 P 
ATOM     21  O   UNL     1       5.179   6.432  15.022  0.00  0.00    +0.000 OA
BRANCH  20  22
ATOM     22  O   UNL     1       7.389   5.803  15.626  0.00  0.00    +0.000 OA
ATOM     23  C   UNL     1       7.719   5.224  14.373  0.00  0.00    +0.000 C 
ENDBRANCH  20  22
BRANCH  20  24
ATOM     24  C   UNL     1       6.356   7.210  17.490  0.00  0.00    +0.000 C 
BRANCH  24  25
ATOM     25  C   UNL     1       7.827   7.390  17.840  0.00  0.00    +0.000 C 
BRANCH  25  26
ATOM     26  C   UNL     1       8.192   8.823  18.184  0.00  0.00    +0.000 A 
ATOM     27  C   UNL     1       9.075   9.130  19.233  0.00  0.00    +0.000 A 
ATOM     28  C   UNL     1       9.501  10.443  19.446  0.00  0.00    +0.000 A 
ATOM     29  C   UNL     1       9.061  11.463  18.609  0.00  0.00    +0.000 A 
ATOM     30  C   UNL     1       8.173  11.176  17.575  0.00  0.00    +0.000 A 
ATOM     31  C   UNL     1       7.738   9.866  17.366  0.00  0.00    +0.000 A 
ENDBRANCH  25  26
ENDBRANCH  24  25
ENDBRANCH  20  24
ENDBRANCH   2  20
TORSDOF 8
ENDMDL
MODEL 5
REMARK VINA RESULT:      -8.0      1.686      4.196
REMARK  Name = 
REMARK  10 active torsions:
REMARK  status: ('A' for Active; 'I' for Inactive)
REMARK    1  A    between atoms: C_1  and  O_2
REMARK    2  A    between atoms: O_2  and  C_3
REMARK    3  A    between atoms: C_6  and  C_7
REMARK    4  A    between atoms: C_8  and  P_9
REMARK    5  A    between atoms: P_9  and  C_11
REMARK    6  A    between atoms: P_9  and  O_19
REMARK    7  A    between atoms: C_11  and  C_12
REMARK    8  A    between atoms: C_12  and  C_13
REMARK    9  A    between atoms: O_19  and  C_20
REMARK   10  A    between atoms: N_23  and  C_24
REMARK                            x       y       z     vdW  Elec       q    Type
REMARK                         _______ _______ _______ _____ _____    ______ ____
ROOT
ATOM      1  C   UNL     1       3.732   6.122  18.434  0.00  0.00    +0.000 C 
ATOM      2  C   UNL     1       4.063   5.799  16.953  0.00  0.00    +0.000 C 
ATOM      3  C   UNL     1       3.474   4.405  17.251  0.00  0.00    +0.000 C 
ATOM      4  O   UNL     1       3.315   3.371  16.636  0.00  0.00    +0.000 OA
ATOM      5  N   UNL     1       3.120   4.785  18.508  0.00  0.00    +0.000 N 
ENDROOT
BRANCH   1   9
ATOM      6  C   UNL     1       1.155   9.685  19.126  0.00  0.00    +0.000 A 
ATOM      7  C   UNL     1       1.797   9.513  17.903  0.00  0.00    +0.000 A 
ATOM      8  C   UNL     1       2.577   8.375  17.667  0.00  0.00    +0.000 A 
ATOM      9  C   UNL     1       2.770   7.381  18.652  0.00  0.00    +0.000 A 
ATOM     10  C   UNL     1       2.098   7.584  19.871  0.00  0.00    +0.000 A 
ATOM     11  C   UNL     1       1.305   8.713  20.110  0.00  0.00    +0.000 A 
BRANCH   6  13
ATOM     12  C   UNL     1      -0.855  10.850  18.688  0.00  0.00    +0.000 C 
ATOM     13  O   UNL     1       0.448  10.847  19.258  0.00  0.00    +0.000 OA
ENDBRANCH   6  13
ENDBRANCH   1   9
BRANCH   5  14
ATOM     14  C   UNL     1       2.703   4.033  19.605  0.00  0.00    +0.000 A 
ATOM     15  C   UNL     1       1.374   4.091  20.051  0.00  0.00    +0.000 A 
ATOM     16  C   UNL     1       0.937   3.283  21.100  0.00  0.00    +0.000 A 
ATOM     17  C   UNL     1       1.828   2.432  21.743  0.00  0.00    +0.000 A 
ATOM     18  C   UNL     1       3.162   2.396  21.339  0.00  0.00    +0.000 A 
ATOM     19  C   UNL     1       3.594   3.186  20.270  0.00  0.00    +0.000 A 
ENDBRANCH   5  14
BRANCH   2  20
ATOM     20  P   UNL     1       5.762   5.829  16.271  0.00  0.00    +0.000 P 
ATOM     21  O   UNL     1       5.167   6.562  15.069  0.00  0.00    +0.000 OA
BRANCH  20  22
ATOM     22  O   UNL     1       7.367   5.857  15.625  0.00  0.00    +0.000 OA
ATOM     23  C   UNL     1       7.723   5.235  14.401  0.00  0.00    +0.000 C 
ENDBRANCH  20  22
BRANCH  20  24
ATOM     24  C   UNL     1       6.349   7.131  17.591  0.00  0.00    +0.000 C 
BRANCH  24  25
ATOM     25  C   UNL     1       7.829   7.331  17.886  0.00  0.00    +0.000 C 
BRANCH  25  26
ATOM     26  C   UNL     1       8.188   8.770  18.211  0.00  0.00    +0.000 A 
ATOM     27  C   UNL     1       9.042   9.096  19.278  0.00  0.00    +0.000 A 
ATOM     28  C   UNL     1       9.465  10.412  19.477  0.00  0.00    +0.000 A 
ATOM     29  C   UNL     1       9.052  11.416  18.607  0.00  0.00    +0.000 A 
ATOM     30  C   UNL     1       8.193  11.110  17.554  0.00  0.00    +0.000 A 
ATOM     31  C   UNL     1       7.760   9.797  17.359  0.00  0.00    +0.000 A 
ENDBRANCH  25  26
ENDBRANCH  24  25
ENDBRANCH  20  24
ENDBRANCH   2  20
TORSDOF 8
ENDMDL
MODEL 6
REMARK VINA RESULT:      -7.9      0.317      1.521
REMARK  Name = 
REMARK  10 active torsions:
REMARK  status: ('A' for Active; 'I' for Inactive)
REMARK    1  A    between atoms: C_1  and  O_2
REMARK    2  A    between atoms: O_2  and  C_3
REMARK    3  A    between atoms: C_6  and  C_7
REMARK    4  A    between atoms: C_8  and  P_9
REMARK    5  A    between atoms: P_9  and  C_11
REMARK    6  A    between atoms: P_9  and  O_19
REMARK    7  A    between atoms: C_11  and  C_12
REMARK    8  A    between atoms: C_12  and  C_13
REMARK    9  A    between atoms: O_19  and  C_20
REMARK   10  A    between atoms: N_23  and  C_24
REMARK                            x       y       z     vdW  Elec       q    Type
REMARK                         _______ _______ _______ _____ _____    ______ ____
ROOT
ATOM      1  C   UNL     1       3.378   6.774  19.119  0.00  0.00    +0.000 C 
ATOM      2  C   UNL     1       4.160   6.717  17.780  0.00  0.00    +0.000 C 
ATOM      3  C   UNL     1       3.702   5.245  17.715  0.00  0.00    +0.000 C 
ATOM      4  O   UNL     1       3.866   4.310  16.960  0.00  0.00    +0.000 OA
ATOM      5  N   UNL     1       2.955   5.392  18.842  0.00  0.00    +0.000 N 
ENDROOT
BRANCH   1   9
ATOM      6  C   UNL     1       0.105   9.790  19.237  0.00  0.00    +0.000 A 
ATOM      7  C   UNL     1       0.460   9.097  20.391  0.00  0.00    +0.000 A 
ATOM      8  C   UNL     1       1.514   8.177  20.369  0.00  0.00    +0.000 A 
ATOM      9  C   UNL     1       2.233   7.890  19.187  0.00  0.00    +0.000 A 
ATOM     10  C   UNL     1       1.853   8.615  18.043  0.00  0.00    +0.000 A 
ATOM     11  C   UNL     1       0.809   9.548  18.060  0.00  0.00    +0.000 A 
BRANCH   6  13
ATOM     12  C   UNL     1      -1.058  11.664  18.386  0.00  0.00    +0.000 C 
ATOM     13  O   UNL     1      -0.959  10.638  19.366  0.00  0.00    +0.000 OA
ENDBRANCH   6  13
ENDBRANCH   1   9
BRANCH   5  14
ATOM     14  C   UNL     1       2.346   4.443  19.662  0.00  0.00    +0.000 A 
ATOM     15  C   UNL     1       2.872   4.144  20.927  0.00  0.00    +0.000 A 
ATOM     16  C   UNL     1       2.222   3.251  21.779  0.00  0.00    +0.000 A 
ATOM     17  C   UNL     1       1.057   2.616  21.365  0.00  0.00    +0.000 A 
ATOM     18  C   UNL     1       0.546   2.871  20.094  0.00  0.00    +0.000 A 
ATOM     19  C   UNL     1       1.183   3.786  19.250  0.00  0.00    +0.000 A 
ENDBRANCH   5  14
BRANCH   2  20
ATOM     20  P   UNL     1       5.962   7.009  17.653  0.00  0.00    +0.000 P 
ATOM     21  O   UNL     1       6.121   5.905  18.697  0.00  0.00    +0.000 OA
BRANCH  20  22
ATOM     22  O   UNL     1       7.667   7.285  17.535  0.00  0.00    +0.000 OA
ATOM     23  C   UNL     1       8.263   8.557  17.735  0.00  0.00    +0.000 C 
ENDBRANCH  20  22
BRANCH  20  24
ATOM     24  C   UNL     1       6.040   6.228  15.874  0.00  0.00    +0.000 C 
BRANCH  24  25
ATOM     25  C   UNL     1       6.958   5.051  15.577  0.00  0.00    +0.000 C 
BRANCH  25  26
ATOM     26  C   UNL     1       6.826   4.529  14.158  0.00  0.00    +0.000 A 
ATOM     27  C   UNL     1       5.802   3.641  13.789  0.00  0.00    +0.000 A 
ATOM     28  C   UNL     1       5.619   3.277  12.453  0.00  0.00    +0.000 A 
ATOM     29  C   UNL     1       6.447   3.806  11.467  0.00  0.00    +0.000 A 
ATOM     30  C   UNL     1       7.477   4.675  11.821  0.00  0.00    +0.000 A 
ATOM     31  C   UNL     1       7.668   5.031  13.157  0.00  0.00    +0.000 A 
ENDBRANCH  25  26
ENDBRANCH  24  25
ENDBRANCH  20  24
ENDBRANCH   2  20
TORSDOF 8
ENDMDL
MODEL 7
REMARK VINA RESULT:      -7.8      0.579      1.352
REMARK  Name = 
REMARK  10 active torsions:
REMARK  status: ('A' for Active; 'I' for Inactive)
REMARK    1  A    between atoms: C_1  and  O_2
REMARK    2  A    between atoms: O_2  and  C_3
REMARK    3  A    between atoms: C_6  and  C_7
REMARK    4  A    between atoms: C_8  and  P_9
REMARK    5  A    between atoms: P_9  and  C_11
REMARK    6  A    between atoms: P_9  and  O_19
REMARK    7  A    between atoms: C_11  and  C_12
REMARK    8  A    between atoms: C_12  and  C_13
REMARK    9  A    between atoms: O_19  and  C_20
REMARK   10  A    between atoms: N_23  and  C_24
REMARK                            x       y       z     vdW  Elec       q    Type
REMARK                         _______ _______ _______ _____ _____    ______ ____
ROOT
ATOM      1  C   UNL     1       3.222   6.874  19.033  0.00  0.00    +0.000 C 
ATOM      2  C   UNL     1       3.910   6.826  17.642  0.00  0.00    +0.000 C 
ATOM      3  C   UNL     1       3.477   5.345  17.614  0.00  0.00    +0.000 C 
ATOM      4  O   UNL     1       3.606   4.409  16.853  0.00  0.00    +0.000 OA
ATOM      5  N   UNL     1       2.808   5.482  18.790  0.00  0.00    +0.000 N 
ENDROOT
BRANCH   1   9
ATOM      6  C   UNL     1       0.093  10.007  19.498  0.00  0.00    +0.000 A 
ATOM      7  C   UNL     1       0.674   9.776  18.254  0.00  0.00    +0.000 A 
ATOM      8  C   UNL     1       1.629   8.767  18.094  0.00  0.00    +0.000 A 
ATOM      9  C   UNL     1       2.064   7.969  19.176  0.00  0.00    +0.000 A 
ATOM     10  C   UNL     1       1.449   8.223  20.415  0.00  0.00    +0.000 A 
ATOM     11  C   UNL     1       0.482   9.222  20.580  0.00  0.00    +0.000 A 
BRANCH   6  13
ATOM     12  C   UNL     1      -1.011  11.621  20.827  0.00  0.00    +0.000 C 
ATOM     13  O   UNL     1      -0.802  11.038  19.546  0.00  0.00    +0.000 OA
ENDBRANCH   6  13
ENDBRANCH   1   9
BRANCH   5  14
ATOM     14  C   UNL     1       2.275   4.526  19.653  0.00  0.00    +0.000 A 
ATOM     15  C   UNL     1       2.824   4.325  20.928  0.00  0.00    +0.000 A 
ATOM     16  C   UNL     1       2.246   3.423  21.821  0.00  0.00    +0.000 A 
ATOM     17  C   UNL     1       1.134   2.681  21.440  0.00  0.00    +0.000 A 
ATOM     18  C   UNL     1       0.604   2.839  20.161  0.00  0.00    +0.000 A 
ATOM     19  C   UNL     1       1.167   3.763  19.275  0.00  0.00    +0.000 A 
ENDBRANCH   5  14
BRANCH   2  20
ATOM     20  P   UNL     1       5.693   7.151  17.390  0.00  0.00    +0.000 P 
ATOM     21  O   UNL     1       5.939   6.195  18.557  0.00  0.00    +0.000 OA
BRANCH  20  22
ATOM     22  O   UNL     1       7.380   7.459  17.153  0.00  0.00    +0.000 OA
ATOM     23  C   UNL     1       8.315   7.519  18.218  0.00  0.00    +0.000 C 
ENDBRANCH  20  22
BRANCH  20  24
ATOM     24  C   UNL     1       5.717   6.151  15.723  0.00  0.00    +0.000 C 
BRANCH  24  25
ATOM     25  C   UNL     1       6.886   5.240  15.375  0.00  0.00    +0.000 C 
BRANCH  25  26
ATOM     26  C   UNL     1       6.737   4.558  14.027  0.00  0.00    +0.000 A 
ATOM     27  C   UNL     1       5.652   3.712  13.743  0.00  0.00    +0.000 A 
ATOM     28  C   UNL     1       5.463   3.202  12.456  0.00  0.00    +0.000 A 
ATOM     29  C   UNL     1       6.346   3.539  11.435  0.00  0.00    +0.000 A 
ATOM     30  C   UNL     1       7.435   4.365  11.707  0.00  0.00    +0.000 A 
ATOM     31  C   UNL     1       7.632   4.868  12.995  0.00  0.00    +0.000 A 
ENDBRANCH  25  26
ENDBRANCH  24  25
ENDBRANCH  20  24
ENDBRANCH   2  20
TORSDOF 8
ENDMDL
MODEL 8
REMARK VINA RESULT:      -7.8      1.735      4.307
REMARK  Name = 
REMARK  10 active torsions:
REMARK  status: ('A' for Active; 'I' for Inactive)
REMARK    1  A    between atoms: C_1  and  O_2
REMARK    2  A    between atoms: O_2  and  C_3
REMARK    3  A    between atoms: C_6  and  C_7
REMARK    4  A    between atoms: C_8  and  P_9
REMARK    5  A    between atoms: P_9  and  C_11
REMARK    6  A    between atoms: P_9  and  O_19
REMARK    7  A    between atoms: C_11  and  C_12
REMARK    8  A    between atoms: C_12  and  C_13
REMARK    9  A    between atoms: O_19  and  C_20
REMARK   10  A    between atoms: N_23  and  C_24
REMARK                            x       y       z     vdW  Elec       q    Type
REMARK                         _______ _______ _______ _____ _____    ______ ____
ROOT
ATOM      1  C   UNL     1       3.835   6.062  18.444  0.00  0.00    +0.000 C 
ATOM      2  C   UNL     1       4.180   5.741  16.965  0.00  0.00    +0.000 C 
ATOM      3  C   UNL     1       3.507   4.378  17.231  0.00  0.00    +0.000 C 
ATOM      4  O   UNL     1       3.303   3.363  16.598  0.00  0.00    +0.000 OA
ATOM      5  N   UNL     1       3.148   4.761  18.486  0.00  0.00    +0.000 N 
ENDROOT
BRANCH   1   9
ATOM      6  C   UNL     1       1.246   9.647  18.958  0.00  0.00    +0.000 A 
ATOM      7  C   UNL     1       1.368   8.718  19.987  0.00  0.00    +0.000 A 
ATOM      8  C   UNL     1       2.211   7.611  19.846  0.00  0.00    +0.000 A 
ATOM      9  C   UNL     1       2.941   7.371  18.660  0.00  0.00    +0.000 A 
ATOM     10  C   UNL     1       2.801   8.335  17.645  0.00  0.00    +0.000 A 
ATOM     11  C   UNL     1       1.970   9.453  17.785  0.00  0.00    +0.000 A 
BRANCH   6  13
ATOM     12  C   UNL     1      -0.761  10.349  19.991  0.00  0.00    +0.000 C 
ATOM     13  O   UNL     1       0.371  10.670  19.192  0.00  0.00    +0.000 OA
ENDBRANCH   6  13
ENDBRANCH   1   9
BRANCH   5  14
ATOM     14  C   UNL     1       2.665   4.019  19.563  0.00  0.00    +0.000 A 
ATOM     15  C   UNL     1       1.297   4.013  19.874  0.00  0.00    +0.000 A 
ATOM     16  C   UNL     1       0.802   3.213  20.902  0.00  0.00    +0.000 A 
ATOM     17  C   UNL     1       1.670   2.435  21.660  0.00  0.00    +0.000 A 
ATOM     18  C   UNL     1       3.037   2.464  21.390  0.00  0.00    +0.000 A 
ATOM     19  C   UNL     1       3.530   3.246  20.341  0.00  0.00    +0.000 A 
ENDBRANCH   5  14
BRANCH   2  20
ATOM     20  P   UNL     1       5.891   5.684  16.320  0.00  0.00    +0.000 P 
ATOM     21  O   UNL     1       5.296   6.064  14.966  0.00  0.00    +0.000 OA
BRANCH  20  22
ATOM     22  O   UNL     1       7.510   5.629  15.709  0.00  0.00    +0.000 OA
ATOM     23  C   UNL     1       7.817   5.386  14.346  0.00  0.00    +0.000 C 
ENDBRANCH  20  22
BRANCH  20  24
ATOM     24  C   UNL     1       6.388   7.300  17.281  0.00  0.00    +0.000 C 
BRANCH  24  25
ATOM     25  C   UNL     1       7.709   7.388  18.031  0.00  0.00    +0.000 C 
BRANCH  25  26
ATOM     26  C   UNL     1       8.230   8.807  18.167  0.00  0.00    +0.000 A 
ATOM     27  C   UNL     1       7.762   9.849  17.348  0.00  0.00    +0.000 A 
ATOM     28  C   UNL     1       8.155  11.169  17.578  0.00  0.00    +0.000 A 
ATOM     29  C   UNL     1       9.010  11.468  18.634  0.00  0.00    +0.000 A 
ATOM     30  C   UNL     1       9.495  10.443  19.444  0.00  0.00    +0.000 A 
ATOM     31  C   UNL     1       9.111   9.121  19.210  0.00  0.00    +0.000 A 
ENDBRANCH  25  26
ENDBRANCH  24  25
ENDBRANCH  20  24
ENDBRANCH   2  20
TORSDOF 8
ENDMDL
MODEL 9
REMARK VINA RESULT:      -7.4      5.403     10.765
REMARK  Name = 
REMARK  10 active torsions:
REMARK  status: ('A' for Active; 'I' for Inactive)
REMARK    1  A    between atoms: C_1  and  O_2
REMARK    2  A    between atoms: O_2  and  C_3
REMARK    3  A    between atoms: C_6  and  C_7
REMARK    4  A    between atoms: C_8  and  P_9
REMARK    5  A    between atoms: P_9  and  C_11
REMARK    6  A    between atoms: P_9  and  O_19
REMARK    7  A    between atoms: C_11  and  C_12
REMARK    8  A    between atoms: C_12  and  C_13
REMARK    9  A    between atoms: O_19  and  C_20
REMARK   10  A    between atoms: N_23  and  C_24
REMARK                            x       y       z     vdW  Elec       q    Type
REMARK                         _______ _______ _______ _____ _____    ______ ____
ROOT
ATOM      1  C   UNL     1      -0.965  10.927  19.764  0.00  0.00    +0.000 C 
ATOM      2  C   UNL     1      -0.561  12.375  20.152  0.00  0.00    +0.000 C 
ATOM      3  C   UNL     1       0.892  11.889  19.970  0.00  0.00    +0.000 C 
ATOM      4  O   UNL     1       1.999  12.371  20.091  0.00  0.00    +0.000 OA
ATOM      5  N   UNL     1       0.467  10.670  19.542  0.00  0.00    +0.000 N 
ENDROOT
BRANCH   1   9
ATOM      6  C   UNL     1      -3.614  10.736  16.191  0.00  0.00    +0.000 A 
ATOM      7  C   UNL     1      -2.486   9.924  16.271  0.00  0.00    +0.000 A 
ATOM      8  C   UNL     1      -1.672   9.952  17.408  0.00  0.00    +0.000 A 
ATOM      9  C   UNL     1      -1.935  10.813  18.497  0.00  0.00    +0.000 A 
ATOM     10  C   UNL     1      -3.087  11.612  18.386  0.00  0.00    +0.000 A 
ATOM     11  C   UNL     1      -3.915  11.580  17.257  0.00  0.00    +0.000 A 
BRANCH   6  13
ATOM     12  C   UNL     1      -3.616  10.094  13.916  0.00  0.00    +0.000 C 
ATOM     13  O   UNL     1      -4.316  10.652  15.022  0.00  0.00    +0.000 OA
ENDBRANCH   6  13
ENDBRANCH   1   9
BRANCH   5  14
ATOM     14  C   UNL     1       1.161   9.474  19.361  0.00  0.00    +0.000 A 
ATOM     15  C   UNL     1       1.818   9.203  18.152  0.00  0.00    +0.000 A 
ATOM     16  C   UNL     1       2.576   8.043  17.995  0.00  0.00    +0.000 A 
ATOM     17  C   UNL     1       2.658   7.119  19.030  0.00  0.00    +0.000 A 
ATOM     18  C   UNL     1       1.974   7.355  20.221  0.00  0.00    +0.000 A 
ATOM     19  C   UNL     1       1.237   8.531  20.388  0.00  0.00    +0.000 A 
ENDBRANCH   5  14
BRANCH   2  20
ATOM     20  P   UNL     1      -0.963  13.134  21.768  0.00  0.00    +0.000 P 
ATOM     21  O   UNL     1      -0.937  14.477  21.040  0.00  0.00    +0.000 OA
BRANCH  20  22
ATOM     22  O   UNL     1      -1.342  13.852  23.296  0.00  0.00    +0.000 OA
ATOM     23  C   UNL     1      -0.971  15.176  23.645  0.00  0.00    +0.000 C 
ENDBRANCH  20  22
BRANCH  20  24
ATOM     24  C   UNL     1      -2.772  12.421  21.738  0.00  0.00    +0.000 C 
BRANCH  24  25
ATOM     25  C   UNL     1      -3.953  13.303  21.361  0.00  0.00    +0.000 C 
BRANCH  25  26
ATOM     26  C   UNL     1      -5.252  12.887  22.028  0.00  0.00    +0.000 A 
ATOM     27  C   UNL     1      -5.430  12.974  23.419  0.00  0.00    +0.000 A 
ATOM     28  C   UNL     1      -6.674  12.714  23.997  0.00  0.00    +0.000 A 
ATOM     29  C   UNL     1      -7.759  12.376  23.194  0.00  0.00    +0.000 A 
ATOM     30  C   UNL     1      -7.593  12.270  21.814  0.00  0.00    +0.000 A 
ATOM     31  C   UNL     1      -6.347  12.520  21.235  0.00  0.00    +0.000 A 
ENDBRANCH  25  26
ENDBRANCH  24  25
ENDBRANCH  20  24
ENDBRANCH   2  20
TORSDOF 8
ENDMDL
