MODEL 1
REMARK VINA RESULT:      -8.5      0.000      0.000
REMARK  Name = 
REMARK  4 active torsions:
REMARK  status: ('A' for Active; 'I' for Inactive)
REMARK    1  A    between atoms: C_1  and  C_2
REMARK    2  A    between atoms: C_5  and  C_7
REMARK    3  A    between atoms: C_16  and  C_17
REMARK    4  A    between atoms: C_20  and  O_21
REMARK                            x       y       z     vdW  Elec       q    Type
REMARK                         _______ _______ _______ _____ _____    ______ ____
ROOT
ATOM      1  C   UNL     1       0.195   9.597  22.892  0.00  0.00    +0.000 C 
ATOM      2  C   UNL     1       0.677   9.652  21.488  0.00  0.00    +0.000 A 
ATOM      3  N   UNL     1       1.091   8.530  20.888  0.00  0.00    +0.000 NA
ATOM      4  N   UNL     1       1.527   8.924  19.656  0.00  0.00    +0.000 N 
ATOM      5  C   UNL     1       2.157   7.995  18.800  0.00  0.00    +0.000 C 
ATOM      6  O   UNL     1       2.799   8.435  17.847  0.00  0.00    +0.000 OA
ATOM      7  C   UNL     1       1.319  10.273  19.476  0.00  0.00    +0.000 A 
ATOM      8  C   UNL     1       0.777  10.778  20.632  0.00  0.00    +0.000 A 
ATOM      9  C   UNL     1       0.462  12.216  20.859  0.00  0.00    +0.000 C 
ATOM     10  S   UNL     1       0.825  13.334  19.467  0.00  0.00    +0.000 S 
ATOM     11  C   UNL     1       1.765  12.337  18.380  0.00  0.00    +0.000 C 
ATOM     12  N   UNL     1       2.561  12.954  17.576  0.00  0.00    +0.000 NA
ATOM     13  N   UNL     1       1.661  10.980  18.382  0.00  0.00    +0.000 N 
ATOM     14  H   UNL     1       2.480  13.953  17.798  0.00  0.00    +0.000 HD
ATOM     15  H   UNL     1       2.207  10.534  17.641  0.00  0.00    +0.000 HD
ENDROOT
BRANCH   5  16
ATOM     16  C   UNL     1       2.077   6.530  19.023  0.00  0.00    +0.000 A 
ATOM     17  C   UNL     1       2.084   5.664  17.923  0.00  0.00    +0.000 A 
ATOM     18  C   UNL     1       1.881   4.293  18.107  0.00  0.00    +0.000 A 
ATOM     19  C   UNL     1       1.706   3.793  19.389  0.00  0.00    +0.000 A 
ATOM     20 CL   UNL     1       1.374   2.119  19.603  0.00  0.00    +0.000 Cl
ATOM     21  C   UNL     1       1.772   4.639  20.500  0.00  0.00    +0.000 A 
ATOM     22  C   UNL     1       1.966   6.015  20.321  0.00  0.00    +0.000 A 
ENDBRANCH   5  16
BRANCH   9  23
ATOM     23  C   UNL     1      -1.008  12.279  21.254  0.00  0.00    +0.000 A 
ATOM     24  C   UNL     1      -2.000  12.259  20.256  0.00  0.00    +0.000 A 
ATOM     25  C   UNL     1      -3.356  12.351  20.589  0.00  0.00    +0.000 A 
ATOM     26  C   UNL     1      -3.728  12.459  21.924  0.00  0.00    +0.000 A 
ATOM     27  C   UNL     1      -2.772  12.465  22.930  0.00  0.00    +0.000 A 
ATOM     28  C   UNL     1      -1.419  12.367  22.599  0.00  0.00    +0.000 A 
BRANCH  26  29
ATOM     29  O   UNL     1      -5.037  12.558  22.291  0.00  0.00    +0.000 OA
ATOM     30  H   UNL     1      -5.270  11.785  22.830  0.00  0.00    +0.000 HD
ENDBRANCH  26  29
ENDBRANCH   9  23
TORSDOF 3
ENDMDL
MODEL 2
REMARK VINA RESULT:      -8.3      0.431      1.016
REMARK  Name = 
REMARK  4 active torsions:
REMARK  status: ('A' for Active; 'I' for Inactive)
REMARK    1  A    between atoms: C_1  and  C_2
REMARK    2  A    between atoms: C_5  and  C_7
REMARK    3  A    between atoms: C_16  and  C_17
REMARK    4  A    between atoms: C_20  and  O_21
REMARK                            x       y       z     vdW  Elec       q    Type
REMARK                         _______ _______ _______ _____ _____    ______ ____
ROOT
ATOM      1  C   UNL     1      -0.244   9.858  22.658  0.00  0.00    +0.000 C 
ATOM      2  C   UNL     1       0.371   9.878  21.305  0.00  0.00    +0.000 A 
ATOM      3  N   UNL     1       0.860   8.747  20.785  0.00  0.00    +0.000 NA
ATOM      4  N   UNL     1       1.406   9.111  19.589  0.00  0.00    +0.000 N 
ATOM      5  C   UNL     1       2.133   8.168  18.829  0.00  0.00    +0.000 C 
ATOM      6  O   UNL     1       2.857   8.591  17.928  0.00  0.00    +0.000 OA
ATOM      7  C   UNL     1       1.194  10.448  19.345  0.00  0.00    +0.000 A 
ATOM      8  C   UNL     1       0.533  10.979  20.426  0.00  0.00    +0.000 A 
ATOM      9  C   UNL     1       0.173  12.416  20.573  0.00  0.00    +0.000 C 
ATOM     10  S   UNL     1       0.649  13.497  19.186  0.00  0.00    +0.000 S 
ATOM     11  C   UNL     1       1.707  12.486  18.228  0.00  0.00    +0.000 C 
ATOM     12  N   UNL     1       2.567  13.093  17.485  0.00  0.00    +0.000 NA
ATOM     13  N   UNL     1       1.627  11.127  18.266  0.00  0.00    +0.000 N 
ATOM     14  H   UNL     1       2.447  14.097  17.664  0.00  0.00    +0.000 HD
ATOM     15  H   UNL     1       2.250  10.670  17.596  0.00  0.00    +0.000 HD
ENDROOT
BRANCH   5  16
ATOM     16  C   UNL     1       2.057   6.710  19.092  0.00  0.00    +0.000 A 
ATOM     17  C   UNL     1       2.134   5.811  18.021  0.00  0.00    +0.000 A 
ATOM     18  C   UNL     1       1.937   4.444  18.235  0.00  0.00    +0.000 A 
ATOM     19  C   UNL     1       1.698   3.981  19.521  0.00  0.00    +0.000 A 
ATOM     20 CL   UNL     1       1.373   2.310  19.767  0.00  0.00    +0.000 Cl
ATOM     21  C   UNL     1       1.693   4.860  20.608  0.00  0.00    +0.000 A 
ATOM     22  C   UNL     1       1.882   6.232  20.397  0.00  0.00    +0.000 A 
ENDBRANCH   5  16
BRANCH   9  23
ATOM     23  C   UNL     1      -1.330  12.461  20.823  0.00  0.00    +0.000 A 
ATOM     24  C   UNL     1      -1.815  12.775  22.106  0.00  0.00    +0.000 A 
ATOM     25  C   UNL     1      -3.188  12.789  22.371  0.00  0.00    +0.000 A 
ATOM     26  C   UNL     1      -4.086  12.496  21.352  0.00  0.00    +0.000 A 
ATOM     27  C   UNL     1      -3.637  12.199  20.072  0.00  0.00    +0.000 A 
ATOM     28  C   UNL     1      -2.266  12.190  19.806  0.00  0.00    +0.000 A 
BRANCH  26  29
ATOM     29  O   UNL     1      -5.432  12.492  21.569  0.00  0.00    +0.000 OA
ATOM     30  H   UNL     1      -5.652  11.745  22.149  0.00  0.00    +0.000 HD
ENDBRANCH  26  29
ENDBRANCH   9  23
TORSDOF 3
ENDMDL
MODEL 3
REMARK VINA RESULT:      -8.3      0.176      1.327
REMARK  Name = 
REMARK  4 active torsions:
REMARK  status: ('A' for Active; 'I' for Inactive)
REMARK    1  A    between atoms: C_1  and  C_2
REMARK    2  A    between atoms: C_5  and  C_7
REMARK    3  A    between atoms: C_16  and  C_17
REMARK    4  A    between atoms: C_20  and  O_21
REMARK                            x       y       z     vdW  Elec       q    Type
REMARK                         _______ _______ _______ _____ _____    ______ ____
ROOT
ATOM      1  C   UNL     1       0.170   9.619  22.877  0.00  0.00    +0.000 C 
ATOM      2  C   UNL     1       0.664   9.659  21.476  0.00  0.00    +0.000 A 
ATOM      3  N   UNL     1       1.043   8.524  20.877  0.00  0.00    +0.000 NA
ATOM      4  N   UNL     1       1.500   8.903  19.649  0.00  0.00    +0.000 N 
ATOM      5  C   UNL     1       2.104   7.953  18.796  0.00  0.00    +0.000 C 
ATOM      6  O   UNL     1       2.767   8.372  17.848  0.00  0.00    +0.000 OA
ATOM      7  C   UNL     1       1.340  10.258  19.469  0.00  0.00    +0.000 A 
ATOM      8  C   UNL     1       0.807  10.782  20.621  0.00  0.00    +0.000 A 
ATOM      9  C   UNL     1       0.541  12.228  20.848  0.00  0.00    +0.000 C 
ATOM     10  S   UNL     1       0.951  13.335  19.459  0.00  0.00    +0.000 S 
ATOM     11  C   UNL     1       1.864  12.307  18.377  0.00  0.00    +0.000 C 
ATOM     12  N   UNL     1       2.686  12.897  17.579  0.00  0.00    +0.000 NA
ATOM     13  N   UNL     1       1.713  10.954  18.378  0.00  0.00    +0.000 N 
ATOM     14  H   UNL     1       2.638  13.898  17.801  0.00  0.00    +0.000 HD
ATOM     15  H   UNL     1       2.248  10.490  17.640  0.00  0.00    +0.000 HD
ENDROOT
BRANCH   5  16
ATOM     16  C   UNL     1       1.971   6.493  19.017  0.00  0.00    +0.000 A 
ATOM     17  C   UNL     1       1.944   5.993  20.325  0.00  0.00    +0.000 A 
ATOM     18  C   UNL     1       1.949   4.613  20.551  0.00  0.00    +0.000 A 
ATOM     19  C   UNL     1       1.946   3.744  19.471  0.00  0.00    +0.000 A 
ATOM     20 CL   UNL     1       2.036   2.049  19.752  0.00  0.00    +0.000 Cl
ATOM     21  C   UNL     1       1.898   4.231  18.161  0.00  0.00    +0.000 A 
ATOM     22  C   UNL     1       1.902   5.613  17.930  0.00  0.00    +0.000 A 
ENDBRANCH   5  16
BRANCH   9  23
ATOM     23  C   UNL     1      -0.929  12.342  21.233  0.00  0.00    +0.000 A 
ATOM     24  C   UNL     1      -1.284  12.538  22.581  0.00  0.00    +0.000 A 
ATOM     25  C   UNL     1      -2.627  12.611  22.967  0.00  0.00    +0.000 A 
ATOM     26  C   UNL     1      -3.623  12.494  22.006  0.00  0.00    +0.000 A 
ATOM     27  C   UNL     1      -3.302  12.317  20.667  0.00  0.00    +0.000 A 
ATOM     28  C   UNL     1      -1.962  12.249  20.280  0.00  0.00    +0.000 A 
BRANCH  26  29
ATOM     29  O   UNL     1      -4.944  12.552  22.340  0.00  0.00    +0.000 OA
ATOM     30  H   UNL     1      -5.474  12.336  21.557  0.00  0.00    +0.000 HD
ENDBRANCH  26  29
ENDBRANCH   9  23
TORSDOF 3
ENDMDL
MODEL 4
REMARK VINA RESULT:      -8.2      0.627      1.167
REMARK  Name = 
REMARK  4 active torsions:
REMARK  status: ('A' for Active; 'I' for Inactive)
REMARK    1  A    between atoms: C_1  and  C_2
REMARK    2  A    between atoms: C_5  and  C_7
REMARK    3  A    between atoms: C_16  and  C_17
REMARK    4  A    between atoms: C_20  and  O_21
REMARK                            x       y       z     vdW  Elec       q    Type
REMARK                         _______ _______ _______ _____ _____    ______ ____
ROOT
ATOM      1  C   UNL     1      -0.506   9.597  22.371  0.00  0.00    +0.000 C 
ATOM      2  C   UNL     1       0.260   9.632  21.098  0.00  0.00    +0.000 A 
ATOM      3  N   UNL     1       0.758   8.496  20.596  0.00  0.00    +0.000 NA
ATOM      4  N   UNL     1       1.451   8.872  19.483  0.00  0.00    +0.000 N 
ATOM      5  C   UNL     1       2.219   7.921  18.775  0.00  0.00    +0.000 C 
ATOM      6  O   UNL     1       3.058   8.339  17.977  0.00  0.00    +0.000 OA
ATOM      7  C   UNL     1       1.324  10.225  19.265  0.00  0.00    +0.000 A 
ATOM      8  C   UNL     1       0.568  10.751  20.283  0.00  0.00    +0.000 A 
ATOM      9  C   UNL     1       0.254  12.197  20.441  0.00  0.00    +0.000 C 
ATOM     10  S   UNL     1       0.930  13.299  19.157  0.00  0.00    +0.000 S 
ATOM     11  C   UNL     1       2.047  12.271  18.288  0.00  0.00    +0.000 C 
ATOM     12  N   UNL     1       3.010  12.861  17.669  0.00  0.00    +0.000 NA
ATOM     13  N   UNL     1       1.906  10.917  18.267  0.00  0.00    +0.000 N 
ATOM     14  H   UNL     1       2.913  13.863  17.870  0.00  0.00    +0.000 HD
ATOM     15  H   UNL     1       2.581  10.452  17.655  0.00  0.00    +0.000 HD
ENDROOT
BRANCH   5  16
ATOM     16  C   UNL     1       2.053   6.461  18.975  0.00  0.00    +0.000 A 
ATOM     17  C   UNL     1       1.973   5.947  20.275  0.00  0.00    +0.000 A 
ATOM     18  C   UNL     1       1.945   4.565  20.485  0.00  0.00    +0.000 A 
ATOM     19  C   UNL     1       1.960   3.708  19.395  0.00  0.00    +0.000 A 
ATOM     20 CL   UNL     1       2.009   2.009  19.660  0.00  0.00    +0.000 Cl
ATOM     21  C   UNL     1       1.964   4.210  18.091  0.00  0.00    +0.000 A 
ATOM     22  C   UNL     1       2.002   5.595  17.875  0.00  0.00    +0.000 A 
ENDBRANCH   5  16
BRANCH   9  23
ATOM     23  C   UNL     1      -1.264  12.304  20.522  0.00  0.00    +0.000 A 
ATOM     24  C   UNL     1      -2.042  12.072  19.371  0.00  0.00    +0.000 A 
ATOM     25  C   UNL     1      -3.435  12.198  19.409  0.00  0.00    +0.000 A 
ATOM     26  C   UNL     1      -4.060  12.550  20.600  0.00  0.00    +0.000 A 
ATOM     27  C   UNL     1      -3.319  12.769  21.753  0.00  0.00    +0.000 A 
ATOM     28  C   UNL     1      -1.929  12.639  21.718  0.00  0.00    +0.000 A 
BRANCH  26  29
ATOM     29  O   UNL     1      -5.413  12.690  20.677  0.00  0.00    +0.000 OA
ATOM     30  H   UNL     1      -5.820  11.809  20.653  0.00  0.00    +0.000 HD
ENDBRANCH  26  29
ENDBRANCH   9  23
TORSDOF 3
ENDMDL
MODEL 5
REMARK VINA RESULT:      -7.3      2.873      4.142
REMARK  Name = 
REMARK  4 active torsions:
REMARK  status: ('A' for Active; 'I' for Inactive)
REMARK    1  A    between atoms: C_1  and  C_2
REMARK    2  A    between atoms: C_5  and  C_7
REMARK    3  A    between atoms: C_16  and  C_17
REMARK    4  A    between atoms: C_20  and  O_21
REMARK                            x       y       z     vdW  Elec       q    Type
REMARK                         _______ _______ _______ _____ _____    ______ ____
ROOT
ATOM      1  C   UNL     1      -0.289  10.631  17.427  0.00  0.00    +0.000 C 
ATOM      2  C   UNL     1       0.293   9.947  18.611  0.00  0.00    +0.000 A 
ATOM      3  N   UNL     1       1.060   8.864  18.437  0.00  0.00    +0.000 NA
ATOM      4  N   UNL     1       1.373   8.442  19.696  0.00  0.00    +0.000 N 
ATOM      5  C   UNL     1       2.074   7.230  19.880  0.00  0.00    +0.000 C 
ATOM      6  O   UNL     1       2.073   6.730  21.005  0.00  0.00    +0.000 OA
ATOM      7  C   UNL     1       0.856   9.301  20.638  0.00  0.00    +0.000 A 
ATOM      8  C   UNL     1       0.153  10.281  19.982  0.00  0.00    +0.000 A 
ATOM      9  C   UNL     1      -0.609  11.369  20.655  0.00  0.00    +0.000 C 
ATOM     10  S   UNL     1      -0.555  11.362  22.476  0.00  0.00    +0.000 S 
ATOM     11  C   UNL     1       0.157   9.810  22.855  0.00  0.00    +0.000 C 
ATOM     12  N   UNL     1      -0.120   9.317  24.013  0.00  0.00    +0.000 NA
ATOM     13  N   UNL     1       0.962   9.157  21.973  0.00  0.00    +0.000 N 
ATOM     14  H   UNL     1      -0.765   9.977  24.463  0.00  0.00    +0.000 HD
ATOM     15  H   UNL     1       1.370   8.302  22.359  0.00  0.00    +0.000 HD
ENDROOT
BRANCH   5  16
ATOM     16  C   UNL     1       2.786   6.550  18.771  0.00  0.00    +0.000 A 
ATOM     17  C   UNL     1       2.492   5.212  18.479  0.00  0.00    +0.000 A 
ATOM     18  C   UNL     1       3.241   4.519  17.524  0.00  0.00    +0.000 A 
ATOM     19  C   UNL     1       4.256   5.176  16.843  0.00  0.00    +0.000 A 
ATOM     20 CL   UNL     1       5.230   4.298  15.730  0.00  0.00    +0.000 Cl
ATOM     21  C   UNL     1       4.510   6.531  17.073  0.00  0.00    +0.000 A 
ATOM     22  C   UNL     1       3.767   7.228  18.036  0.00  0.00    +0.000 A 
ENDBRANCH   5  16
BRANCH   9  23
ATOM     23  C   UNL     1      -0.080  12.681  20.088  0.00  0.00    +0.000 A 
ATOM     24  C   UNL     1       1.282  13.004  20.230  0.00  0.00    +0.000 A 
ATOM     25  C   UNL     1       1.786  14.217  19.750  0.00  0.00    +0.000 A 
ATOM     26  C   UNL     1       0.932  15.113  19.119  0.00  0.00    +0.000 A 
ATOM     27  C   UNL     1      -0.413  14.814  18.950  0.00  0.00    +0.000 A 
ATOM     28  C   UNL     1      -0.916  13.600  19.424  0.00  0.00    +0.000 A 
BRANCH  26  29
ATOM     29  O   UNL     1       1.381  16.309  18.644  0.00  0.00    +0.000 OA
ATOM     30  H   UNL     1       0.640  16.778  18.227  0.00  0.00    +0.000 HD
ENDBRANCH  26  29
ENDBRANCH   9  23
TORSDOF 3
ENDMDL
MODEL 6
REMARK VINA RESULT:      -7.2      3.823      7.752
REMARK  Name = 
REMARK  4 active torsions:
REMARK  status: ('A' for Active; 'I' for Inactive)
REMARK    1  A    between atoms: C_1  and  C_2
REMARK    2  A    between atoms: C_5  and  C_7
REMARK    3  A    between atoms: C_16  and  C_17
REMARK    4  A    between atoms: C_20  and  O_21
REMARK                            x       y       z     vdW  Elec       q    Type
REMARK                         _______ _______ _______ _____ _____    ______ ____
ROOT
ATOM      1  C   UNL     1      -2.039  10.003  18.196  0.00  0.00    +0.000 C 
ATOM      2  C   UNL     1      -1.651  11.247  18.910  0.00  0.00    +0.000 A 
ATOM      3  N   UNL     1      -2.557  11.889  19.657  0.00  0.00    +0.000 NA
ATOM      4  N   UNL     1      -1.918  13.006  20.110  0.00  0.00    +0.000 N 
ATOM      5  C   UNL     1      -2.635  13.985  20.833  0.00  0.00    +0.000 C 
ATOM      6  O   UNL     1      -2.122  15.096  20.960  0.00  0.00    +0.000 OA
ATOM      7  C   UNL     1      -0.605  13.016  19.698  0.00  0.00    +0.000 A 
ATOM      8  C   UNL     1      -0.394  11.903  18.921  0.00  0.00    +0.000 A 
ATOM      9  C   UNL     1       0.887  11.583  18.235  0.00  0.00    +0.000 C 
ATOM     10  S   UNL     1       2.241  12.775  18.491  0.00  0.00    +0.000 S 
ATOM     11  C   UNL     1       1.445  14.136  19.248  0.00  0.00    +0.000 C 
ATOM     12  N   UNL     1       2.009  15.286  19.104  0.00  0.00    +0.000 NA
ATOM     13  N   UNL     1       0.290  13.989  19.952  0.00  0.00    +0.000 N 
ATOM     14  H   UNL     1       2.833  15.132  18.510  0.00  0.00    +0.000 HD
ATOM     15  H   UNL     1      -0.017  14.853  20.406  0.00  0.00    +0.000 HD
ENDROOT
BRANCH   5  16
ATOM     16  C   UNL     1      -3.970  13.716  21.421  0.00  0.00    +0.000 A 
ATOM     17  C   UNL     1      -4.081  13.455  22.792  0.00  0.00    +0.000 A 
ATOM     18  C   UNL     1      -5.309  13.076  23.339  0.00  0.00    +0.000 A 
ATOM     19  C   UNL     1      -6.426  12.992  22.520  0.00  0.00    +0.000 A 
ATOM     20 CL   UNL     1      -7.917  12.444  23.181  0.00  0.00    +0.000 Cl
ATOM     21  C   UNL     1      -6.344  13.322  21.164  0.00  0.00    +0.000 A 
ATOM     22  C   UNL     1      -5.112  13.695  20.609  0.00  0.00    +0.000 A 
ENDBRANCH   5  16
BRANCH   9  23
ATOM     23  C   UNL     1       1.284  10.184  18.691  0.00  0.00    +0.000 A 
ATOM     24  C   UNL     1       1.087   9.805  20.032  0.00  0.00    +0.000 A 
ATOM     25  C   UNL     1       1.475   8.540  20.485  0.00  0.00    +0.000 A 
ATOM     26  C   UNL     1       2.057   7.643  19.598  0.00  0.00    +0.000 A 
ATOM     27  C   UNL     1       2.249   7.983  18.266  0.00  0.00    +0.000 A 
ATOM     28  C   UNL     1       1.857   9.244  17.811  0.00  0.00    +0.000 A 
BRANCH  26  29
ATOM     29  O   UNL     1       2.456   6.403  20.000  0.00  0.00    +0.000 OA
ATOM     30  H   UNL     1       1.981   6.171  20.814  0.00  0.00    +0.000 HD
ENDBRANCH  26  29
ENDBRANCH   9  23
TORSDOF 3
ENDMDL
MODEL 7
REMARK VINA RESULT:      -7.1      1.956      2.887
REMARK  Name = 
REMARK  4 active torsions:
REMARK  status: ('A' for Active; 'I' for Inactive)
REMARK    1  A    between atoms: C_1  and  C_2
REMARK    2  A    between atoms: C_5  and  C_7
REMARK    3  A    between atoms: C_16  and  C_17
REMARK    4  A    between atoms: C_20  and  O_21
REMARK                            x       y       z     vdW  Elec       q    Type
REMARK                         _______ _______ _______ _____ _____    ______ ____
ROOT
ATOM      1  C   UNL     1      -1.203  10.828  23.140  0.00  0.00    +0.000 C 
ATOM      2  C   UNL     1      -0.670  11.263  21.823  0.00  0.00    +0.000 A 
ATOM      3  N   UNL     1       0.068  10.415  21.097  0.00  0.00    +0.000 NA
ATOM      4  N   UNL     1       0.454  11.127  19.999  0.00  0.00    +0.000 N 
ATOM      5  C   UNL     1       1.364  10.564  19.077  0.00  0.00    +0.000 C 
ATOM      6  O   UNL     1       1.919  11.322  18.282  0.00  0.00    +0.000 OA
ATOM      7  C   UNL     1      -0.099  12.387  20.018  0.00  0.00    +0.000 A 
ATOM      8  C   UNL     1      -0.827  12.515  21.176  0.00  0.00    +0.000 A 
ATOM      9  C   UNL     1      -1.533  13.756  21.597  0.00  0.00    +0.000 C 
ATOM     10  S   UNL     1      -1.403  15.167  20.451  0.00  0.00    +0.000 S 
ATOM     11  C   UNL     1      -0.164  14.662  19.324  0.00  0.00    +0.000 C 
ATOM     12  N   UNL     1       0.483  15.599  18.721  0.00  0.00    +0.000 NA
ATOM     13  N   UNL     1       0.103  13.347  19.096  0.00  0.00    +0.000 N 
ATOM     14  H   UNL     1       0.121  16.486  19.091  0.00  0.00    +0.000 HD
ATOM     15  H   UNL     1       0.793  13.200  18.355  0.00  0.00    +0.000 HD
ENDROOT
BRANCH   5  16
ATOM     16  C   UNL     1       1.669   9.113  19.050  0.00  0.00    +0.000 A 
ATOM     17  C   UNL     1       1.575   8.367  20.231  0.00  0.00    +0.000 A 
ATOM     18  C   UNL     1       1.981   7.029  20.253  0.00  0.00    +0.000 A 
ATOM     19  C   UNL     1       2.446   6.437  19.087  0.00  0.00    +0.000 A 
ATOM     20 CL   UNL     1       3.023   4.818  19.137  0.00  0.00    +0.000 Cl
ATOM     21  C   UNL     1       2.474   7.151  17.886  0.00  0.00    +0.000 A 
ATOM     22  C   UNL     1       2.076   8.494  17.861  0.00  0.00    +0.000 A 
ENDBRANCH   5  16
BRANCH   9  23
ATOM     23  C   UNL     1      -2.986  13.367  21.837  0.00  0.00    +0.000 A 
ATOM     24  C   UNL     1      -3.530  13.465  23.132  0.00  0.00    +0.000 A 
ATOM     25  C   UNL     1      -4.851  13.081  23.386  0.00  0.00    +0.000 A 
ATOM     26  C   UNL     1      -5.639  12.603  22.346  0.00  0.00    +0.000 A 
ATOM     27  C   UNL     1      -5.134  12.511  21.056  0.00  0.00    +0.000 A 
ATOM     28  C   UNL     1      -3.817  12.899  20.800  0.00  0.00    +0.000 A 
BRANCH  26  29
ATOM     29  O   UNL     1      -6.929  12.212  22.553  0.00  0.00    +0.000 OA
ATOM     30  H   UNL     1      -7.309  12.754  23.263  0.00  0.00    +0.000 HD
ENDBRANCH  26  29
ENDBRANCH   9  23
TORSDOF 3
ENDMDL
MODEL 8
REMARK VINA RESULT:      -7.1      7.826     10.931
REMARK  Name = 
REMARK  4 active torsions:
REMARK  status: ('A' for Active; 'I' for Inactive)
REMARK    1  A    between atoms: C_1  and  C_2
REMARK    2  A    between atoms: C_5  and  C_7
REMARK    3  A    between atoms: C_16  and  C_17
REMARK    4  A    between atoms: C_20  and  O_21
REMARK                            x       y       z     vdW  Elec       q    Type
REMARK                         _______ _______ _______ _____ _____    ______ ____
ROOT
ATOM      1  C   UNL     1       8.645  15.839  20.084  0.00  0.00    +0.000 C 
ATOM      2  C   UNL     1       7.575  15.076  20.777  0.00  0.00    +0.000 A 
ATOM      3  N   UNL     1       6.292  15.376  20.543  0.00  0.00    +0.000 NA
ATOM      4  N   UNL     1       5.577  14.558  21.369  0.00  0.00    +0.000 N 
ATOM      5  C   UNL     1       4.177  14.708  21.470  0.00  0.00    +0.000 C 
ATOM      6  O   UNL     1       3.610  14.178  22.426  0.00  0.00    +0.000 OA
ATOM      7  C   UNL     1       6.416  13.712  22.058  0.00  0.00    +0.000 A 
ATOM      8  C   UNL     1       7.709  14.014  21.708  0.00  0.00    +0.000 A 
ATOM      9  C   UNL     1       8.915  13.360  22.284  0.00  0.00    +0.000 C 
ATOM     10  S   UNL     1       8.595  12.063  23.523  0.00  0.00    +0.000 S 
ATOM     11  C   UNL     1       6.890  12.245  23.870  0.00  0.00    +0.000 C 
ATOM     12  N   UNL     1       6.489  11.826  25.021  0.00  0.00    +0.000 NA
ATOM     13  N   UNL     1       6.032  12.800  22.972  0.00  0.00    +0.000 N 
ATOM     14  H   UNL     1       7.324  11.490  25.515  0.00  0.00    +0.000 HD
ATOM     15  H   UNL     1       5.056  12.768  23.276  0.00  0.00    +0.000 HD
ENDROOT
BRANCH   5  16
ATOM     16  C   UNL     1       3.388  15.481  20.480  0.00  0.00    +0.000 A 
ATOM     17  C   UNL     1       3.088  14.908  19.238  0.00  0.00    +0.000 A 
ATOM     18  C   UNL     1       2.458  15.667  18.248  0.00  0.00    +0.000 A 
ATOM     19  C   UNL     1       2.102  16.980  18.516  0.00  0.00    +0.000 A 
ATOM     20 CL   UNL     1       1.402  17.935  17.267  0.00  0.00    +0.000 Cl
ATOM     21  C   UNL     1       2.329  17.539  19.777  0.00  0.00    +0.000 A 
ATOM     22  C   UNL     1       2.968  16.785  20.770  0.00  0.00    +0.000 A 
ENDBRANCH   5  16
BRANCH   9  23
ATOM     23  C   UNL     1       9.717  12.818  21.107  0.00  0.00    +0.000 A 
ATOM     24  C   UNL     1      10.884  13.488  20.692  0.00  0.00    +0.000 A 
ATOM     25  C   UNL     1      11.619  13.032  19.592  0.00  0.00    +0.000 A 
ATOM     26  C   UNL     1      11.197  11.900  18.906  0.00  0.00    +0.000 A 
ATOM     27  C   UNL     1      10.059  11.211  19.304  0.00  0.00    +0.000 A 
ATOM     28  C   UNL     1       9.327  11.662  20.404  0.00  0.00    +0.000 A 
BRANCH  26  29
ATOM     29  O   UNL     1      11.881  11.427  17.826  0.00  0.00    +0.000 OA
ATOM     30  H   UNL     1      12.481  12.121  17.508  0.00  0.00    +0.000 HD
ENDBRANCH  26  29
ENDBRANCH   9  23
TORSDOF 3
ENDMDL
MODEL 9
REMARK VINA RESULT:      -7.1      3.937      7.790
REMARK  Name = 
REMARK  4 active torsions:
REMARK  status: ('A' for Active; 'I' for Inactive)
REMARK    1  A    between atoms: C_1  and  C_2
REMARK    2  A    between atoms: C_5  and  C_7
REMARK    3  A    between atoms: C_16  and  C_17
REMARK    4  A    between atoms: C_20  and  O_21
REMARK                            x       y       z     vdW  Elec       q    Type
REMARK                         _______ _______ _______ _____ _____    ______ ____
ROOT
ATOM      1  C   UNL     1      -2.026  10.223  18.362  0.00  0.00    +0.000 C 
ATOM      2  C   UNL     1      -1.618  11.420  19.141  0.00  0.00    +0.000 A 
ATOM      3  N   UNL     1      -2.508  12.025  19.936  0.00  0.00    +0.000 NA
ATOM      4  N   UNL     1      -1.853  13.109  20.445  0.00  0.00    +0.000 N 
ATOM      5  C   UNL     1      -2.552  14.050  21.232  0.00  0.00    +0.000 C 
ATOM      6  O   UNL     1      -2.027  15.148  21.417  0.00  0.00    +0.000 OA
ATOM      7  C   UNL     1      -0.545  13.131  20.016  0.00  0.00    +0.000 A 
ATOM      8  C   UNL     1      -0.354  12.063  19.174  0.00  0.00    +0.000 A 
ATOM      9  C   UNL     1       0.915  11.773  18.453  0.00  0.00    +0.000 C 
ATOM     10  S   UNL     1       2.283  12.936  18.760  0.00  0.00    +0.000 S 
ATOM     11  C   UNL     1       1.510  14.258  19.605  0.00  0.00    +0.000 C 
ATOM     12  N   UNL     1       2.083  15.409  19.521  0.00  0.00    +0.000 NA
ATOM     13  N   UNL     1       0.362  14.080  20.315  0.00  0.00    +0.000 N 
ATOM     14  H   UNL     1       2.897  15.284  18.908  0.00  0.00    +0.000 HD
ATOM     15  H   UNL     1       0.069  14.919  20.822  0.00  0.00    +0.000 HD
ENDROOT
BRANCH   5  16
ATOM     16  C   UNL     1      -3.882  13.759  21.821  0.00  0.00    +0.000 A 
ATOM     17  C   UNL     1      -5.038  14.187  21.157  0.00  0.00    +0.000 A 
ATOM     18  C   UNL     1      -6.291  14.034  21.758  0.00  0.00    +0.000 A 
ATOM     19  C   UNL     1      -6.383  13.426  23.001  0.00  0.00    +0.000 A 
ATOM     20 CL   UNL     1      -7.916  13.316  23.774  0.00  0.00    +0.000 Cl
ATOM     21  C   UNL     1      -5.244  12.928  23.640  0.00  0.00    +0.000 A 
ATOM     22  C   UNL     1      -3.985  13.086  23.045  0.00  0.00    +0.000 A 
ENDBRANCH   5  16
BRANCH   9  23
ATOM     23  C   UNL     1       1.305  10.346  18.822  0.00  0.00    +0.000 A 
ATOM     24  C   UNL     1       1.865   9.501  17.845  0.00  0.00    +0.000 A 
ATOM     25  C   UNL     1       2.199   8.177  18.148  0.00  0.00    +0.000 A 
ATOM     26  C   UNL     1       1.981   7.691  19.432  0.00  0.00    +0.000 A 
ATOM     27  C   UNL     1       1.446   8.507  20.419  0.00  0.00    +0.000 A 
ATOM     28  C   UNL     1       1.117   9.831  20.119  0.00  0.00    +0.000 A 
BRANCH  26  29
ATOM     29  O   UNL     1       2.286   6.406  19.766  0.00  0.00    +0.000 OA
ATOM     30  H   UNL     1       2.526   6.376  20.706  0.00  0.00    +0.000 HD
ENDBRANCH  26  29
ENDBRANCH   9  23
TORSDOF 3
ENDMDL
