MODEL 1
REMARK VINA RESULT:      -5.8      0.000      0.000
REMARK  Name = 
REMARK  5 active torsions:
REMARK  status: ('A' for Active; 'I' for Inactive)
REMARK    1  A    between atoms: C_2  and  C_3
REMARK    2  A    between atoms: C_2  and  C_4
REMARK    3  A    between atoms: C_4  and  C_5
REMARK    4  A    between atoms: C_4  and  N_6
REMARK    5  A    between atoms: N_6  and  O_7
REMARK                            x       y       z     vdW  Elec       q    Type
REMARK                         _______ _______ _______ _____ _____    ______ ____
ROOT
ATOM      1  N   UNL     1       4.436   3.649  18.311  0.00  0.00    +0.000 N 
ATOM      2  C   UNL     1       3.322   3.393  19.145  0.00  0.00    +0.000 A 
ATOM      3  C   UNL     1       3.531   2.968  20.461  0.00  0.00    +0.000 A 
ATOM      4  C   UNL     1       2.446   2.746  21.307  0.00  0.00    +0.000 A 
ATOM      5  C   UNL     1       1.162   2.942  20.826  0.00  0.00    +0.000 A 
ATOM      6  C   UNL     1       1.024   3.331  19.507  0.00  0.00    +0.000 A 
ATOM      7  N   UNL     1       2.063   3.540  18.668  0.00  0.00    +0.000 NA
ENDROOT
BRANCH   1   8
ATOM      8  C   UNL     1       4.190   4.518  17.140  0.00  0.00    +0.000 C 
ATOM      9  C   UNL     1       5.050   4.088  15.944  0.00  0.00    +0.000 C 
BRANCH   8  11
ATOM     10  C   UNL     1       3.413   6.718  18.051  0.00  0.00    +0.000 C 
ATOM     11  C   UNL     1       4.391   5.996  17.477  0.00  0.00    +0.000 C 
ATOM     12  C   UNL     1       5.708   6.637  17.133  0.00  0.00    +0.000 C 
ENDBRANCH   8  11
ENDBRANCH   1   8
BRANCH   1  13
ATOM     13  O   UNL     1       5.721   3.768  18.868  0.00  0.00    +0.000 OA
ATOM     14  H   UNL     1       5.623   4.536  19.460  0.00  0.00    +0.000 HD
ENDBRANCH   1  13
TORSDOF 3
ENDMDL
MODEL 2
REMARK VINA RESULT:      -5.7      1.814      2.110
REMARK  Name = 
REMARK  5 active torsions:
REMARK  status: ('A' for Active; 'I' for Inactive)
REMARK    1  A    between atoms: C_2  and  C_3
REMARK    2  A    between atoms: C_2  and  C_4
REMARK    3  A    between atoms: C_4  and  C_5
REMARK    4  A    between atoms: C_4  and  N_6
REMARK    5  A    between atoms: N_6  and  O_7
REMARK                            x       y       z     vdW  Elec       q    Type
REMARK                         _______ _______ _______ _____ _____    ______ ____
ROOT
ATOM      1  N   UNL     1       4.537   4.209  16.786  0.00  0.00    +0.000 N 
ATOM      2  C   UNL     1       3.409   3.747  17.505  0.00  0.00    +0.000 A 
ATOM      3  C   UNL     1       3.237   2.374  17.707  0.00  0.00    +0.000 A 
ATOM      4  C   UNL     1       2.151   1.904  18.444  0.00  0.00    +0.000 A 
ATOM      5  C   UNL     1       1.242   2.812  18.962  0.00  0.00    +0.000 A 
ATOM      6  C   UNL     1       1.452   4.152  18.697  0.00  0.00    +0.000 A 
ATOM      7  N   UNL     1       2.492   4.626  17.976  0.00  0.00    +0.000 NA
ENDROOT
BRANCH   1   8
ATOM      8  C   UNL     1       4.915   5.622  17.001  0.00  0.00    +0.000 C 
ATOM      9  C   UNL     1       5.211   6.323  15.668  0.00  0.00    +0.000 C 
BRANCH   8  11
ATOM     10  C   UNL     1       5.982   5.320  19.247  0.00  0.00    +0.000 C 
ATOM     11  C   UNL     1       6.083   5.754  17.979  0.00  0.00    +0.000 C 
ATOM     12  C   UNL     1       7.353   6.402  17.497  0.00  0.00    +0.000 C 
ENDBRANCH   8  11
ENDBRANCH   1   8
BRANCH   1  13
ATOM     13  O   UNL     1       5.617   3.345  16.539  0.00  0.00    +0.000 OA
ATOM     14  H   UNL     1       6.261   3.932  16.102  0.00  0.00    +0.000 HD
ENDBRANCH   1  13
TORSDOF 3
ENDMDL
MODEL 3
REMARK VINA RESULT:      -5.6      1.922      4.863
REMARK  Name = 
REMARK  5 active torsions:
REMARK  status: ('A' for Active; 'I' for Inactive)
REMARK    1  A    between atoms: C_2  and  C_3
REMARK    2  A    between atoms: C_2  and  C_4
REMARK    3  A    between atoms: C_4  and  C_5
REMARK    4  A    between atoms: C_4  and  N_6
REMARK    5  A    between atoms: N_6  and  O_7
REMARK                            x       y       z     vdW  Elec       q    Type
REMARK                         _______ _______ _______ _____ _____    ______ ____
ROOT
ATOM      1  N   UNL     1       4.069   4.482  18.347  0.00  0.00    +0.000 N 
ATOM      2  C   UNL     1       5.307   5.168  18.344  0.00  0.00    +0.000 A 
ATOM      3  C   UNL     1       5.609   6.036  17.291  0.00  0.00    +0.000 A 
ATOM      4  C   UNL     1       6.809   6.747  17.290  0.00  0.00    +0.000 A 
ATOM      5  C   UNL     1       7.698   6.574  18.338  0.00  0.00    +0.000 A 
ATOM      6  C   UNL     1       7.353   5.676  19.331  0.00  0.00    +0.000 A 
ATOM      7  N   UNL     1       6.200   4.970  19.343  0.00  0.00    +0.000 NA
ENDROOT
BRANCH   1   8
ATOM      8  C   UNL     1       3.608   3.972  19.656  0.00  0.00    +0.000 C 
ATOM      9  C   UNL     1       3.624   2.437  19.687  0.00  0.00    +0.000 C 
BRANCH   8  11
ATOM     10  C   UNL     1       2.082   5.809  20.411  0.00  0.00    +0.000 C 
ATOM     11  C   UNL     1       2.234   4.529  20.031  0.00  0.00    +0.000 C 
ATOM     12  C   UNL     1       1.048   3.603  19.985  0.00  0.00    +0.000 C 
ENDBRANCH   8  11
ENDBRANCH   1   8
BRANCH   1  13
ATOM     13  O   UNL     1       3.039   4.884  17.480  0.00  0.00    +0.000 OA
ATOM     14  H   UNL     1       2.519   4.065  17.377  0.00  0.00    +0.000 HD
ENDBRANCH   1  13
TORSDOF 3
ENDMDL
MODEL 4
REMARK VINA RESULT:      -5.6      1.394      4.718
REMARK  Name = 
REMARK  5 active torsions:
REMARK  status: ('A' for Active; 'I' for Inactive)
REMARK    1  A    between atoms: C_2  and  C_3
REMARK    2  A    between atoms: C_2  and  C_4
REMARK    3  A    between atoms: C_4  and  C_5
REMARK    4  A    between atoms: C_4  and  N_6
REMARK    5  A    between atoms: N_6  and  O_7
REMARK                            x       y       z     vdW  Elec       q    Type
REMARK                         _______ _______ _______ _____ _____    ______ ____
ROOT
ATOM      1  N   UNL     1       4.179   3.211  18.193  0.00  0.00    +0.000 N 
ATOM      2  C   UNL     1       4.627   4.237  17.328  0.00  0.00    +0.000 A 
ATOM      3  C   UNL     1       5.285   3.897  16.141  0.00  0.00    +0.000 A 
ATOM      4  C   UNL     1       5.701   4.894  15.260  0.00  0.00    +0.000 A 
ATOM      5  C   UNL     1       5.463   6.220  15.578  0.00  0.00    +0.000 A 
ATOM      6  C   UNL     1       4.838   6.489  16.781  0.00  0.00    +0.000 A 
ATOM      7  N   UNL     1       4.438   5.538  17.654  0.00  0.00    +0.000 NA
ENDROOT
BRANCH   1   8
ATOM      8  C   UNL     1       3.114   3.582  19.150  0.00  0.00    +0.000 C 
ATOM      9  C   UNL     1       3.232   2.771  20.448  0.00  0.00    +0.000 C 
BRANCH   8  11
ATOM     10  C   UNL     1       1.283   4.339  17.618  0.00  0.00    +0.000 C 
ATOM     11  C   UNL     1       1.723   3.454  18.529  0.00  0.00    +0.000 C 
ATOM     12  C   UNL     1       0.841   2.319  18.976  0.00  0.00    +0.000 C 
ENDBRANCH   8  11
ENDBRANCH   1   8
BRANCH   1  13
ATOM     13  O   UNL     1       4.122   1.882  17.741  0.00  0.00    +0.000 OA
ATOM     14  H   UNL     1       4.991   1.531  18.009  0.00  0.00    +0.000 HD
ENDBRANCH   1  13
TORSDOF 3
ENDMDL
MODEL 5
REMARK VINA RESULT:      -5.6      1.754      4.709
REMARK  Name = 
REMARK  5 active torsions:
REMARK  status: ('A' for Active; 'I' for Inactive)
REMARK    1  A    between atoms: C_2  and  C_3
REMARK    2  A    between atoms: C_2  and  C_4
REMARK    3  A    between atoms: C_4  and  C_5
REMARK    4  A    between atoms: C_4  and  N_6
REMARK    5  A    between atoms: N_6  and  O_7
REMARK                            x       y       z     vdW  Elec       q    Type
REMARK                         _______ _______ _______ _____ _____    ______ ____
ROOT
ATOM      1  N   UNL     1       3.703   3.498  18.311  0.00  0.00    +0.000 N 
ATOM      2  C   UNL     1       4.906   3.935  17.705  0.00  0.00    +0.000 A 
ATOM      3  C   UNL     1       4.982   4.022  16.312  0.00  0.00    +0.000 A 
ATOM      4  C   UNL     1       6.147   4.484  15.701  0.00  0.00    +0.000 A 
ATOM      5  C   UNL     1       7.227   4.846  16.490  0.00  0.00    +0.000 A 
ATOM      6  C   UNL     1       7.097   4.704  17.859  0.00  0.00    +0.000 A 
ATOM      7  N   UNL     1       5.981   4.247  18.469  0.00  0.00    +0.000 NA
ENDROOT
BRANCH   1   8
ATOM      8  C   UNL     1       3.516   3.865  19.731  0.00  0.00    +0.000 C 
ATOM      9  C   UNL     1       3.235   2.623  20.588  0.00  0.00    +0.000 C 
BRANCH   8  11
ATOM     10  C   UNL     1       2.648   6.208  19.563  0.00  0.00    +0.000 C 
ATOM     11  C   UNL     1       2.429   4.927  19.904  0.00  0.00    +0.000 C 
ATOM     12  C   UNL     1       1.106   4.510  20.487  0.00  0.00    +0.000 C 
ENDBRANCH   8  11
ENDBRANCH   1   8
BRANCH   1  13
ATOM     13  O   UNL     1       2.517   3.440  17.560  0.00  0.00    +0.000 OA
ATOM     14  H   UNL     1       2.006   4.191  17.915  0.00  0.00    +0.000 HD
ENDBRANCH   1  13
TORSDOF 3
ENDMDL
MODEL 6
REMARK VINA RESULT:      -5.6      1.473      4.794
REMARK  Name = 
REMARK  5 active torsions:
REMARK  status: ('A' for Active; 'I' for Inactive)
REMARK    1  A    between atoms: C_2  and  C_3
REMARK    2  A    between atoms: C_2  and  C_4
REMARK    3  A    between atoms: C_4  and  C_5
REMARK    4  A    between atoms: C_4  and  N_6
REMARK    5  A    between atoms: N_6  and  O_7
REMARK                            x       y       z     vdW  Elec       q    Type
REMARK                         _______ _______ _______ _____ _____    ______ ____
ROOT
ATOM      1  N   UNL     1       2.401   4.479  18.541  0.00  0.00    +0.000 N 
ATOM      2  C   UNL     1       3.444   4.836  17.653  0.00  0.00    +0.000 A 
ATOM      3  C   UNL     1       3.894   6.159  17.616  0.00  0.00    +0.000 A 
ATOM      4  C   UNL     1       4.944   6.520  16.773  0.00  0.00    +0.000 A 
ATOM      5  C   UNL     1       5.527   5.555  15.968  0.00  0.00    +0.000 A 
ATOM      6  C   UNL     1       5.012   4.274  16.028  0.00  0.00    +0.000 A 
ATOM      7  N   UNL     1       3.988   3.907  16.830  0.00  0.00    +0.000 NA
ENDROOT
BRANCH   1   8
ATOM      8  C   UNL     1       2.292   3.043  18.877  0.00  0.00    +0.000 C 
ATOM      9  C   UNL     1       0.823   2.600  18.931  0.00  0.00    +0.000 C 
BRANCH   8  11
ATOM     10  C   UNL     1       4.334   2.378  20.167  0.00  0.00    +0.000 C 
ATOM     11  C   UNL     1       3.030   2.706  20.174  0.00  0.00    +0.000 C 
ATOM     12  C   UNL     1       2.259   2.728  21.465  0.00  0.00    +0.000 C 
ENDBRANCH   8  11
ENDBRANCH   1   8
BRANCH   1  13
ATOM     13  O   UNL     1       2.028   5.353  19.576  0.00  0.00    +0.000 OA
ATOM     14  H   UNL     1       1.060   5.243  19.605  0.00  0.00    +0.000 HD
ENDBRANCH   1  13
TORSDOF 3
ENDMDL
MODEL 7
REMARK VINA RESULT:      -5.5      1.861      4.746
REMARK  Name = 
REMARK  5 active torsions:
REMARK  status: ('A' for Active; 'I' for Inactive)
REMARK    1  A    between atoms: C_2  and  C_3
REMARK    2  A    between atoms: C_2  and  C_4
REMARK    3  A    between atoms: C_4  and  C_5
REMARK    4  A    between atoms: C_4  and  N_6
REMARK    5  A    between atoms: N_6  and  O_7
REMARK                            x       y       z     vdW  Elec       q    Type
REMARK                         _______ _______ _______ _____ _____    ______ ____
ROOT
ATOM      1  N   UNL     1       4.001   4.263  18.358  0.00  0.00    +0.000 N 
ATOM      2  C   UNL     1       5.226   4.971  18.314  0.00  0.00    +0.000 A 
ATOM      3  C   UNL     1       5.558   5.701  17.169  0.00  0.00    +0.000 A 
ATOM      4  C   UNL     1       6.743   6.433  17.123  0.00  0.00    +0.000 A 
ATOM      5  C   UNL     1       7.589   6.420  18.220  0.00  0.00    +0.000 A 
ATOM      6  C   UNL     1       7.218   5.651  19.307  0.00  0.00    +0.000 A 
ATOM      7  N   UNL     1       6.079   4.926  19.366  0.00  0.00    +0.000 NA
ENDROOT
BRANCH   1   8
ATOM      8  C   UNL     1       3.494   3.917  19.703  0.00  0.00    +0.000 C 
ATOM      9  C   UNL     1       3.343   2.398  19.862  0.00  0.00    +0.000 C 
BRANCH   8  11
ATOM     10  C   UNL     1       1.033   3.980  20.164  0.00  0.00    +0.000 C 
ATOM     11  C   UNL     1       2.190   4.650  20.023  0.00  0.00    +0.000 C 
ATOM     12  C   UNL     1       2.223   6.148  20.159  0.00  0.00    +0.000 C 
ENDBRANCH   8  11
ENDBRANCH   1   8
BRANCH   1  13
ATOM     13  O   UNL     1       3.003   4.524  17.405  0.00  0.00    +0.000 OA
ATOM     14  H   UNL     1       2.301   3.896  17.658  0.00  0.00    +0.000 HD
ENDBRANCH   1  13
TORSDOF 3
ENDMDL
MODEL 8
REMARK VINA RESULT:      -5.5      1.923      4.685
REMARK  Name = 
REMARK  5 active torsions:
REMARK  status: ('A' for Active; 'I' for Inactive)
REMARK    1  A    between atoms: C_2  and  C_3
REMARK    2  A    between atoms: C_2  and  C_4
REMARK    3  A    between atoms: C_4  and  C_5
REMARK    4  A    between atoms: C_4  and  N_6
REMARK    5  A    between atoms: N_6  and  O_7
REMARK                            x       y       z     vdW  Elec       q    Type
REMARK                         _______ _______ _______ _____ _____    ______ ____
ROOT
ATOM      1  N   UNL     1       3.757   4.532  18.369  0.00  0.00    +0.000 N 
ATOM      2  C   UNL     1       5.002   4.535  17.695  0.00  0.00    +0.000 A 
ATOM      3  C   UNL     1       6.165   4.857  18.400  0.00  0.00    +0.000 A 
ATOM      4  C   UNL     1       7.403   4.830  17.761  0.00  0.00    +0.000 A 
ATOM      5  C   UNL     1       7.464   4.490  16.419  0.00  0.00    +0.000 A 
ATOM      6  C   UNL     1       6.274   4.215  15.773  0.00  0.00    +0.000 A 
ATOM      7  N   UNL     1       5.063   4.248  16.372  0.00  0.00    +0.000 NA
ENDROOT
BRANCH   1   8
ATOM      8  C   UNL     1       2.672   3.755  17.733  0.00  0.00    +0.000 C 
ATOM      9  C   UNL     1       1.377   4.576  17.656  0.00  0.00    +0.000 C 
BRANCH   8  11
ATOM     10  C   UNL     1       1.291   2.143  19.063  0.00  0.00    +0.000 C 
ATOM     11  C   UNL     1       2.448   2.414  18.435  0.00  0.00    +0.000 C 
ATOM     12  C   UNL     1       3.564   1.405  18.425  0.00  0.00    +0.000 C 
ENDBRANCH   8  11
ENDBRANCH   1   8
BRANCH   1  13
ATOM     13  O   UNL     1       3.716   4.555  19.773  0.00  0.00    +0.000 OA
ATOM     14  H   UNL     1       2.760   4.612  19.954  0.00  0.00    +0.000 HD
ENDBRANCH   1  13
TORSDOF 3
ENDMDL
MODEL 9
REMARK VINA RESULT:      -5.4      1.471      4.842
REMARK  Name = 
REMARK  5 active torsions:
REMARK  status: ('A' for Active; 'I' for Inactive)
REMARK    1  A    between atoms: C_2  and  C_3
REMARK    2  A    between atoms: C_2  and  C_4
REMARK    3  A    between atoms: C_4  and  C_5
REMARK    4  A    between atoms: C_4  and  N_6
REMARK    5  A    between atoms: N_6  and  O_7
REMARK                            x       y       z     vdW  Elec       q    Type
REMARK                         _______ _______ _______ _____ _____    ______ ____
ROOT
ATOM      1  N   UNL     1       3.802   4.906  18.657  0.00  0.00    +0.000 N 
ATOM      2  C   UNL     1       4.852   4.847  17.709  0.00  0.00    +0.000 A 
ATOM      3  C   UNL     1       5.923   5.740  17.813  0.00  0.00    +0.000 A 
ATOM      4  C   UNL     1       6.982   5.672  16.909  0.00  0.00    +0.000 A 
ATOM      5  C   UNL     1       6.955   4.718  15.906  0.00  0.00    +0.000 A 
ATOM      6  C   UNL     1       5.851   3.888  15.839  0.00  0.00    +0.000 A 
ATOM      7  N   UNL     1       4.810   3.946  16.698  0.00  0.00    +0.000 NA
ENDROOT
BRANCH   1   8
ATOM      8  C   UNL     1       2.973   3.689  18.790  0.00  0.00    +0.000 C 
ATOM      9  C   UNL     1       1.478   4.029  18.706  0.00  0.00    +0.000 C 
BRANCH   8  11
ATOM     10  C   UNL     1       4.427   2.180  20.162  0.00  0.00    +0.000 C 
ATOM     11  C   UNL     1       3.304   2.913  20.065  0.00  0.00    +0.000 C 
ATOM     12  C   UNL     1       2.330   2.968  21.212  0.00  0.00    +0.000 C 
ENDBRANCH   8  11
ENDBRANCH   1   8
BRANCH   1  13
ATOM     13  O   UNL     1       3.968   5.634  19.847  0.00  0.00    +0.000 OA
ATOM     14  H   UNL     1       3.371   5.169  20.463  0.00  0.00    +0.000 HD
ENDBRANCH   1  13
TORSDOF 3
ENDMDL
