MODEL 1
REMARK VINA RESULT:      -7.4      0.000      0.000
REMARK  Name = 
REMARK  7 active torsions:
REMARK  status: ('A' for Active; 'I' for Inactive)
REMARK    1  A    between atoms: C_1  and  O_2
REMARK    2  A    between atoms: O_2  and  C_3
REMARK    3  A    between atoms: C_6  and  C_7
REMARK    4  A    between atoms: C_10  and  C_11
REMARK    5  A    between atoms: C_14  and  O_15
REMARK    6  A    between atoms: C_20  and  O_21
REMARK    7  A    between atoms: O_21  and  C_22
REMARK                            x       y       z     vdW  Elec       q    Type
REMARK                         _______ _______ _______ _____ _____    ______ ____
ROOT
ATOM      1  C   UNL     1       2.710   7.717  18.211  0.00  0.00    +0.000 A 
ATOM      2  N   UNL     1       2.315   8.749  17.446  0.00  0.00    +0.000 NA
ATOM      3  O   UNL     1       1.492   9.487  18.287  0.00  0.00    +0.000 OA
ATOM      4  C   UNL     1       1.463   8.833  19.486  0.00  0.00    +0.000 A 
ATOM      5  N   UNL     1       2.190   7.742  19.492  0.00  0.00    +0.000 NA
ENDROOT
BRANCH   1   9
ATOM      6  C   UNL     1       5.378   4.743  16.689  0.00  0.00    +0.000 A 
ATOM      7  C   UNL     1       4.094   4.394  17.135  0.00  0.00    +0.000 A 
ATOM      8  C   UNL     1       3.224   5.361  17.637  0.00  0.00    +0.000 A 
ATOM      9  C   UNL     1       3.636   6.691  17.752  0.00  0.00    +0.000 A 
ATOM     10  C   UNL     1       4.952   7.016  17.401  0.00  0.00    +0.000 A 
ATOM     11  C   UNL     1       5.835   6.056  16.880  0.00  0.00    +0.000 A 
BRANCH   6  13
ATOM     12  C   UNL     1       6.219   3.855  14.666  0.00  0.00    +0.000 C 
ATOM     13  O   UNL     1       6.183   3.809  16.094  0.00  0.00    +0.000 OA
ENDBRANCH   6  13
BRANCH  11  14
ATOM     14  O   UNL     1       7.063   6.591  16.595  0.00  0.00    +0.000 OA
ATOM     15  C   UNL     1       7.609   7.576  17.458  0.00  0.00    +0.000 C 
ENDBRANCH  11  14
ENDBRANCH   1   9
BRANCH   4  16
ATOM     16  C   UNL     1       0.667   9.450  20.540  0.00  0.00    +0.000 A 
ATOM     17  C   UNL     1       0.572   8.874  21.818  0.00  0.00    +0.000 A 
ATOM     18  C   UNL     1      -0.211   9.462  22.816  0.00  0.00    +0.000 A 
ATOM     19  C   UNL     1      -0.903  10.635  22.537  0.00  0.00    +0.000 A 
ATOM     20  C   UNL     1      -0.819  11.229  21.282  0.00  0.00    +0.000 A 
ATOM     21  C   UNL     1      -0.036  10.640  20.286  0.00  0.00    +0.000 A 
BRANCH  19  22
ATOM     22  O   UNL     1      -1.683  11.235  23.479  0.00  0.00    +0.000 OA
ATOM     23  H   UNL     1      -1.363  12.142  23.618  0.00  0.00    +0.000 HD
ENDBRANCH  19  22
ENDBRANCH   4  16
TORSDOF 5
ENDMDL
MODEL 2
REMARK VINA RESULT:      -7.3      0.155      1.031
REMARK  Name = 
REMARK  7 active torsions:
REMARK  status: ('A' for Active; 'I' for Inactive)
REMARK    1  A    between atoms: C_1  and  O_2
REMARK    2  A    between atoms: O_2  and  C_3
REMARK    3  A    between atoms: C_6  and  C_7
REMARK    4  A    between atoms: C_10  and  C_11
REMARK    5  A    between atoms: C_14  and  O_15
REMARK    6  A    between atoms: C_20  and  O_21
REMARK    7  A    between atoms: O_21  and  C_22
REMARK                            x       y       z     vdW  Elec       q    Type
REMARK                         _______ _______ _______ _____ _____    ______ ____
ROOT
ATOM      1  C   UNL     1       2.660   7.746  18.180  0.00  0.00    +0.000 A 
ATOM      2  N   UNL     1       2.225   8.737  17.385  0.00  0.00    +0.000 NA
ATOM      3  O   UNL     1       1.417   9.499  18.219  0.00  0.00    +0.000 OA
ATOM      4  C   UNL     1       1.437   8.898  19.445  0.00  0.00    +0.000 A 
ATOM      5  N   UNL     1       2.182   7.819  19.475  0.00  0.00    +0.000 NA
ENDROOT
BRANCH   1   9
ATOM      6  C   UNL     1       5.331   4.753  16.701  0.00  0.00    +0.000 A 
ATOM      7  C   UNL     1       4.052   4.408  17.161  0.00  0.00    +0.000 A 
ATOM      8  C   UNL     1       3.181   5.382  17.649  0.00  0.00    +0.000 A 
ATOM      9  C   UNL     1       3.588   6.715  17.736  0.00  0.00    +0.000 A 
ATOM     10  C   UNL     1       4.901   7.038  17.371  0.00  0.00    +0.000 A 
ATOM     11  C   UNL     1       5.785   6.071  16.863  0.00  0.00    +0.000 A 
BRANCH   6  13
ATOM     12  C   UNL     1       6.199   3.857  14.692  0.00  0.00    +0.000 C 
ATOM     13  O   UNL     1       6.137   3.811  16.120  0.00  0.00    +0.000 OA
ENDBRANCH   6  13
BRANCH  11  14
ATOM     14  O   UNL     1       7.009   6.605  16.561  0.00  0.00    +0.000 OA
ATOM     15  C   UNL     1       7.619   7.505  17.473  0.00  0.00    +0.000 C 
ENDBRANCH  11  14
ENDBRANCH   1   9
BRANCH   4  16
ATOM     16  C   UNL     1       0.666   9.550  20.497  0.00  0.00    +0.000 A 
ATOM     17  C   UNL     1       0.189  10.863  20.350  0.00  0.00    +0.000 A 
ATOM     18  C   UNL     1      -0.532  11.486  21.373  0.00  0.00    +0.000 A 
ATOM     19  C   UNL     1      -0.780  10.793  22.551  0.00  0.00    +0.000 A 
ATOM     20  C   UNL     1      -0.325   9.489  22.720  0.00  0.00    +0.000 A 
ATOM     21  C   UNL     1       0.395   8.868  21.696  0.00  0.00    +0.000 A 
BRANCH  19  22
ATOM     22  O   UNL     1      -1.471  11.367  23.575  0.00  0.00    +0.000 OA
ATOM     23  H   UNL     1      -1.690  12.282  23.330  0.00  0.00    +0.000 HD
ENDBRANCH  19  22
ENDBRANCH   4  16
TORSDOF 5
ENDMDL
MODEL 3
REMARK VINA RESULT:      -7.2      1.375      1.678
REMARK  Name = 
REMARK  7 active torsions:
REMARK  status: ('A' for Active; 'I' for Inactive)
REMARK    1  A    between atoms: C_1  and  O_2
REMARK    2  A    between atoms: O_2  and  C_3
REMARK    3  A    between atoms: C_6  and  C_7
REMARK    4  A    between atoms: C_10  and  C_11
REMARK    5  A    between atoms: C_14  and  O_15
REMARK    6  A    between atoms: C_20  and  O_21
REMARK    7  A    between atoms: O_21  and  C_22
REMARK                            x       y       z     vdW  Elec       q    Type
REMARK                         _______ _______ _______ _____ _____    ______ ____
ROOT
ATOM      1  C   UNL     1       3.346   6.109  18.857  0.00  0.00    +0.000 A 
ATOM      2  N   UNL     1       2.722   5.314  19.742  0.00  0.00    +0.000 NA
ATOM      3  O   UNL     1       1.882   6.180  20.430  0.00  0.00    +0.000 OA
ATOM      4  C   UNL     1       2.075   7.423  19.898  0.00  0.00    +0.000 A 
ATOM      5  N   UNL     1       2.963   7.435  18.933  0.00  0.00    +0.000 NA
ENDROOT
BRANCH   1   9
ATOM      6  C   UNL     1       6.073   4.769  15.849  0.00  0.00    +0.000 A 
ATOM      7  C   UNL     1       4.919   4.031  16.150  0.00  0.00    +0.000 A 
ATOM      8  C   UNL     1       4.030   4.463  17.134  0.00  0.00    +0.000 A 
ATOM      9  C   UNL     1       4.303   5.615  17.876  0.00  0.00    +0.000 A 
ATOM     10  C   UNL     1       5.506   6.292  17.642  0.00  0.00    +0.000 A 
ATOM     11  C   UNL     1       6.403   5.878  16.644  0.00  0.00    +0.000 A 
BRANCH   6  13
ATOM     12  C   UNL     1       6.201   3.865  13.668  0.00  0.00    +0.000 C 
ATOM     13  O   UNL     1       6.880   4.400  14.807  0.00  0.00    +0.000 OA
ENDBRANCH   6  13
BRANCH  11  14
ATOM     14  O   UNL     1       7.506   6.686  16.580  0.00  0.00    +0.000 OA
ATOM     15  C   UNL     1       7.639   7.755  17.502  0.00  0.00    +0.000 C 
ENDBRANCH  11  14
ENDBRANCH   1   9
BRANCH   4  16
ATOM     16  C   UNL     1       1.269   8.499  20.461  0.00  0.00    +0.000 A 
ATOM     17  C   UNL     1       1.007   8.575  21.840  0.00  0.00    +0.000 A 
ATOM     18  C   UNL     1       0.215   9.599  22.366  0.00  0.00    +0.000 A 
ATOM     19  C   UNL     1      -0.319  10.556  21.512  0.00  0.00    +0.000 A 
ATOM     20  C   UNL     1      -0.069  10.508  20.144  0.00  0.00    +0.000 A 
ATOM     21  C   UNL     1       0.723   9.483  19.620  0.00  0.00    +0.000 A 
BRANCH  19  22
ATOM     22  O   UNL     1      -1.103  11.565  21.984  0.00  0.00    +0.000 OA
ATOM     23  H   UNL     1      -1.626  11.230  22.732  0.00  0.00    +0.000 HD
ENDBRANCH  19  22
ENDBRANCH   4  16
TORSDOF 5
ENDMDL
MODEL 4
REMARK VINA RESULT:      -7.2      1.359      1.927
REMARK  Name = 
REMARK  7 active torsions:
REMARK  status: ('A' for Active; 'I' for Inactive)
REMARK    1  A    between atoms: C_1  and  O_2
REMARK    2  A    between atoms: O_2  and  C_3
REMARK    3  A    between atoms: C_6  and  C_7
REMARK    4  A    between atoms: C_10  and  C_11
REMARK    5  A    between atoms: C_14  and  O_15
REMARK    6  A    between atoms: C_20  and  O_21
REMARK    7  A    between atoms: O_21  and  C_22
REMARK                            x       y       z     vdW  Elec       q    Type
REMARK                         _______ _______ _______ _____ _____    ______ ____
ROOT
ATOM      1  C   UNL     1       3.350   6.155  18.881  0.00  0.00    +0.000 A 
ATOM      2  N   UNL     1       2.795   5.385  19.832  0.00  0.00    +0.000 NA
ATOM      3  O   UNL     1       1.930   6.249  20.492  0.00  0.00    +0.000 OA
ATOM      4  C   UNL     1       2.041   7.464  19.880  0.00  0.00    +0.000 A 
ATOM      5  N   UNL     1       2.899   7.461  18.888  0.00  0.00    +0.000 NA
ENDROOT
BRANCH   1   9
ATOM      6  C   UNL     1       6.073   4.789  15.881  0.00  0.00    +0.000 A 
ATOM      7  C   UNL     1       4.894   4.079  16.155  0.00  0.00    +0.000 A 
ATOM      8  C   UNL     1       4.007   4.520  17.138  0.00  0.00    +0.000 A 
ATOM      9  C   UNL     1       4.304   5.651  17.902  0.00  0.00    +0.000 A 
ATOM     10  C   UNL     1       5.528   6.297  17.693  0.00  0.00    +0.000 A 
ATOM     11  C   UNL     1       6.424   5.875  16.698  0.00  0.00    +0.000 A 
BRANCH   6  13
ATOM     12  C   UNL     1       6.203   3.879  13.702  0.00  0.00    +0.000 C 
ATOM     13  O   UNL     1       6.881   4.415  14.841  0.00  0.00    +0.000 OA
ENDBRANCH   6  13
BRANCH  11  14
ATOM     14  O   UNL     1       7.551   6.652  16.660  0.00  0.00    +0.000 OA
ATOM     15  C   UNL     1       7.643   7.785  17.509  0.00  0.00    +0.000 C 
ENDBRANCH  11  14
ENDBRANCH   1   9
BRANCH   4  16
ATOM     16  C   UNL     1       1.194   8.530  20.401  0.00  0.00    +0.000 A 
ATOM     17  C   UNL     1       0.768   9.592  19.584  0.00  0.00    +0.000 A 
ATOM     18  C   UNL     1      -0.027  10.621  20.098  0.00  0.00    +0.000 A 
ATOM     19  C   UNL     1      -0.400  10.590  21.436  0.00  0.00    +0.000 A 
ATOM     20  C   UNL     1       0.003   9.546  22.264  0.00  0.00    +0.000 A 
ATOM     21  C   UNL     1       0.796   8.519  21.748  0.00  0.00    +0.000 A 
BRANCH  19  22
ATOM     22  O   UNL     1      -1.166  11.577  21.978  0.00  0.00    +0.000 OA
ATOM     23  H   UNL     1      -2.000  11.189  22.291  0.00  0.00    +0.000 HD
ENDBRANCH  19  22
ENDBRANCH   4  16
TORSDOF 5
ENDMDL
MODEL 5
REMARK VINA RESULT:      -7.1      2.005      2.296
REMARK  Name = 
REMARK  7 active torsions:
REMARK  status: ('A' for Active; 'I' for Inactive)
REMARK    1  A    between atoms: C_1  and  O_2
REMARK    2  A    between atoms: O_2  and  C_3
REMARK    3  A    between atoms: C_6  and  C_7
REMARK    4  A    between atoms: C_10  and  C_11
REMARK    5  A    between atoms: C_14  and  O_15
REMARK    6  A    between atoms: C_20  and  O_21
REMARK    7  A    between atoms: O_21  and  C_22
REMARK                            x       y       z     vdW  Elec       q    Type
REMARK                         _______ _______ _______ _____ _____    ______ ____
ROOT
ATOM      1  C   UNL     1       2.976   7.129  18.469  0.00  0.00    +0.000 A 
ATOM      2  N   UNL     1       2.508   6.911  19.709  0.00  0.00    +0.000 NA
ATOM      3  O   UNL     1       1.636   7.971  19.924  0.00  0.00    +0.000 OA
ATOM      4  C   UNL     1       1.656   8.735  18.792  0.00  0.00    +0.000 A 
ATOM      5  N   UNL     1       2.463   8.265  17.871  0.00  0.00    +0.000 NA
ENDROOT
BRANCH   1   9
ATOM      6  C   UNL     1       5.636   4.555  16.329  0.00  0.00    +0.000 A 
ATOM      7  C   UNL     1       4.382   4.095  16.756  0.00  0.00    +0.000 A 
ATOM      8  C   UNL     1       3.514   4.931  17.459  0.00  0.00    +0.000 A 
ATOM      9  C   UNL     1       3.903   6.230  17.795  0.00  0.00    +0.000 A 
ATOM     10  C   UNL     1       5.194   6.651  17.456  0.00  0.00    +0.000 A 
ATOM     11  C   UNL     1       6.073   5.826  16.734  0.00  0.00    +0.000 A 
BRANCH   6  13
ATOM     12  C   UNL     1       6.308   3.982  14.136  0.00  0.00    +0.000 C 
ATOM     13  O   UNL     1       6.434   3.768  15.543  0.00  0.00    +0.000 OA
ENDBRANCH   6  13
BRANCH  11  14
ATOM     14  O   UNL     1       7.275   6.439  16.501  0.00  0.00    +0.000 OA
ATOM     15  C   UNL     1       7.718   7.458  17.383  0.00  0.00    +0.000 C 
ENDBRANCH  11  14
ENDBRANCH   1   9
BRANCH   4  16
ATOM     16  C   UNL     1       0.785   9.904  18.786  0.00  0.00    +0.000 A 
ATOM     17  C   UNL     1      -0.466   9.882  18.147  0.00  0.00    +0.000 A 
ATOM     18  C   UNL     1      -1.284  11.015  18.128  0.00  0.00    +0.000 A 
ATOM     19  C   UNL     1      -0.852  12.178  18.753  0.00  0.00    +0.000 A 
ATOM     20  C   UNL     1       0.379  12.224  19.399  0.00  0.00    +0.000 A 
ATOM     21  C   UNL     1       1.195  11.091  19.417  0.00  0.00    +0.000 A 
BRANCH  19  22
ATOM     22  O   UNL     1      -1.616  13.306  18.750  0.00  0.00    +0.000 OA
ATOM     23  H   UNL     1      -2.066  13.376  17.891  0.00  0.00    +0.000 HD
ENDBRANCH  19  22
ENDBRANCH   4  16
TORSDOF 5
ENDMDL
MODEL 6
REMARK VINA RESULT:      -7.0      1.725      2.152
REMARK  Name = 
REMARK  7 active torsions:
REMARK  status: ('A' for Active; 'I' for Inactive)
REMARK    1  A    between atoms: C_1  and  O_2
REMARK    2  A    between atoms: O_2  and  C_3
REMARK    3  A    between atoms: C_6  and  C_7
REMARK    4  A    between atoms: C_10  and  C_11
REMARK    5  A    between atoms: C_14  and  O_15
REMARK    6  A    between atoms: C_20  and  O_21
REMARK    7  A    between atoms: O_21  and  C_22
REMARK                            x       y       z     vdW  Elec       q    Type
REMARK                         _______ _______ _______ _____ _____    ______ ____
ROOT
ATOM      1  C   UNL     1       2.674   6.082  19.711  0.00  0.00    +0.000 A 
ATOM      2  N   UNL     1       1.922   5.442  20.622  0.00  0.00    +0.000 NA
ATOM      3  O   UNL     1       1.176   6.458  21.207  0.00  0.00    +0.000 OA
ATOM      4  C   UNL     1       1.546   7.621  20.596  0.00  0.00    +0.000 A 
ATOM      5  N   UNL     1       2.462   7.448  19.674  0.00  0.00    +0.000 NA
ENDROOT
BRANCH   1   9
ATOM      6  C   UNL     1       5.411   4.240  16.993  0.00  0.00    +0.000 A 
ATOM      7  C   UNL     1       4.037   4.268  16.716  0.00  0.00    +0.000 A 
ATOM      8  C   UNL     1       3.141   4.864  17.603  0.00  0.00    +0.000 A 
ATOM      9  C   UNL     1       3.594   5.399  18.812  0.00  0.00    +0.000 A 
ATOM     10  C   UNL     1       4.952   5.277  19.130  0.00  0.00    +0.000 A 
ATOM     11  C   UNL     1       5.868   4.694  18.240  0.00  0.00    +0.000 A 
BRANCH   6  13
ATOM     12  C   UNL     1       6.910   4.742  15.234  0.00  0.00    +0.000 C 
ATOM     13  O   UNL     1       6.296   3.755  16.066  0.00  0.00    +0.000 OA
ENDBRANCH   6  13
BRANCH  11  14
ATOM     14  O   UNL     1       7.141   4.688  18.746  0.00  0.00    +0.000 OA
ATOM     15  C   UNL     1       7.789   5.921  19.011  0.00  0.00    +0.000 C 
ENDBRANCH  11  14
ENDBRANCH   1   9
BRANCH   4  16
ATOM     16  C   UNL     1       0.864   8.831  21.042  0.00  0.00    +0.000 A 
ATOM     17  C   UNL     1       0.740   9.953  20.205  0.00  0.00    +0.000 A 
ATOM     18  C   UNL     1       0.104  11.115  20.650  0.00  0.00    +0.000 A 
ATOM     19  C   UNL     1      -0.415  11.158  21.938  0.00  0.00    +0.000 A 
ATOM     20  C   UNL     1      -0.313  10.058  22.784  0.00  0.00    +0.000 A 
ATOM     21  C   UNL     1       0.324   8.897  22.338  0.00  0.00    +0.000 A 
BRANCH  19  22
ATOM     22  O   UNL     1      -1.035  12.274  22.412  0.00  0.00    +0.000 OA
ATOM     23  H   UNL     1      -1.267  12.130  23.345  0.00  0.00    +0.000 HD
ENDBRANCH  19  22
ENDBRANCH   4  16
TORSDOF 5
ENDMDL
MODEL 7
REMARK VINA RESULT:      -7.0      2.214      2.668
REMARK  Name = 
REMARK  7 active torsions:
REMARK  status: ('A' for Active; 'I' for Inactive)
REMARK    1  A    between atoms: C_1  and  O_2
REMARK    2  A    between atoms: O_2  and  C_3
REMARK    3  A    between atoms: C_6  and  C_7
REMARK    4  A    between atoms: C_10  and  C_11
REMARK    5  A    between atoms: C_14  and  O_15
REMARK    6  A    between atoms: C_20  and  O_21
REMARK    7  A    between atoms: O_21  and  C_22
REMARK                            x       y       z     vdW  Elec       q    Type
REMARK                         _______ _______ _______ _____ _____    ______ ____
ROOT
ATOM      1  C   UNL     1       2.039   7.086  19.965  0.00  0.00    +0.000 A 
ATOM      2  N   UNL     1       2.154   7.954  18.947  0.00  0.00    +0.000 NA
ATOM      3  O   UNL     1       1.518   9.097  19.415  0.00  0.00    +0.000 OA
ATOM      4  C   UNL     1       1.076   8.815  20.676  0.00  0.00    +0.000 A 
ATOM      5  N   UNL     1       1.367   7.596  21.060  0.00  0.00    +0.000 NA
ENDROOT
BRANCH   1   9
ATOM      6  C   UNL     1       3.664   3.139  19.714  0.00  0.00    +0.000 A 
ATOM      7  C   UNL     1       2.368   3.350  20.206  0.00  0.00    +0.000 A 
ATOM      8  C   UNL     1       1.837   4.637  20.294  0.00  0.00    +0.000 A 
ATOM      9  C   UNL     1       2.610   5.746  19.940  0.00  0.00    +0.000 A 
ATOM     10  C   UNL     1       3.938   5.538  19.546  0.00  0.00    +0.000 A 
ATOM     11  C   UNL     1       4.481   4.247  19.438  0.00  0.00    +0.000 A 
BRANCH   6  13
ATOM     12  C   UNL     1       3.708   1.231  18.318  0.00  0.00    +0.000 C 
ATOM     13  O   UNL     1       4.136   1.868  19.524  0.00  0.00    +0.000 OA
ENDBRANCH   6  13
BRANCH  11  14
ATOM     14  O   UNL     1       5.787   4.274  19.027  0.00  0.00    +0.000 OA
ATOM     15  C   UNL     1       6.427   5.524  18.830  0.00  0.00    +0.000 C 
ENDBRANCH  11  14
ENDBRANCH   1   9
BRANCH   4  16
ATOM     16  C   UNL     1       0.390   9.894  21.377  0.00  0.00    +0.000 A 
ATOM     17  C   UNL     1      -0.415   9.642  22.501  0.00  0.00    +0.000 A 
ATOM     18  C   UNL     1      -1.085  10.680  23.153  0.00  0.00    +0.000 A 
ATOM     19  C   UNL     1      -0.951  11.981  22.682  0.00  0.00    +0.000 A 
ATOM     20  C   UNL     1      -0.154  12.258  21.575  0.00  0.00    +0.000 A 
ATOM     21  C   UNL     1       0.515  11.219  20.925  0.00  0.00    +0.000 A 
BRANCH  19  22
ATOM     22  O   UNL     1      -1.594  13.019  23.284  0.00  0.00    +0.000 OA
ATOM     23  H   UNL     1      -1.262  13.107  24.194  0.00  0.00    +0.000 HD
ENDBRANCH  19  22
ENDBRANCH   4  16
TORSDOF 5
ENDMDL
MODEL 8
REMARK VINA RESULT:      -7.0      2.706      8.229
REMARK  Name = 
REMARK  7 active torsions:
REMARK  status: ('A' for Active; 'I' for Inactive)
REMARK    1  A    between atoms: C_1  and  O_2
REMARK    2  A    between atoms: O_2  and  C_3
REMARK    3  A    between atoms: C_6  and  C_7
REMARK    4  A    between atoms: C_10  and  C_11
REMARK    5  A    between atoms: C_14  and  O_15
REMARK    6  A    between atoms: C_20  and  O_21
REMARK    7  A    between atoms: O_21  and  C_22
REMARK                            x       y       z     vdW  Elec       q    Type
REMARK                         _______ _______ _______ _____ _____    ______ ____
ROOT
ATOM      1  C   UNL     1       1.718   7.903  19.774  0.00  0.00    +0.000 A 
ATOM      2  N   UNL     1       2.279   8.185  18.587  0.00  0.00    +0.000 NA
ATOM      3  O   UNL     1       2.764   6.959  18.152  0.00  0.00    +0.000 OA
ATOM      4  C   UNL     1       2.451   6.045  19.117  0.00  0.00    +0.000 A 
ATOM      5  N   UNL     1       1.812   6.572  20.134  0.00  0.00    +0.000 NA
ENDROOT
BRANCH   1   9
ATOM      6  C   UNL     1      -0.138  10.853  22.252  0.00  0.00    +0.000 A 
ATOM      7  C   UNL     1      -0.179   9.496  22.601  0.00  0.00    +0.000 A 
ATOM      8  C   UNL     1       0.421   8.530  21.792  0.00  0.00    +0.000 A 
ATOM      9  C   UNL     1       1.030   8.896  20.589  0.00  0.00    +0.000 A 
ATOM     10  C   UNL     1       0.980  10.239  20.195  0.00  0.00    +0.000 A 
ATOM     11  C   UNL     1       0.393  11.224  21.007  0.00  0.00    +0.000 A 
BRANCH   6  13
ATOM     12  C   UNL     1      -2.054  11.862  23.202  0.00  0.00    +0.000 C 
ATOM     13  O   UNL     1      -0.629  11.804  23.105  0.00  0.00    +0.000 OA
ENDBRANCH   6  13
BRANCH  11  14
ATOM     14  O   UNL     1       0.464  12.466  20.435  0.00  0.00    +0.000 OA
ATOM     15  C   UNL     1       1.702  13.158  20.425  0.00  0.00    +0.000 C 
ENDBRANCH  11  14
ENDBRANCH   1   9
BRANCH   4  16
ATOM     16  C   UNL     1       2.850   4.667  18.856  0.00  0.00    +0.000 A 
ATOM     17  C   UNL     1       2.194   3.886  17.889  0.00  0.00    +0.000 A 
ATOM     18  C   UNL     1       2.569   2.559  17.661  0.00  0.00    +0.000 A 
ATOM     19  C   UNL     1       3.607   2.007  18.401  0.00  0.00    +0.000 A 
ATOM     20  C   UNL     1       4.278   2.762  19.359  0.00  0.00    +0.000 A 
ATOM     21  C   UNL     1       3.901   4.088  19.586  0.00  0.00    +0.000 A 
BRANCH  19  22
ATOM     22  O   UNL     1       3.998   0.715  18.216  0.00  0.00    +0.000 OA
ATOM     23  H   UNL     1       4.110   0.557  17.263  0.00  0.00    +0.000 HD
ENDBRANCH  19  22
ENDBRANCH   4  16
TORSDOF 5
ENDMDL
MODEL 9
REMARK VINA RESULT:      -7.0      1.149      2.224
REMARK  Name = 
REMARK  7 active torsions:
REMARK  status: ('A' for Active; 'I' for Inactive)
REMARK    1  A    between atoms: C_1  and  O_2
REMARK    2  A    between atoms: O_2  and  C_3
REMARK    3  A    between atoms: C_6  and  C_7
REMARK    4  A    between atoms: C_10  and  C_11
REMARK    5  A    between atoms: C_14  and  O_15
REMARK    6  A    between atoms: C_20  and  O_21
REMARK    7  A    between atoms: O_21  and  C_22
REMARK                            x       y       z     vdW  Elec       q    Type
REMARK                         _______ _______ _______ _____ _____    ______ ____
ROOT
ATOM      1  C   UNL     1       2.359   8.058  18.305  0.00  0.00    +0.000 A 
ATOM      2  N   UNL     1       1.929   9.060  17.521  0.00  0.00    +0.000 NA
ATOM      3  O   UNL     1       1.116   9.811  18.361  0.00  0.00    +0.000 OA
ATOM      4  C   UNL     1       1.128   9.193  19.578  0.00  0.00    +0.000 A 
ATOM      5  N   UNL     1       1.872   8.112  19.597  0.00  0.00    +0.000 NA
ENDROOT
BRANCH   1   9
ATOM      6  C   UNL     1       5.184   5.070  17.132  0.00  0.00    +0.000 A 
ATOM      7  C   UNL     1       5.322   6.396  16.698  0.00  0.00    +0.000 A 
ATOM      8  C   UNL     1       4.399   7.372  17.075  0.00  0.00    +0.000 A 
ATOM      9  C   UNL     1       3.289   7.032  17.851  0.00  0.00    +0.000 A 
ATOM     10  C   UNL     1       3.100   5.688  18.197  0.00  0.00    +0.000 A 
ATOM     11  C   UNL     1       4.029   4.697  17.838  0.00  0.00    +0.000 A 
BRANCH   6  13
ATOM     12  C   UNL     1       7.472   4.492  17.280  0.00  0.00    +0.000 C 
ATOM     13  O   UNL     1       6.153   4.144  16.853  0.00  0.00    +0.000 OA
ENDBRANCH   6  13
BRANCH  11  14
ATOM     14  O   UNL     1       3.655   3.459  18.286  0.00  0.00    +0.000 OA
ATOM     15  C   UNL     1       2.632   2.752  17.603  0.00  0.00    +0.000 C 
ENDBRANCH  11  14
ENDBRANCH   1   9
BRANCH   4  16
ATOM     16  C   UNL     1       0.350   9.829  20.634  0.00  0.00    +0.000 A 
ATOM     17  C   UNL     1       0.262   9.267  21.919  0.00  0.00    +0.000 A 
ATOM     18  C   UNL     1      -0.504   9.873  22.919  0.00  0.00    +0.000 A 
ATOM     19  C   UNL     1      -1.185  11.050  22.635  0.00  0.00    +0.000 A 
ATOM     20  C   UNL     1      -1.109  11.632  21.373  0.00  0.00    +0.000 A 
ATOM     21  C   UNL     1      -0.343  11.024  20.376  0.00  0.00    +0.000 A 
BRANCH  19  22
ATOM     22  O   UNL     1      -1.949  11.668  23.579  0.00  0.00    +0.000 OA
ATOM     23  H   UNL     1      -1.951  12.624  23.403  0.00  0.00    +0.000 HD
ENDBRANCH  19  22
ENDBRANCH   4  16
TORSDOF 5
ENDMDL
