MODEL 1
REMARK VINA RESULT:      -7.3      0.000      0.000
REMARK  Name = 
REMARK  5 active torsions:
REMARK  status: ('A' for Active; 'I' for Inactive)
REMARK    1  A    between atoms: C_1  and  O_2
REMARK    2  A    between atoms: O_2  and  C_3
REMARK    3  A    between atoms: C_6  and  S_7
REMARK    4  A    between atoms: S_7  and  N_10
REMARK    5  A    between atoms: C_14  and  C_15
REMARK                            x       y       z     vdW  Elec       q    Type
REMARK                         _______ _______ _______ _____ _____    ______ ____
ROOT
ATOM      1  S   UNL     1       2.979   5.410  18.980  0.00  0.00    +0.000 S 
ATOM      2  O   UNL     1       3.121   4.969  20.351  0.00  0.00    +0.000 OA
ATOM      3  O   UNL     1       2.142   4.688  18.044  0.00  0.00    +0.000 OA
ENDROOT
BRANCH   1   7
ATOM      4  C   UNL     1       1.347   9.697  19.043  0.00  0.00    +0.000 A 
ATOM      5  C   UNL     1       1.954   9.187  17.891  0.00  0.00    +0.000 A 
ATOM      6  C   UNL     1       2.460   7.885  17.870  0.00  0.00    +0.000 A 
ATOM      7  C   UNL     1       2.389   7.100  19.024  0.00  0.00    +0.000 A 
ATOM      8  C   UNL     1       1.781   7.600  20.181  0.00  0.00    +0.000 A 
ATOM      9  C   UNL     1       1.267   8.905  20.190  0.00  0.00    +0.000 A 
BRANCH   4  11
ATOM     10  C   UNL     1       1.869  11.962  18.578  0.00  0.00    +0.000 C 
ATOM     11  O   UNL     1       0.897  10.983  18.932  0.00  0.00    +0.000 OA
ENDBRANCH   4  11
ENDBRANCH   1   7
BRANCH   1  12
ATOM     12  N   UNL     1       4.552   5.537  18.297  0.00  0.00    +0.000 NA
ATOM     13  C   UNL     1       5.667   5.262  19.238  0.00  0.00    +0.000 C 
ATOM     14  C   UNL     1       7.001   5.651  18.613  0.00  0.00    +0.000 C 
ATOM     15  C   UNL     1       7.206   4.935  17.284  0.00  0.00    +0.000 C 
ATOM     16  C   UNL     1       6.061   5.266  16.322  0.00  0.00    +0.000 C 
ATOM     17  C   UNL     1       4.707   4.926  16.947  0.00  0.00    +0.000 C 
BRANCH  16  18
ATOM     18  C   UNL     1       6.212   4.550  14.983  0.00  0.00    +0.000 C 
ATOM     19  F   UNL     1       5.188   4.816  14.144  0.00  0.00    +0.000 F 
ATOM     20  F   UNL     1       7.350   4.896  14.342  0.00  0.00    +0.000 F 
ATOM     21  F   UNL     1       6.245   3.210  15.161  0.00  0.00    +0.000 F 
ENDBRANCH  16  18
ENDBRANCH   1  12
TORSDOF 4
ENDMDL
MODEL 2
REMARK VINA RESULT:      -7.3      2.586      3.401
REMARK  Name = 
REMARK  5 active torsions:
REMARK  status: ('A' for Active; 'I' for Inactive)
REMARK    1  A    between atoms: C_1  and  O_2
REMARK    2  A    between atoms: O_2  and  C_3
REMARK    3  A    between atoms: C_6  and  S_7
REMARK    4  A    between atoms: S_7  and  N_10
REMARK    5  A    between atoms: C_14  and  C_15
REMARK                            x       y       z     vdW  Elec       q    Type
REMARK                         _______ _______ _______ _____ _____    ______ ____
ROOT
ATOM      1  S   UNL     1       3.031   3.519  18.079  0.00  0.00    +0.000 S 
ATOM      2  O   UNL     1       3.089   2.549  19.152  0.00  0.00    +0.000 OA
ATOM      3  O   UNL     1       2.196   3.299  16.916  0.00  0.00    +0.000 OA
ENDROOT
BRANCH   1   7
ATOM      4  C   UNL     1       1.881   7.531  19.984  0.00  0.00    +0.000 A 
ATOM      5  C   UNL     1       1.740   6.339  20.702  0.00  0.00    +0.000 A 
ATOM      6  C   UNL     1       2.081   5.114  20.123  0.00  0.00    +0.000 A 
ATOM      7  C   UNL     1       2.533   5.080  18.801  0.00  0.00    +0.000 A 
ATOM      8  C   UNL     1       2.681   6.267  18.075  0.00  0.00    +0.000 A 
ATOM      9  C   UNL     1       2.345   7.493  18.667  0.00  0.00    +0.000 A 
BRANCH   4  11
ATOM     10  C   UNL     1       0.338   8.552  21.464  0.00  0.00    +0.000 C 
ATOM     11  O   UNL     1       1.510   8.658  20.664  0.00  0.00    +0.000 OA
ENDBRANCH   4  11
ENDBRANCH   1   7
BRANCH   1  12
ATOM     12  N   UNL     1       4.637   3.804  17.535  0.00  0.00    +0.000 NA
ATOM     13  C   UNL     1       4.758   4.158  16.099  0.00  0.00    +0.000 C 
ATOM     14  C   UNL     1       6.217   4.134  15.663  0.00  0.00    +0.000 C 
ATOM     15  C   UNL     1       7.058   5.057  16.536  0.00  0.00    +0.000 C 
ATOM     16  C   UNL     1       6.943   4.646  18.007  0.00  0.00    +0.000 C 
ATOM     17  C   UNL     1       5.481   4.618  18.454  0.00  0.00    +0.000 C 
BRANCH  16  18
ATOM     18  C   UNL     1       7.752   5.560  18.923  0.00  0.00    +0.000 C 
ATOM     19  F   UNL     1       8.877   4.964  19.374  0.00  0.00    +0.000 F 
ATOM     20  F   UNL     1       8.129   6.701  18.305  0.00  0.00    +0.000 F 
ATOM     21  F   UNL     1       7.024   5.913  20.005  0.00  0.00    +0.000 F 
ENDBRANCH  16  18
ENDBRANCH   1  12
TORSDOF 4
ENDMDL
MODEL 3
REMARK VINA RESULT:      -7.2      0.563      1.457
REMARK  Name = 
REMARK  5 active torsions:
REMARK  status: ('A' for Active; 'I' for Inactive)
REMARK    1  A    between atoms: C_1  and  O_2
REMARK    2  A    between atoms: O_2  and  C_3
REMARK    3  A    between atoms: C_6  and  S_7
REMARK    4  A    between atoms: S_7  and  N_10
REMARK    5  A    between atoms: C_14  and  C_15
REMARK                            x       y       z     vdW  Elec       q    Type
REMARK                         _______ _______ _______ _____ _____    ______ ____
ROOT
ATOM      1  S   UNL     1       3.006   5.273  18.988  0.00  0.00    +0.000 S 
ATOM      2  O   UNL     1       3.182   4.847  20.360  0.00  0.00    +0.000 OA
ATOM      3  O   UNL     1       2.194   4.507  18.065  0.00  0.00    +0.000 OA
ENDROOT
BRANCH   1   7
ATOM      4  C   UNL     1       1.416   9.573  19.141  0.00  0.00    +0.000 A 
ATOM      5  C   UNL     1       1.345   8.751  20.269  0.00  0.00    +0.000 A 
ATOM      6  C   UNL     1       1.820   7.438  20.225  0.00  0.00    +0.000 A 
ATOM      7  C   UNL     1       2.339   6.933  19.029  0.00  0.00    +0.000 A 
ATOM      8  C   UNL     1       2.416   7.749  17.895  0.00  0.00    +0.000 A 
ATOM      9  C   UNL     1       1.945   9.069  17.951  0.00  0.00    +0.000 A 
BRANCH   4  11
ATOM     10  C   UNL     1       0.620  11.212  20.657  0.00  0.00    +0.000 C 
ATOM     11  O   UNL     1       0.915  10.833  19.316  0.00  0.00    +0.000 OA
ENDBRANCH   4  11
ENDBRANCH   1   7
BRANCH   1  12
ATOM     12  N   UNL     1       4.565   5.468  18.288  0.00  0.00    +0.000 NA
ATOM     13  C   UNL     1       5.701   5.240  19.216  0.00  0.00    +0.000 C 
ATOM     14  C   UNL     1       7.010   5.686  18.578  0.00  0.00    +0.000 C 
ATOM     15  C   UNL     1       7.231   4.982  17.246  0.00  0.00    +0.000 C 
ATOM     16  C   UNL     1       6.062   5.265  16.297  0.00  0.00    +0.000 C 
ATOM     17  C   UNL     1       4.731   4.866  16.936  0.00  0.00    +0.000 C 
BRANCH  16  18
ATOM     18  C   UNL     1       6.229   4.557  14.955  0.00  0.00    +0.000 C 
ATOM     19  F   UNL     1       7.371   4.916  14.328  0.00  0.00    +0.000 F 
ATOM     20  F   UNL     1       6.254   3.213  15.084  0.00  0.00    +0.000 F 
ATOM     21  F   UNL     1       5.205   4.861  14.127  0.00  0.00    +0.000 F 
ENDBRANCH  16  18
ENDBRANCH   1  12
TORSDOF 4
ENDMDL
MODEL 4
REMARK VINA RESULT:      -7.2      2.568      3.213
REMARK  Name = 
REMARK  5 active torsions:
REMARK  status: ('A' for Active; 'I' for Inactive)
REMARK    1  A    between atoms: C_1  and  O_2
REMARK    2  A    between atoms: O_2  and  C_3
REMARK    3  A    between atoms: C_6  and  S_7
REMARK    4  A    between atoms: S_7  and  N_10
REMARK    5  A    between atoms: C_14  and  C_15
REMARK                            x       y       z     vdW  Elec       q    Type
REMARK                         _______ _______ _______ _____ _____    ______ ____
ROOT
ATOM      1  S   UNL     1       3.057   3.573  18.126  0.00  0.00    +0.000 S 
ATOM      2  O   UNL     1       3.083   2.568  19.167  0.00  0.00    +0.000 OA
ATOM      3  O   UNL     1       2.213   3.420  16.959  0.00  0.00    +0.000 OA
ENDROOT
BRANCH   1   7
ATOM      4  C   UNL     1       1.801   7.543  20.051  0.00  0.00    +0.000 A 
ATOM      5  C   UNL     1       2.306   7.516  18.747  0.00  0.00    +0.000 A 
ATOM      6  C   UNL     1       2.698   6.310  18.160  0.00  0.00    +0.000 A 
ATOM      7  C   UNL     1       2.616   5.126  18.898  0.00  0.00    +0.000 A 
ATOM      8  C   UNL     1       2.109   5.143  20.202  0.00  0.00    +0.000 A 
ATOM      9  C   UNL     1       1.710   6.356  20.781  0.00  0.00    +0.000 A 
BRANCH   4  11
ATOM     10  C   UNL     1       0.724   8.826  21.727  0.00  0.00    +0.000 C 
ATOM     11  O   UNL     1       1.458   8.785  20.507  0.00  0.00    +0.000 OA
ENDBRANCH   4  11
ENDBRANCH   1   7
BRANCH   1  12
ATOM     12  N   UNL     1       4.671   3.820  17.586  0.00  0.00    +0.000 NA
ATOM     13  C   UNL     1       4.808   4.119  16.139  0.00  0.00    +0.000 C 
ATOM     14  C   UNL     1       6.271   4.062  15.718  0.00  0.00    +0.000 C 
ATOM     15  C   UNL     1       7.115   5.007  16.563  0.00  0.00    +0.000 C 
ATOM     16  C   UNL     1       6.983   4.651  18.047  0.00  0.00    +0.000 C 
ATOM     17  C   UNL     1       5.516   4.657  18.482  0.00  0.00    +0.000 C 
BRANCH  16  18
ATOM     18  C   UNL     1       7.794   5.589  18.937  0.00  0.00    +0.000 C 
ATOM     19  F   UNL     1       8.148   6.722  18.293  0.00  0.00    +0.000 F 
ATOM     20  F   UNL     1       7.116   5.958  20.045  0.00  0.00    +0.000 F 
ATOM     21  F   UNL     1       8.934   4.989  19.346  0.00  0.00    +0.000 F 
ENDBRANCH  16  18
ENDBRANCH   1  12
TORSDOF 4
ENDMDL
MODEL 5
REMARK VINA RESULT:      -7.1      0.996      1.280
REMARK  Name = 
REMARK  5 active torsions:
REMARK  status: ('A' for Active; 'I' for Inactive)
REMARK    1  A    between atoms: C_1  and  O_2
REMARK    2  A    between atoms: O_2  and  C_3
REMARK    3  A    between atoms: C_6  and  S_7
REMARK    4  A    between atoms: S_7  and  N_10
REMARK    5  A    between atoms: C_14  and  C_15
REMARK                            x       y       z     vdW  Elec       q    Type
REMARK                         _______ _______ _______ _____ _____    ______ ____
ROOT
ATOM      1  S   UNL     1       3.123   4.664  18.658  0.00  0.00    +0.000 S 
ATOM      2  O   UNL     1       3.335   3.986  19.918  0.00  0.00    +0.000 OA
ATOM      3  O   UNL     1       2.246   4.111  17.647  0.00  0.00    +0.000 OA
ENDROOT
BRANCH   1   7
ATOM      4  C   UNL     1       1.467   8.843  19.578  0.00  0.00    +0.000 A 
ATOM      5  C   UNL     1       1.969   8.543  18.308  0.00  0.00    +0.000 A 
ATOM      6  C   UNL     1       2.483   7.275  18.026  0.00  0.00    +0.000 A 
ATOM      7  C   UNL     1       2.525   6.309  19.035  0.00  0.00    +0.000 A 
ATOM      8  C   UNL     1       2.022   6.598  20.309  0.00  0.00    +0.000 A 
ATOM      9  C   UNL     1       1.500   7.871  20.581  0.00  0.00    +0.000 A 
BRANCH   4  11
ATOM     10  C   UNL     1      -0.416  10.281  19.651  0.00  0.00    +0.000 C 
ATOM     11  O   UNL     1       0.997  10.119  19.724  0.00  0.00    +0.000 OA
ENDBRANCH   4  11
ENDBRANCH   1   7
BRANCH   1  12
ATOM     12  N   UNL     1       4.660   4.936  17.937  0.00  0.00    +0.000 NA
ATOM     13  C   UNL     1       5.822   4.547  18.775  0.00  0.00    +0.000 C 
ATOM     14  C   UNL     1       7.119   5.062  18.162  0.00  0.00    +0.000 C 
ATOM     15  C   UNL     1       7.275   4.567  16.730  0.00  0.00    +0.000 C 
ATOM     16  C   UNL     1       6.081   5.014  15.882  0.00  0.00    +0.000 C 
ATOM     17  C   UNL     1       4.764   4.547  16.503  0.00  0.00    +0.000 C 
BRANCH  16  18
ATOM     18  C   UNL     1       6.183   4.519  14.442  0.00  0.00    +0.000 C 
ATOM     19  F   UNL     1       7.130   5.180  13.741  0.00  0.00    +0.000 F 
ATOM     20  F   UNL     1       6.486   3.204  14.373  0.00  0.00    +0.000 F 
ATOM     21  F   UNL     1       5.010   4.694  13.794  0.00  0.00    +0.000 F 
ENDBRANCH  16  18
ENDBRANCH   1  12
TORSDOF 4
ENDMDL
MODEL 6
REMARK VINA RESULT:      -7.1      1.283      1.773
REMARK  Name = 
REMARK  5 active torsions:
REMARK  status: ('A' for Active; 'I' for Inactive)
REMARK    1  A    between atoms: C_1  and  O_2
REMARK    2  A    between atoms: O_2  and  C_3
REMARK    3  A    between atoms: C_6  and  S_7
REMARK    4  A    between atoms: S_7  and  N_10
REMARK    5  A    between atoms: C_14  and  C_15
REMARK                            x       y       z     vdW  Elec       q    Type
REMARK                         _______ _______ _______ _____ _____    ______ ____
ROOT
ATOM      1  S   UNL     1       3.207   4.379  18.630  0.00  0.00    +0.000 S 
ATOM      2  O   UNL     1       3.543   3.667  19.844  0.00  0.00    +0.000 OA
ATOM      3  O   UNL     1       2.312   3.804  17.648  0.00  0.00    +0.000 OA
ENDROOT
BRANCH   1   7
ATOM      4  C   UNL     1       1.558   8.457  19.932  0.00  0.00    +0.000 A 
ATOM      5  C   UNL     1       1.470   7.352  20.784  0.00  0.00    +0.000 A 
ATOM      6  C   UNL     1       1.963   6.106  20.388  0.00  0.00    +0.000 A 
ATOM      7  C   UNL     1       2.517   5.958  19.114  0.00  0.00    +0.000 A 
ATOM      8  C   UNL     1       2.613   7.059  18.255  0.00  0.00    +0.000 A 
ATOM      9  C   UNL     1       2.123   8.308  18.664  0.00  0.00    +0.000 A 
BRANCH   4  11
ATOM     10  C   UNL     1       0.723   9.610  21.827  0.00  0.00    +0.000 C 
ATOM     11  O   UNL     1       1.036   9.615  20.438  0.00  0.00    +0.000 OA
ENDBRANCH   4  11
ENDBRANCH   1   7
BRANCH   1  12
ATOM     12  N   UNL     1       4.675   4.792  17.834  0.00  0.00    +0.000 NA
ATOM     13  C   UNL     1       5.904   4.578  18.637  0.00  0.00    +0.000 C 
ATOM     14  C   UNL     1       7.108   5.209  17.950  0.00  0.00    +0.000 C 
ATOM     15  C   UNL     1       7.268   4.671  16.535  0.00  0.00    +0.000 C 
ATOM     16  C   UNL     1       5.999   4.938  15.719  0.00  0.00    +0.000 C 
ATOM     17  C   UNL     1       4.769   4.352  16.414  0.00  0.00    +0.000 C 
BRANCH  16  18
ATOM     18  C   UNL     1       6.105   4.393  14.298  0.00  0.00    +0.000 C 
ATOM     19  F   UNL     1       4.922   4.434  13.647  0.00  0.00    +0.000 F 
ATOM     20  F   UNL     1       6.994   5.083  13.549  0.00  0.00    +0.000 F 
ATOM     21  F   UNL     1       6.510   3.103  14.313  0.00  0.00    +0.000 F 
ENDBRANCH  16  18
ENDBRANCH   1  12
TORSDOF 4
ENDMDL
MODEL 7
REMARK VINA RESULT:      -7.1      0.851      1.212
REMARK  Name = 
REMARK  5 active torsions:
REMARK  status: ('A' for Active; 'I' for Inactive)
REMARK    1  A    between atoms: C_1  and  O_2
REMARK    2  A    between atoms: O_2  and  C_3
REMARK    3  A    between atoms: C_6  and  S_7
REMARK    4  A    between atoms: S_7  and  N_10
REMARK    5  A    between atoms: C_14  and  C_15
REMARK                            x       y       z     vdW  Elec       q    Type
REMARK                         _______ _______ _______ _____ _____    ______ ____
ROOT
ATOM      1  S   UNL     1       3.124   5.450  18.669  0.00  0.00    +0.000 S 
ATOM      2  O   UNL     1       3.585   4.947  19.945  0.00  0.00    +0.000 OA
ATOM      3  O   UNL     1       2.178   4.703  17.867  0.00  0.00    +0.000 OA
ENDROOT
BRANCH   1   7
ATOM      4  C   UNL     1       1.172   9.541  19.377  0.00  0.00    +0.000 A 
ATOM      5  C   UNL     1       1.691   9.211  18.121  0.00  0.00    +0.000 A 
ATOM      6  C   UNL     1       2.294   7.970  17.903  0.00  0.00    +0.000 A 
ATOM      7  C   UNL     1       2.409   7.065  18.962  0.00  0.00    +0.000 A 
ATOM      8  C   UNL     1       1.891   7.385  20.222  0.00  0.00    +0.000 A 
ATOM      9  C   UNL     1       1.279   8.630  20.429  0.00  0.00    +0.000 A 
BRANCH   4  11
ATOM     10  C   UNL     1      -0.527  11.017  18.633  0.00  0.00    +0.000 C 
ATOM     11  O   UNL     1       0.611  10.786  19.457  0.00  0.00    +0.000 OA
ENDBRANCH   4  11
ENDBRANCH   1   7
BRANCH   1  12
ATOM     12  N   UNL     1       4.505   5.776  17.697  0.00  0.00    +0.000 NA
ATOM     13  C   UNL     1       5.750   6.061  18.454  0.00  0.00    +0.000 C 
ATOM     14  C   UNL     1       6.834   6.586  17.520  0.00  0.00    +0.000 C 
ATOM     15  C   UNL     1       7.087   5.608  16.381  0.00  0.00    +0.000 C 
ATOM     16  C   UNL     1       5.795   5.362  15.596  0.00  0.00    +0.000 C 
ATOM     17  C   UNL     1       4.677   4.877  16.522  0.00  0.00    +0.000 C 
BRANCH  16  18
ATOM     18  C   UNL     1       5.996   4.367  14.457  0.00  0.00    +0.000 C 
ATOM     19  F   UNL     1       6.260   3.121  14.909  0.00  0.00    +0.000 F 
ATOM     20  F   UNL     1       4.910   4.276  13.658  0.00  0.00    +0.000 F 
ATOM     21  F   UNL     1       7.036   4.740  13.678  0.00  0.00    +0.000 F 
ENDBRANCH  16  18
ENDBRANCH   1  12
TORSDOF 4
ENDMDL
MODEL 8
REMARK VINA RESULT:      -7.0      3.952      6.773
REMARK  Name = 
REMARK  5 active torsions:
REMARK  status: ('A' for Active; 'I' for Inactive)
REMARK    1  A    between atoms: C_1  and  O_2
REMARK    2  A    between atoms: O_2  and  C_3
REMARK    3  A    between atoms: C_6  and  S_7
REMARK    4  A    between atoms: S_7  and  N_10
REMARK    5  A    between atoms: C_14  and  C_15
REMARK                            x       y       z     vdW  Elec       q    Type
REMARK                         _______ _______ _______ _____ _____    ______ ____
ROOT
ATOM      1  S   UNL     1       6.717   5.536  17.814  0.00  0.00    +0.000 S 
ATOM      2  O   UNL     1       6.987   4.384  18.647  0.00  0.00    +0.000 OA
ATOM      3  O   UNL     1       7.633   6.656  17.765  0.00  0.00    +0.000 OA
ENDROOT
BRANCH   1   7
ATOM      4  C   UNL     1       6.302   3.921  13.540  0.00  0.00    +0.000 A 
ATOM      5  C   UNL     1       7.249   4.906  13.837  0.00  0.00    +0.000 A 
ATOM      6  C   UNL     1       7.373   5.407  15.135  0.00  0.00    +0.000 A 
ATOM      7  C   UNL     1       6.517   4.942  16.137  0.00  0.00    +0.000 A 
ATOM      8  C   UNL     1       5.568   3.954  15.851  0.00  0.00    +0.000 A 
ATOM      9  C   UNL     1       5.457   3.450  14.547  0.00  0.00    +0.000 A 
BRANCH   4  11
ATOM     10  C   UNL     1       5.033   3.046  11.740  0.00  0.00    +0.000 C 
ATOM     11  O   UNL     1       6.282   3.520  12.233  0.00  0.00    +0.000 OA
ENDBRANCH   4  11
ENDBRANCH   1   7
BRANCH   1  12
ATOM     12  N   UNL     1       5.161   6.139  18.230  0.00  0.00    +0.000 NA
ATOM     13  C   UNL     1       4.516   6.978  17.190  0.00  0.00    +0.000 C 
ATOM     14  C   UNL     1       3.278   7.667  17.750  0.00  0.00    +0.000 C 
ATOM     15  C   UNL     1       2.304   6.646  18.325  0.00  0.00    +0.000 C 
ATOM     16  C   UNL     1       2.986   5.821  19.420  0.00  0.00    +0.000 C 
ATOM     17  C   UNL     1       4.258   5.156  18.892  0.00  0.00    +0.000 C 
BRANCH  16  18
ATOM     18  C   UNL     1       2.052   4.767  20.009  0.00  0.00    +0.000 C 
ATOM     19  F   UNL     1       1.164   5.300  20.876  0.00  0.00    +0.000 F 
ATOM     20  F   UNL     1       1.341   4.124  19.057  0.00  0.00    +0.000 F 
ATOM     21  F   UNL     1       2.757   3.831  20.683  0.00  0.00    +0.000 F 
ENDBRANCH  16  18
ENDBRANCH   1  12
TORSDOF 4
ENDMDL
MODEL 9
REMARK VINA RESULT:      -6.9      3.984      6.920
REMARK  Name = 
REMARK  5 active torsions:
REMARK  status: ('A' for Active; 'I' for Inactive)
REMARK    1  A    between atoms: C_1  and  O_2
REMARK    2  A    between atoms: O_2  and  C_3
REMARK    3  A    between atoms: C_6  and  S_7
REMARK    4  A    between atoms: S_7  and  N_10
REMARK    5  A    between atoms: C_14  and  C_15
REMARK                            x       y       z     vdW  Elec       q    Type
REMARK                         _______ _______ _______ _____ _____    ______ ____
ROOT
ATOM      1  S   UNL     1       7.099   5.327  16.639  0.00  0.00    +0.000 S 
ATOM      2  O   UNL     1       8.045   4.425  17.259  0.00  0.00    +0.000 OA
ATOM      3  O   UNL     1       7.421   6.723  16.430  0.00  0.00    +0.000 OA
ENDROOT
BRANCH   1   7
ATOM      4  C   UNL     1       5.933   3.665  12.525  0.00  0.00    +0.000 A 
ATOM      5  C   UNL     1       5.146   3.392  13.648  0.00  0.00    +0.000 A 
ATOM      6  C   UNL     1       5.502   3.889  14.905  0.00  0.00    +0.000 A 
ATOM      7  C   UNL     1       6.675   4.636  15.043  0.00  0.00    +0.000 A 
ATOM      8  C   UNL     1       7.468   4.917  13.924  0.00  0.00    +0.000 A 
ATOM      9  C   UNL     1       7.099   4.421  12.665  0.00  0.00    +0.000 A 
BRANCH   4  11
ATOM     10  C   UNL     1       4.068   3.158  11.154  0.00  0.00    +0.000 C 
ATOM     11  O   UNL     1       5.477   3.118  11.358  0.00  0.00    +0.000 OA
ENDBRANCH   4  11
ENDBRANCH   1   7
BRANCH   1  12
ATOM     12  N   UNL     1       5.629   5.248  17.530  0.00  0.00    +0.000 NA
ATOM     13  C   UNL     1       5.727   4.557  18.840  0.00  0.00    +0.000 C 
ATOM     14  C   UNL     1       4.340   4.314  19.421  0.00  0.00    +0.000 C 
ATOM     15  C   UNL     1       3.566   5.621  19.538  0.00  0.00    +0.000 C 
ATOM     16  C   UNL     1       3.449   6.292  18.166  0.00  0.00    +0.000 C 
ATOM     17  C   UNL     1       4.830   6.504  17.542  0.00  0.00    +0.000 C 
BRANCH  16  18
ATOM     18  C   UNL     1       2.700   7.620  18.240  0.00  0.00    +0.000 C 
ATOM     19  F   UNL     1       2.330   7.927  19.502  0.00  0.00    +0.000 F 
ATOM     20  F   UNL     1       3.442   8.652  17.782  0.00  0.00    +0.000 F 
ATOM     21  F   UNL     1       1.575   7.573  17.493  0.00  0.00    +0.000 F 
ENDBRANCH  16  18
ENDBRANCH   1  12
TORSDOF 4
ENDMDL
