MODEL 1
REMARK VINA RESULT:      -8.4      0.000      0.000
REMARK  Name = 
REMARK  8 active torsions:
REMARK  status: ('A' for Active; 'I' for Inactive)
REMARK    1  A    between atoms: C_1  and  C_2
REMARK    2  A    between atoms: C_5  and  N_6
REMARK    3  A    between atoms: C_7  and  C_9
REMARK    4  A    between atoms: C_9  and  O_10
REMARK    5  A    between atoms: O_10  and  C_11
REMARK    6  A    between atoms: C_16  and  C_17
REMARK    7  A    between atoms: N_19  and  C_20
REMARK    8  A    between atoms: C_20  and  C_21
REMARK                            x       y       z     vdW  Elec       q    Type
REMARK                         _______ _______ _______ _____ _____    ______ ____
ROOT
ATOM      1  C   UNL     1       6.172   5.703  16.934  0.00  0.00    +0.000 A 
ATOM      2  C   UNL     1       7.188   5.618  15.974  0.00  0.00    +0.000 A 
ATOM      3  C   UNL     1       7.091   4.723  14.908  0.00  0.00    +0.000 A 
ATOM      4  C   UNL     1       5.975   3.899  14.792  0.00  0.00    +0.000 A 
ATOM      5  C   UNL     1       4.939   3.997  15.723  0.00  0.00    +0.000 A 
ATOM      6  C   UNL     1       5.014   4.923  16.777  0.00  0.00    +0.000 A 
ENDROOT
BRANCH   6   7
ATOM      7  C   UNL     1       3.821   5.029  17.657  0.00  0.00    +0.000 C 
ATOM      8  O   UNL     1       2.915   4.210  17.571  0.00  0.00    +0.000 OA
ATOM      9  N   UNL     1       3.843   6.070  18.550  0.00  0.00    +0.000 N 
ATOM     10  H   UNL     1       4.563   6.778  18.467  0.00  0.00    +0.000 HD
BRANCH   9  11
ATOM     11  C   UNL     1       2.847   6.245  19.579  0.00  0.00    +0.000 C 
BRANCH  11  12
ATOM     12  C   UNL     1       2.181   7.573  19.404  0.00  0.00    +0.000 A 
ATOM     13  C   UNL     1       1.514   8.155  20.489  0.00  0.00    +0.000 A 
ATOM     14  C   UNL     1       0.817   9.346  20.328  0.00  0.00    +0.000 A 
ATOM     15  C   UNL     1       0.776   9.962  19.078  0.00  0.00    +0.000 A 
ATOM     16  C   UNL     1       1.430   9.385  17.989  0.00  0.00    +0.000 A 
ATOM     17  C   UNL     1       2.130   8.191  18.148  0.00  0.00    +0.000 A 
ENDBRANCH  11  12
ENDBRANCH   9  11
ENDBRANCH   6   7
BRANCH   1  18
ATOM     18  O   UNL     1       6.428   6.614  17.924  0.00  0.00    +0.000 OA
BRANCH  18  19
ATOM     19  C   UNL     1       7.797   6.918  18.185  0.00  0.00    +0.000 C 
BRANCH  19  21
ATOM     20  N   UNL     1       8.946   8.847  19.036  0.00  0.00    +0.000 N 
ATOM     21  C   UNL     1       8.044   8.404  18.086  0.00  0.00    +0.000 C 
ATOM     22  O   UNL     1       7.450   9.081  17.252  0.00  0.00    +0.000 OA
ATOM     23  H   UNL     1       9.460   8.136  19.544  0.00  0.00    +0.000 HD
BRANCH  20  28
ATOM     24  C   UNL     1      10.349  14.330  19.748  0.00  0.00    +0.000 C 
ATOM     25  C   UNL     1      10.004  12.884  19.575  0.00  0.00    +0.000 A 
ATOM     26  C   UNL     1       9.675  12.102  20.684  0.00  0.00    +0.000 A 
ATOM     27  C   UNL     1       9.336  10.762  20.523  0.00  0.00    +0.000 A 
ATOM     28  C   UNL     1       9.314  10.182  19.255  0.00  0.00    +0.000 A 
ATOM     29  C   UNL     1       9.673  10.951  18.145  0.00  0.00    +0.000 A 
ATOM     30  C   UNL     1      10.004  12.297  18.305  0.00  0.00    +0.000 A 
ENDBRANCH  20  28
ENDBRANCH  19  21
ENDBRANCH  18  19
ENDBRANCH   1  18
TORSDOF 7
ENDMDL
MODEL 2
REMARK VINA RESULT:      -8.3      0.550      1.063
REMARK  Name = 
REMARK  8 active torsions:
REMARK  status: ('A' for Active; 'I' for Inactive)
REMARK    1  A    between atoms: C_1  and  C_2
REMARK    2  A    between atoms: C_5  and  N_6
REMARK    3  A    between atoms: C_7  and  C_9
REMARK    4  A    between atoms: C_9  and  O_10
REMARK    5  A    between atoms: O_10  and  C_11
REMARK    6  A    between atoms: C_16  and  C_17
REMARK    7  A    between atoms: N_19  and  C_20
REMARK    8  A    between atoms: C_20  and  C_21
REMARK                            x       y       z     vdW  Elec       q    Type
REMARK                         _______ _______ _______ _____ _____    ______ ____
ROOT
ATOM      1  C   UNL     1       6.330   5.431  17.553  0.00  0.00    +0.000 A 
ATOM      2  C   UNL     1       7.243   5.353  16.493  0.00  0.00    +0.000 A 
ATOM      3  C   UNL     1       7.013   4.498  15.415  0.00  0.00    +0.000 A 
ATOM      4  C   UNL     1       5.867   3.708  15.386  0.00  0.00    +0.000 A 
ATOM      5  C   UNL     1       4.933   3.800  16.420  0.00  0.00    +0.000 A 
ATOM      6  C   UNL     1       5.140   4.687  17.489  0.00  0.00    +0.000 A 
ENDROOT
BRANCH   6   7
ATOM      7  C   UNL     1       4.045   4.793  18.488  0.00  0.00    +0.000 C 
ATOM      8  O   UNL     1       3.666   3.802  19.097  0.00  0.00    +0.000 OA
ATOM      9  N   UNL     1       3.539   6.056  18.670  0.00  0.00    +0.000 N 
ATOM     10  H   UNL     1       3.814   6.795  18.034  0.00  0.00    +0.000 HD
BRANCH   9  11
ATOM     11  C   UNL     1       2.580   6.378  19.698  0.00  0.00    +0.000 C 
BRANCH  11  12
ATOM     12  C   UNL     1       2.027   7.746  19.448  0.00  0.00    +0.000 A 
ATOM     13  C   UNL     1       1.331   8.402  20.470  0.00  0.00    +0.000 A 
ATOM     14  C   UNL     1       0.736   9.636  20.235  0.00  0.00    +0.000 A 
ATOM     15  C   UNL     1       0.828  10.221  18.973  0.00  0.00    +0.000 A 
ATOM     16  C   UNL     1       1.513   9.571  17.946  0.00  0.00    +0.000 A 
ATOM     17  C   UNL     1       2.110   8.334  18.179  0.00  0.00    +0.000 A 
ENDBRANCH  11  12
ENDBRANCH   9  11
ENDBRANCH   6   7
BRANCH   1  18
ATOM     18  O   UNL     1       6.711   6.300  18.541  0.00  0.00    +0.000 OA
BRANCH  18  19
ATOM     19  C   UNL     1       8.071   6.730  18.536  0.00  0.00    +0.000 C 
BRANCH  19  21
ATOM     20  N   UNL     1       9.028   8.838  19.171  0.00  0.00    +0.000 N 
ATOM     21  C   UNL     1       8.161   8.217  18.291  0.00  0.00    +0.000 C 
ATOM     22  O   UNL     1       7.487   8.746  17.412  0.00  0.00    +0.000 OA
ATOM     23  H   UNL     1       9.621   8.235  19.730  0.00  0.00    +0.000 HD
BRANCH  20  28
ATOM     24  C   UNL     1      10.084  14.421  19.676  0.00  0.00    +0.000 C 
ATOM     25  C   UNL     1       9.783  12.962  19.531  0.00  0.00    +0.000 A 
ATOM     26  C   UNL     1       9.702  12.383  18.264  0.00  0.00    +0.000 A 
ATOM     27  C   UNL     1       9.440  11.023  18.128  0.00  0.00    +0.000 A 
ATOM     28  C   UNL     1       9.260  10.218  19.253  0.00  0.00    +0.000 A 
ATOM     29  C   UNL     1       9.308  10.799  20.524  0.00  0.00    +0.000 A 
ATOM     30  C   UNL     1       9.580  12.160  20.660  0.00  0.00    +0.000 A 
ENDBRANCH  20  28
ENDBRANCH  19  21
ENDBRANCH  18  19
ENDBRANCH   1  18
TORSDOF 7
ENDMDL
MODEL 3
REMARK VINA RESULT:      -8.3      4.734      7.759
REMARK  Name = 
REMARK  8 active torsions:
REMARK  status: ('A' for Active; 'I' for Inactive)
REMARK    1  A    between atoms: C_1  and  C_2
REMARK    2  A    between atoms: C_5  and  N_6
REMARK    3  A    between atoms: C_7  and  C_9
REMARK    4  A    between atoms: C_9  and  O_10
REMARK    5  A    between atoms: O_10  and  C_11
REMARK    6  A    between atoms: C_16  and  C_17
REMARK    7  A    between atoms: N_19  and  C_20
REMARK    8  A    between atoms: C_20  and  C_21
REMARK                            x       y       z     vdW  Elec       q    Type
REMARK                         _______ _______ _______ _____ _____    ______ ____
ROOT
ATOM      1  C   UNL     1       2.717   4.740  18.862  0.00  0.00    +0.000 A 
ATOM      2  C   UNL     1       1.507   4.121  19.202  0.00  0.00    +0.000 A 
ATOM      3  C   UNL     1       1.250   2.801  18.828  0.00  0.00    +0.000 A 
ATOM      4  C   UNL     1       2.202   2.086  18.106  0.00  0.00    +0.000 A 
ATOM      5  C   UNL     1       3.425   2.680  17.790  0.00  0.00    +0.000 A 
ATOM      6  C   UNL     1       3.704   3.995  18.196  0.00  0.00    +0.000 A 
ENDROOT
BRANCH   6   7
ATOM      7  C   UNL     1       5.069   4.506  17.905  0.00  0.00    +0.000 C 
ATOM      8  O   UNL     1       5.810   4.845  18.818  0.00  0.00    +0.000 OA
ATOM      9  N   UNL     1       5.411   4.538  16.576  0.00  0.00    +0.000 N 
ATOM     10  H   UNL     1       4.697   4.368  15.878  0.00  0.00    +0.000 HD
BRANCH   9  11
ATOM     11  C   UNL     1       6.738   4.861  16.113  0.00  0.00    +0.000 C 
BRANCH  11  12
ATOM     12  C   UNL     1       6.836   4.571  14.649  0.00  0.00    +0.000 A 
ATOM     13  C   UNL     1       7.684   5.348  13.850  0.00  0.00    +0.000 A 
ATOM     14  C   UNL     1       7.729   5.153  12.475  0.00  0.00    +0.000 A 
ATOM     15  C   UNL     1       6.919   4.183  11.887  0.00  0.00    +0.000 A 
ATOM     16  C   UNL     1       6.065   3.409  12.672  0.00  0.00    +0.000 A 
ATOM     17  C   UNL     1       6.018   3.603  14.051  0.00  0.00    +0.000 A 
ENDBRANCH  11  12
ENDBRANCH   9  11
ENDBRANCH   6   7
BRANCH   1  18
ATOM     18  O   UNL     1       2.805   6.040  19.284  0.00  0.00    +0.000 OA
BRANCH  18  19
ATOM     19  C   UNL     1       2.798   7.050  18.276  0.00  0.00    +0.000 C 
BRANCH  19  21
ATOM     20  N   UNL     1       1.678   8.208  20.055  0.00  0.00    +0.000 N 
ATOM     21  C   UNL     1       1.949   8.224  18.700  0.00  0.00    +0.000 C 
ATOM     22  O   UNL     1       1.556   9.041  17.872  0.00  0.00    +0.000 OA
ATOM     23  H   UNL     1       2.206   7.552  20.619  0.00  0.00    +0.000 HD
BRANCH  20  28
ATOM     24  C   UNL     1      -1.578  11.865  22.981  0.00  0.00    +0.000 C 
ATOM     25  C   UNL     1      -0.747  10.898  22.200  0.00  0.00    +0.000 A 
ATOM     26  C   UNL     1      -0.545  11.089  20.831  0.00  0.00    +0.000 A 
ATOM     27  C   UNL     1       0.243  10.201  20.107  0.00  0.00    +0.000 A 
ATOM     28  C   UNL     1       0.847   9.111  20.734  0.00  0.00    +0.000 A 
ATOM     29  C   UNL     1       0.623   8.896  22.097  0.00  0.00    +0.000 A 
ATOM     30  C   UNL     1      -0.160   9.792  22.825  0.00  0.00    +0.000 A 
ENDBRANCH  20  28
ENDBRANCH  19  21
ENDBRANCH  18  19
ENDBRANCH   1  18
TORSDOF 7
ENDMDL
MODEL 4
REMARK VINA RESULT:      -8.3      4.633      7.748
REMARK  Name = 
REMARK  8 active torsions:
REMARK  status: ('A' for Active; 'I' for Inactive)
REMARK    1  A    between atoms: C_1  and  C_2
REMARK    2  A    between atoms: C_5  and  N_6
REMARK    3  A    between atoms: C_7  and  C_9
REMARK    4  A    between atoms: C_9  and  O_10
REMARK    5  A    between atoms: O_10  and  C_11
REMARK    6  A    between atoms: C_16  and  C_17
REMARK    7  A    between atoms: N_19  and  C_20
REMARK    8  A    between atoms: C_20  and  C_21
REMARK                            x       y       z     vdW  Elec       q    Type
REMARK                         _______ _______ _______ _____ _____    ______ ____
ROOT
ATOM      1  C   UNL     1       2.697   4.621  18.141  0.00  0.00    +0.000 A 
ATOM      2  C   UNL     1       1.483   4.067  18.569  0.00  0.00    +0.000 A 
ATOM      3  C   UNL     1       1.366   2.696  18.802  0.00  0.00    +0.000 A 
ATOM      4  C   UNL     1       2.464   1.862  18.608  0.00  0.00    +0.000 A 
ATOM      5  C   UNL     1       3.688   2.405  18.215  0.00  0.00    +0.000 A 
ATOM      6  C   UNL     1       3.822   3.789  18.015  0.00  0.00    +0.000 A 
ENDROOT
BRANCH   6   7
ATOM      7  C   UNL     1       5.186   4.288  17.699  0.00  0.00    +0.000 C 
ATOM      8  O   UNL     1       6.095   4.157  18.509  0.00  0.00    +0.000 OA
ATOM      9  N   UNL     1       5.328   4.860  16.460  0.00  0.00    +0.000 N 
ATOM     10  H   UNL     1       4.501   5.049  15.905  0.00  0.00    +0.000 HD
BRANCH   9  11
ATOM     11  C   UNL     1       6.604   5.264  15.922  0.00  0.00    +0.000 C 
BRANCH  11  12
ATOM     12  C   UNL     1       6.729   4.765  14.517  0.00  0.00    +0.000 A 
ATOM     13  C   UNL     1       7.698   5.322  13.674  0.00  0.00    +0.000 A 
ATOM     14  C   UNL     1       7.778   4.934  12.342  0.00  0.00    +0.000 A 
ATOM     15  C   UNL     1       6.884   3.989  11.841  0.00  0.00    +0.000 A 
ATOM     16  C   UNL     1       5.910   3.434  12.670  0.00  0.00    +0.000 A 
ATOM     17  C   UNL     1       5.828   3.821  14.006  0.00  0.00    +0.000 A 
ENDBRANCH  11  12
ENDBRANCH   9  11
ENDBRANCH   6   7
BRANCH   1  18
ATOM     18  O   UNL     1       2.640   5.974  17.938  0.00  0.00    +0.000 OA
BRANCH  18  19
ATOM     19  C   UNL     1       3.127   6.807  18.989  0.00  0.00    +0.000 C 
BRANCH  19  21
ATOM     20  N   UNL     1       1.713   8.747  18.984  0.00  0.00    +0.000 N 
ATOM     21  C   UNL     1       1.995   7.563  19.641  0.00  0.00    +0.000 C 
ATOM     22  O   UNL     1       1.456   7.128  20.655  0.00  0.00    +0.000 OA
ATOM     23  H   UNL     1       2.144   8.880  18.077  0.00  0.00    +0.000 HD
BRANCH  20  28
ATOM     24  C   UNL     1      -2.244  12.540  20.563  0.00  0.00    +0.000 C 
ATOM     25  C   UNL     1      -1.187  11.566  20.148  0.00  0.00    +0.000 A 
ATOM     26  C   UNL     1      -0.117  11.284  20.999  0.00  0.00    +0.000 A 
ATOM     27  C   UNL     1       0.857  10.365  20.622  0.00  0.00    +0.000 A 
ATOM     28  C   UNL     1       0.777   9.707  19.395  0.00  0.00    +0.000 A 
ATOM     29  C   UNL     1      -0.275  10.007  18.525  0.00  0.00    +0.000 A 
ATOM     30  C   UNL     1      -1.257  10.922  18.906  0.00  0.00    +0.000 A 
ENDBRANCH  20  28
ENDBRANCH  19  21
ENDBRANCH  18  19
ENDBRANCH   1  18
TORSDOF 7
ENDMDL
MODEL 5
REMARK VINA RESULT:      -8.3      0.988      1.347
REMARK  Name = 
REMARK  8 active torsions:
REMARK  status: ('A' for Active; 'I' for Inactive)
REMARK    1  A    between atoms: C_1  and  C_2
REMARK    2  A    between atoms: C_5  and  N_6
REMARK    3  A    between atoms: C_7  and  C_9
REMARK    4  A    between atoms: C_9  and  O_10
REMARK    5  A    between atoms: O_10  and  C_11
REMARK    6  A    between atoms: C_16  and  C_17
REMARK    7  A    between atoms: N_19  and  C_20
REMARK    8  A    between atoms: C_20  and  C_21
REMARK                            x       y       z     vdW  Elec       q    Type
REMARK                         _______ _______ _______ _____ _____    ______ ____
ROOT
ATOM      1  C   UNL     1       6.344   6.166  16.715  0.00  0.00    +0.000 A 
ATOM      2  C   UNL     1       6.846   5.884  15.437  0.00  0.00    +0.000 A 
ATOM      3  C   UNL     1       6.645   4.634  14.851  0.00  0.00    +0.000 A 
ATOM      4  C   UNL     1       5.940   3.649  15.538  0.00  0.00    +0.000 A 
ATOM      5  C   UNL     1       5.407   3.928  16.797  0.00  0.00    +0.000 A 
ATOM      6  C   UNL     1       5.573   5.196  17.377  0.00  0.00    +0.000 A 
ENDROOT
BRANCH   6   7
ATOM      7  C   UNL     1       4.882   5.433  18.671  0.00  0.00    +0.000 C 
ATOM      8  O   UNL     1       5.502   5.364  19.725  0.00  0.00    +0.000 OA
ATOM      9  N   UNL     1       3.550   5.745  18.575  0.00  0.00    +0.000 N 
ATOM     10  H   UNL     1       3.083   5.651  17.680  0.00  0.00    +0.000 HD
BRANCH   9  11
ATOM     11  C   UNL     1       2.753   6.151  19.707  0.00  0.00    +0.000 C 
BRANCH  11  12
ATOM     12  C   UNL     1       2.122   7.477  19.419  0.00  0.00    +0.000 A 
ATOM     13  C   UNL     1       2.267   8.045  18.148  0.00  0.00    +0.000 A 
ATOM     14  C   UNL     1       1.761   9.312  17.883  0.00  0.00    +0.000 A 
ATOM     15  C   UNL     1       1.113  10.024  18.890  0.00  0.00    +0.000 A 
ATOM     16  C   UNL     1       0.971   9.470  20.163  0.00  0.00    +0.000 A 
ATOM     17  C   UNL     1       1.477   8.200  20.431  0.00  0.00    +0.000 A 
ENDBRANCH  11  12
ENDBRANCH   9  11
ENDBRANCH   6   7
BRANCH   1  18
ATOM     18  O   UNL     1       6.644   7.427  17.155  0.00  0.00    +0.000 OA
BRANCH  18  19
ATOM     19  C   UNL     1       7.858   7.586  17.888  0.00  0.00    +0.000 C 
BRANCH  19  21
ATOM     20  N   UNL     1       9.114   9.249  19.079  0.00  0.00    +0.000 N 
ATOM     21  C   UNL     1       8.184   9.048  18.076  0.00  0.00    +0.000 C 
ATOM     22  O   UNL     1       7.623   9.904  17.398  0.00  0.00    +0.000 OA
ATOM     23  H   UNL     1       9.592   8.428  19.431  0.00  0.00    +0.000 HD
BRANCH  20  28
ATOM     24  C   UNL     1      10.882  14.395  20.791  0.00  0.00    +0.000 C 
ATOM     25  C   UNL     1      10.434  13.034  20.361  0.00  0.00    +0.000 A 
ATOM     26  C   UNL     1       9.667  12.243  21.219  0.00  0.00    +0.000 A 
ATOM     27  C   UNL     1       9.235  10.984  20.814  0.00  0.00    +0.000 A 
ATOM     28  C   UNL     1       9.554  10.496  19.547  0.00  0.00    +0.000 A 
ATOM     29  C   UNL     1      10.348  11.270  18.696  0.00  0.00    +0.000 A 
ATOM     30  C   UNL     1      10.774  12.536  19.098  0.00  0.00    +0.000 A 
ENDBRANCH  20  28
ENDBRANCH  19  21
ENDBRANCH  18  19
ENDBRANCH   1  18
TORSDOF 7
ENDMDL
MODEL 6
REMARK VINA RESULT:      -8.3      4.644      6.349
REMARK  Name = 
REMARK  8 active torsions:
REMARK  status: ('A' for Active; 'I' for Inactive)
REMARK    1  A    between atoms: C_1  and  C_2
REMARK    2  A    between atoms: C_5  and  N_6
REMARK    3  A    between atoms: C_7  and  C_9
REMARK    4  A    between atoms: C_9  and  O_10
REMARK    5  A    between atoms: O_10  and  C_11
REMARK    6  A    between atoms: C_16  and  C_17
REMARK    7  A    between atoms: N_19  and  C_20
REMARK    8  A    between atoms: C_20  and  C_21
REMARK                            x       y       z     vdW  Elec       q    Type
REMARK                         _______ _______ _______ _____ _____    ______ ____
ROOT
ATOM      1  C   UNL     1       5.076   5.439  16.644  0.00  0.00    +0.000 A 
ATOM      2  C   UNL     1       5.333   5.756  15.304  0.00  0.00    +0.000 A 
ATOM      3  C   UNL     1       6.582   5.500  14.736  0.00  0.00    +0.000 A 
ATOM      4  C   UNL     1       7.590   4.925  15.504  0.00  0.00    +0.000 A 
ATOM      5  C   UNL     1       7.337   4.573  16.831  0.00  0.00    +0.000 A 
ATOM      6  C   UNL     1       6.070   4.794  17.398  0.00  0.00    +0.000 A 
ENDROOT
BRANCH   6   7
ATOM      7  C   UNL     1       5.863   4.293  18.782  0.00  0.00    +0.000 C 
ATOM      8  O   UNL     1       6.307   4.915  19.737  0.00  0.00    +0.000 OA
ATOM      9  N   UNL     1       5.138   3.132  18.881  0.00  0.00    +0.000 N 
ATOM     10  H   UNL     1       4.922   2.610  18.040  0.00  0.00    +0.000 HD
BRANCH   9  11
ATOM     11  C   UNL     1       4.711   2.577  20.142  0.00  0.00    +0.000 C 
BRANCH  11  12
ATOM     12  C   UNL     1       3.241   2.797  20.308  0.00  0.00    +0.000 A 
ATOM     13  C   UNL     1       2.659   2.626  21.570  0.00  0.00    +0.000 A 
ATOM     14  C   UNL     1       1.283   2.742  21.731  0.00  0.00    +0.000 A 
ATOM     15  C   UNL     1       0.478   3.024  20.628  0.00  0.00    +0.000 A 
ATOM     16  C   UNL     1       1.047   3.187  19.365  0.00  0.00    +0.000 A 
ATOM     17  C   UNL     1       2.426   3.071  19.201  0.00  0.00    +0.000 A 
ENDBRANCH  11  12
ENDBRANCH   9  11
ENDBRANCH   6   7
BRANCH   1  18
ATOM     18  O   UNL     1       3.812   5.772  17.053  0.00  0.00    +0.000 OA
BRANCH  18  19
ATOM     19  C   UNL     1       3.565   7.148  17.339  0.00  0.00    +0.000 C 
BRANCH  19  21
ATOM     20  N   UNL     1       2.083   8.464  18.692  0.00  0.00    +0.000 N 
ATOM     21  C   UNL     1       2.825   7.298  18.646  0.00  0.00    +0.000 C 
ATOM     22  O   UNL     1       2.942   6.456  19.531  0.00  0.00    +0.000 OA
ATOM     23  H   UNL     1       1.971   8.970  17.821  0.00  0.00    +0.000 HD
BRANCH  20  28
ATOM     24  C   UNL     1      -1.016  10.417  23.065  0.00  0.00    +0.000 C 
ATOM     25  C   UNL     1      -0.180   9.910  21.932  0.00  0.00    +0.000 A 
ATOM     26  C   UNL     1       0.570   8.741  22.080  0.00  0.00    +0.000 A 
ATOM     27  C   UNL     1       1.334   8.259  21.022  0.00  0.00    +0.000 A 
ATOM     28  C   UNL     1       1.358   8.928  19.799  0.00  0.00    +0.000 A 
ATOM     29  C   UNL     1       0.634  10.115  19.655  0.00  0.00    +0.000 A 
ATOM     30  C   UNL     1      -0.139  10.595  20.712  0.00  0.00    +0.000 A 
ENDBRANCH  20  28
ENDBRANCH  19  21
ENDBRANCH  18  19
ENDBRANCH   1  18
TORSDOF 7
ENDMDL
MODEL 7
REMARK VINA RESULT:      -8.3      3.289      6.429
REMARK  Name = 
REMARK  8 active torsions:
REMARK  status: ('A' for Active; 'I' for Inactive)
REMARK    1  A    between atoms: C_1  and  C_2
REMARK    2  A    between atoms: C_5  and  N_6
REMARK    3  A    between atoms: C_7  and  C_9
REMARK    4  A    between atoms: C_9  and  O_10
REMARK    5  A    between atoms: O_10  and  C_11
REMARK    6  A    between atoms: C_16  and  C_17
REMARK    7  A    between atoms: N_19  and  C_20
REMARK    8  A    between atoms: C_20  and  C_21
REMARK                            x       y       z     vdW  Elec       q    Type
REMARK                         _______ _______ _______ _____ _____    ______ ____
ROOT
ATOM      1  C   UNL     1       5.683   6.685  17.436  0.00  0.00    +0.000 A 
ATOM      2  C   UNL     1       6.500   7.818  17.342  0.00  0.00    +0.000 A 
ATOM      3  C   UNL     1       7.774   7.829  17.911  0.00  0.00    +0.000 A 
ATOM      4  C   UNL     1       8.245   6.705  18.584  0.00  0.00    +0.000 A 
ATOM      5  C   UNL     1       7.453   5.557  18.656  0.00  0.00    +0.000 A 
ATOM      6  C   UNL     1       6.185   5.527  18.052  0.00  0.00    +0.000 A 
ENDROOT
BRANCH   6   7
ATOM      7  C   UNL     1       5.460   4.230  18.091  0.00  0.00    +0.000 C 
ATOM      8  O   UNL     1       5.131   3.675  17.051  0.00  0.00    +0.000 OA
ATOM      9  N   UNL     1       5.227   3.727  19.346  0.00  0.00    +0.000 N 
ATOM     10  H   UNL     1       5.411   4.310  20.154  0.00  0.00    +0.000 HD
BRANCH   9  11
ATOM     11  C   UNL     1       4.672   2.416  19.578  0.00  0.00    +0.000 C 
BRANCH  11  12
ATOM     12  C   UNL     1       3.188   2.527  19.736  0.00  0.00    +0.000 A 
ATOM     13  C   UNL     1       2.356   2.208  18.656  0.00  0.00    +0.000 A 
ATOM     14  C   UNL     1       0.981   2.384  18.753  0.00  0.00    +0.000 A 
ATOM     15  C   UNL     1       0.428   2.887  19.929  0.00  0.00    +0.000 A 
ATOM     16  C   UNL     1       1.249   3.216  21.008  0.00  0.00    +0.000 A 
ATOM     17  C   UNL     1       2.628   3.040  20.914  0.00  0.00    +0.000 A 
ENDBRANCH  11  12
ENDBRANCH   9  11
ENDBRANCH   6   7
BRANCH   1  18
ATOM     18  O   UNL     1       4.457   6.843  16.845  0.00  0.00    +0.000 OA
BRANCH  18  19
ATOM     19  C   UNL     1       3.313   6.503  17.627  0.00  0.00    +0.000 C 
BRANCH  19  21
ATOM     20  N   UNL     1       2.200   7.594  19.452  0.00  0.00    +0.000 N 
ATOM     21  C   UNL     1       2.633   7.746  18.147  0.00  0.00    +0.000 C 
ATOM     22  O   UNL     1       2.489   8.728  17.425  0.00  0.00    +0.000 OA
ATOM     23  H   UNL     1       2.536   6.780  19.953  0.00  0.00    +0.000 HD
BRANCH  20  28
ATOM     24  C   UNL     1      -0.937  11.443  22.261  0.00  0.00    +0.000 C 
ATOM     25  C   UNL     1      -0.092  10.442  21.538  0.00  0.00    +0.000 A 
ATOM     26  C   UNL     1       0.478   9.372  22.231  0.00  0.00    +0.000 A 
ATOM     27  C   UNL     1       1.250   8.430  21.557  0.00  0.00    +0.000 A 
ATOM     28  C   UNL     1       1.460   8.536  20.182  0.00  0.00    +0.000 A 
ATOM     29  C   UNL     1       0.918   9.622  19.489  0.00  0.00    +0.000 A 
ATOM     30  C   UNL     1       0.138  10.561  20.163  0.00  0.00    +0.000 A 
ENDBRANCH  20  28
ENDBRANCH  19  21
ENDBRANCH  18  19
ENDBRANCH   1  18
TORSDOF 7
ENDMDL
MODEL 8
REMARK VINA RESULT:      -8.2      3.206      7.123
REMARK  Name = 
REMARK  8 active torsions:
REMARK  status: ('A' for Active; 'I' for Inactive)
REMARK    1  A    between atoms: C_1  and  C_2
REMARK    2  A    between atoms: C_5  and  N_6
REMARK    3  A    between atoms: C_7  and  C_9
REMARK    4  A    between atoms: C_9  and  O_10
REMARK    5  A    between atoms: O_10  and  C_11
REMARK    6  A    between atoms: C_16  and  C_17
REMARK    7  A    between atoms: N_19  and  C_20
REMARK    8  A    between atoms: C_20  and  C_21
REMARK                            x       y       z     vdW  Elec       q    Type
REMARK                         _______ _______ _______ _____ _____    ______ ____
ROOT
ATOM      1  C   UNL     1       2.702   4.826  19.303  0.00  0.00    +0.000 A 
ATOM      2  C   UNL     1       1.556   4.718  20.101  0.00  0.00    +0.000 A 
ATOM      3  C   UNL     1       0.831   3.527  20.152  0.00  0.00    +0.000 A 
ATOM      4  C   UNL     1       1.245   2.429  19.402  0.00  0.00    +0.000 A 
ATOM      5  C   UNL     1       2.404   2.513  18.629  0.00  0.00    +0.000 A 
ATOM      6  C   UNL     1       3.159   3.697  18.603  0.00  0.00    +0.000 A 
ENDROOT
BRANCH   6   7
ATOM      7  C   UNL     1       4.432   3.659  17.836  0.00  0.00    +0.000 C 
ATOM      8  O   UNL     1       4.427   3.378  16.645  0.00  0.00    +0.000 OA
ATOM      9  N   UNL     1       5.557   3.980  18.554  0.00  0.00    +0.000 N 
ATOM     10  H   UNL     1       5.492   4.070  19.561  0.00  0.00    +0.000 HD
BRANCH   9  11
ATOM     11  C   UNL     1       6.856   4.141  17.948  0.00  0.00    +0.000 C 
BRANCH  11  12
ATOM     12  C   UNL     1       7.184   5.597  17.857  0.00  0.00    +0.000 A 
ATOM     13  C   UNL     1       8.078   6.159  18.777  0.00  0.00    +0.000 A 
ATOM     14  C   UNL     1       8.333   7.525  18.765  0.00  0.00    +0.000 A 
ATOM     15  C   UNL     1       7.690   8.342  17.837  0.00  0.00    +0.000 A 
ATOM     16  C   UNL     1       6.790   7.794  16.922  0.00  0.00    +0.000 A 
ATOM     17  C   UNL     1       6.533   6.424  16.932  0.00  0.00    +0.000 A 
ENDBRANCH  11  12
ENDBRANCH   9  11
ENDBRANCH   6   7
BRANCH   1  18
ATOM     18  O   UNL     1       3.286   6.065  19.348  0.00  0.00    +0.000 OA
BRANCH  18  19
ATOM     19  C   UNL     1       3.000   6.954  18.269  0.00  0.00    +0.000 C 
BRANCH  19  21
ATOM     20  N   UNL     1       1.964   8.142  20.079  0.00  0.00    +0.000 N 
ATOM     21  C   UNL     1       2.033   8.028  18.703  0.00  0.00    +0.000 C 
ATOM     22  O   UNL     1       1.393   8.665  17.871  0.00  0.00    +0.000 OA
ATOM     23  H   UNL     1       2.672   7.652  20.614  0.00  0.00    +0.000 HD
BRANCH  20  28
ATOM     24  C   UNL     1      -1.531  11.461  23.130  0.00  0.00    +0.000 C 
ATOM     25  C   UNL     1      -0.629  10.596  22.307  0.00  0.00    +0.000 A 
ATOM     26  C   UNL     1       0.188  11.164  21.327  0.00  0.00    +0.000 A 
ATOM     27  C   UNL     1       1.040  10.364  20.573  0.00  0.00    +0.000 A 
ATOM     28  C   UNL     1       1.097   8.987  20.788  0.00  0.00    +0.000 A 
ATOM     29  C   UNL     1       0.260   8.408  21.745  0.00  0.00    +0.000 A 
ATOM     30  C   UNL     1      -0.589   9.212  22.507  0.00  0.00    +0.000 A 
ENDBRANCH  20  28
ENDBRANCH  19  21
ENDBRANCH  18  19
ENDBRANCH   1  18
TORSDOF 7
ENDMDL
MODEL 9
REMARK VINA RESULT:      -8.2      1.774      2.985
REMARK  Name = 
REMARK  8 active torsions:
REMARK  status: ('A' for Active; 'I' for Inactive)
REMARK    1  A    between atoms: C_1  and  C_2
REMARK    2  A    between atoms: C_5  and  N_6
REMARK    3  A    between atoms: C_7  and  C_9
REMARK    4  A    between atoms: C_9  and  O_10
REMARK    5  A    between atoms: O_10  and  C_11
REMARK    6  A    between atoms: C_16  and  C_17
REMARK    7  A    between atoms: N_19  and  C_20
REMARK    8  A    between atoms: C_20  and  C_21
REMARK                            x       y       z     vdW  Elec       q    Type
REMARK                         _______ _______ _______ _____ _____    ______ ____
ROOT
ATOM      1  C   UNL     1       6.437   6.179  16.455  0.00  0.00    +0.000 A 
ATOM      2  C   UNL     1       7.061   5.949  15.222  0.00  0.00    +0.000 A 
ATOM      3  C   UNL     1       6.959   4.709  14.590  0.00  0.00    +0.000 A 
ATOM      4  C   UNL     1       6.230   3.683  15.186  0.00  0.00    +0.000 A 
ATOM      5  C   UNL     1       5.575   3.910  16.397  0.00  0.00    +0.000 A 
ATOM      6  C   UNL     1       5.643   5.167  17.020  0.00  0.00    +0.000 A 
ENDROOT
BRANCH   6   7
ATOM      7  C   UNL     1       4.830   5.345  18.251  0.00  0.00    +0.000 C 
ATOM      8  O   UNL     1       5.344   5.221  19.355  0.00  0.00    +0.000 OA
ATOM      9  N   UNL     1       3.514   5.672  18.041  0.00  0.00    +0.000 N 
ATOM     10  H   UNL     1       3.137   5.625  17.102  0.00  0.00    +0.000 HD
BRANCH   9  11
ATOM     11  C   UNL     1       2.612   6.028  19.108  0.00  0.00    +0.000 C 
BRANCH  11  12
ATOM     12  C   UNL     1       2.155   4.786  19.806  0.00  0.00    +0.000 A 
ATOM     13  C   UNL     1       1.327   3.882  19.130  0.00  0.00    +0.000 A 
ATOM     14  C   UNL     1       0.822   2.765  19.784  0.00  0.00    +0.000 A 
ATOM     15  C   UNL     1       1.138   2.546  21.124  0.00  0.00    +0.000 A 
ATOM     16  C   UNL     1       1.956   3.444  21.810  0.00  0.00    +0.000 A 
ATOM     17  C   UNL     1       2.463   4.565  21.156  0.00  0.00    +0.000 A 
ENDBRANCH  11  12
ENDBRANCH   9  11
ENDBRANCH   6   7
BRANCH   1  18
ATOM     18  O   UNL     1       6.650   7.437  16.951  0.00  0.00    +0.000 OA
BRANCH  18  19
ATOM     19  C   UNL     1       7.778   7.613  17.807  0.00  0.00    +0.000 C 
BRANCH  19  21
ATOM     20  N   UNL     1       9.056   9.297  18.944  0.00  0.00    +0.000 N 
ATOM     21  C   UNL     1       8.117   9.076  17.953  0.00  0.00    +0.000 C 
ATOM     22  O   UNL     1       7.558   9.919  17.257  0.00  0.00    +0.000 OA
ATOM     23  H   UNL     1       9.530   8.481  19.314  0.00  0.00    +0.000 HD
BRANCH  20  28
ATOM     24  C   UNL     1      10.949  14.316  20.883  0.00  0.00    +0.000 C 
ATOM     25  C   UNL     1      10.435  13.013  20.358  0.00  0.00    +0.000 A 
ATOM     26  C   UNL     1      10.645  12.661  19.023  0.00  0.00    +0.000 A 
ATOM     27  C   UNL     1      10.183  11.441  18.538  0.00  0.00    +0.000 A 
ATOM     28  C   UNL     1       9.510  10.551  19.375  0.00  0.00    +0.000 A 
ATOM     29  C   UNL     1       9.270  10.912  20.704  0.00  0.00    +0.000 A 
ATOM     30  C   UNL     1       9.741  12.130  21.193  0.00  0.00    +0.000 A 
ENDBRANCH  20  28
ENDBRANCH  19  21
ENDBRANCH  18  19
ENDBRANCH   1  18
TORSDOF 7
ENDMDL
