MODEL 1
REMARK VINA RESULT:      -8.2      0.000      0.000
REMARK  Name = 
REMARK  5 active torsions:
REMARK  status: ('A' for Active; 'I' for Inactive)
REMARK    1  A    between atoms: C_2  and  C_20
REMARK    2  A    between atoms: N_3  and  C_4
REMARK    3  A    between atoms: C_7  and  S_8
REMARK    4  A    between atoms: S_8  and  N_11
REMARK    5  A    between atoms: N_11  and  C_12
REMARK                            x       y       z     vdW  Elec       q    Type
REMARK                         _______ _______ _______ _____ _____    ______ ____
ROOT
ATOM      1  C   UNL     1       2.004   7.517  19.251  0.00  0.00    +0.000 A 
ATOM      2  C   UNL     1       2.450   7.008  18.026  0.00  0.00    +0.000 A 
ATOM      3  C   UNL     1       2.963   5.716  17.917  0.00  0.00    +0.000 A 
ATOM      4  C   UNL     1       3.066   4.917  19.049  0.00  0.00    +0.000 A 
ATOM      5  C   UNL     1       2.626   5.397  20.288  0.00  0.00    +0.000 A 
ATOM      6  C   UNL     1       2.112   6.704  20.389  0.00  0.00    +0.000 A 
ENDROOT
BRANCH   1   9
ATOM      7  O   UNL     1       2.166   9.732  17.370  0.00  0.00    +0.000 OA
ATOM      8  C   UNL     1       1.571   9.836  18.435  0.00  0.00    +0.000 C 
ATOM      9  N   UNL     1       1.447   8.814  19.376  0.00  0.00    +0.000 N 
ATOM     10  H   UNL     1       0.840   9.011  20.167  0.00  0.00    +0.000 HD
BRANCH   8  11
ATOM     11  C   UNL     1       0.877  11.125  18.782  0.00  0.00    +0.000 A 
ATOM     12  N   UNL     1       1.702  12.108  19.269  0.00  0.00    +0.000 NA
ATOM     13  C   UNL     1       1.115  13.296  19.573  0.00  0.00    +0.000 A 
ATOM     14  C   UNL     1      -0.242  13.549  19.436  0.00  0.00    +0.000 A 
ATOM     15 CL   UNL     1      -0.908  15.072  19.858  0.00  0.00    +0.000 Cl
ATOM     16  C   UNL     1      -1.061  12.540  18.950  0.00  0.00    +0.000 A 
ATOM     17  C   UNL     1      -0.505  11.303  18.612  0.00  0.00    +0.000 A 
ATOM     18 CL   UNL     1      -1.615  10.117  18.031  0.00  0.00    +0.000 Cl
ENDBRANCH   8  11
ENDBRANCH   1   9
BRANCH   4  19
ATOM     19  S   UNL     1       3.724   3.269  18.868  0.00  0.00    +0.000 S 
ATOM     20  O   UNL     1       3.261   2.500  19.999  0.00  0.00    +0.000 OA
ATOM     21  O   UNL     1       3.478   2.831  17.511  0.00  0.00    +0.000 OA
BRANCH  19  22
ATOM     22  N   UNL     1       5.384   3.470  19.092  0.00  0.00    +0.000 N 
ATOM     23  H   UNL     1       5.707   3.220  20.024  0.00  0.00    +0.000 HD
BRANCH  22  24
ATOM     24  C   UNL     1       6.076   4.487  18.382  0.00  0.00    +0.000 A 
ATOM     25  C   UNL     1       6.699   5.524  19.078  0.00  0.00    +0.000 A 
ATOM     26  C   UNL     1       7.343   6.544  18.378  0.00  0.00    +0.000 A 
ATOM     27  C   UNL     1       7.384   6.514  16.984  0.00  0.00    +0.000 A 
ATOM     28  C   UNL     1       6.771   5.472  16.289  0.00  0.00    +0.000 A 
ATOM     29  C   UNL     1       6.104   4.464  16.988  0.00  0.00    +0.000 A 
ENDBRANCH  22  24
ENDBRANCH  19  22
ENDBRANCH   4  19
TORSDOF 5
ENDMDL
MODEL 2
REMARK VINA RESULT:      -8.2      2.137      3.343
REMARK  Name = 
REMARK  5 active torsions:
REMARK  status: ('A' for Active; 'I' for Inactive)
REMARK    1  A    between atoms: C_2  and  C_20
REMARK    2  A    between atoms: N_3  and  C_4
REMARK    3  A    between atoms: C_7  and  S_8
REMARK    4  A    between atoms: S_8  and  N_11
REMARK    5  A    between atoms: N_11  and  C_12
REMARK                            x       y       z     vdW  Elec       q    Type
REMARK                         _______ _______ _______ _____ _____    ______ ____
ROOT
ATOM      1  C   UNL     1       2.239   7.834  18.891  0.00  0.00    +0.000 A 
ATOM      2  C   UNL     1       2.915   7.800  17.666  0.00  0.00    +0.000 A 
ATOM      3  C   UNL     1       3.901   6.848  17.404  0.00  0.00    +0.000 A 
ATOM      4  C   UNL     1       4.249   5.927  18.384  0.00  0.00    +0.000 A 
ATOM      5  C   UNL     1       3.588   5.935  19.618  0.00  0.00    +0.000 A 
ATOM      6  C   UNL     1       2.596   6.900  19.874  0.00  0.00    +0.000 A 
ENDROOT
BRANCH   1   9
ATOM      7  O   UNL     1       2.094  10.630  18.096  0.00  0.00    +0.000 OA
ATOM      8  C   UNL     1       1.209  10.103  18.758  0.00  0.00    +0.000 C 
ATOM      9  N   UNL     1       1.209   8.769  19.163  0.00  0.00    +0.000 N 
ATOM     10  H   UNL     1       0.361   8.443  19.619  0.00  0.00    +0.000 HD
BRANCH   8  11
ATOM     11  C   UNL     1      -0.005  10.900  19.152  0.00  0.00    +0.000 A 
ATOM     12  N   UNL     1       0.177  11.725  20.234  0.00  0.00    +0.000 NA
ATOM     13  C   UNL     1      -0.890  12.479  20.609  0.00  0.00    +0.000 A 
ATOM     14  C   UNL     1      -2.126  12.442  19.978  0.00  0.00    +0.000 A 
ATOM     15 CL   UNL     1      -3.430  13.414  20.523  0.00  0.00    +0.000 Cl
ATOM     16  C   UNL     1      -2.293  11.596  18.892  0.00  0.00    +0.000 A 
ATOM     17  C   UNL     1      -1.223  10.807  18.460  0.00  0.00    +0.000 A 
ATOM     18 CL   UNL     1      -1.544   9.782  17.110  0.00  0.00    +0.000 Cl
ENDBRANCH   8  11
ENDBRANCH   1   9
BRANCH   4  19
ATOM     19  S   UNL     1       5.511   4.725  18.010  0.00  0.00    +0.000 S 
ATOM     20  O   UNL     1       6.149   5.145  16.784  0.00  0.00    +0.000 OA
ATOM     21  O   UNL     1       6.280   4.488  19.213  0.00  0.00    +0.000 OA
BRANCH  19  22
ATOM     22  N   UNL     1       4.641   3.332  17.626  0.00  0.00    +0.000 N 
ATOM     23  H   UNL     1       4.797   2.996  16.679  0.00  0.00    +0.000 HD
BRANCH  22  24
ATOM     24  C   UNL     1       3.379   3.097  18.231  0.00  0.00    +0.000 A 
ATOM     25  C   UNL     1       2.208   3.478  17.575  0.00  0.00    +0.000 A 
ATOM     26  C   UNL     1       0.970   3.284  18.188  0.00  0.00    +0.000 A 
ATOM     27  C   UNL     1       0.902   2.689  19.447  0.00  0.00    +0.000 A 
ATOM     28  C   UNL     1       2.072   2.298  20.099  0.00  0.00    +0.000 A 
ATOM     29  C   UNL     1       3.313   2.515  19.497  0.00  0.00    +0.000 A 
ENDBRANCH  22  24
ENDBRANCH  19  22
ENDBRANCH   4  19
TORSDOF 5
ENDMDL
MODEL 3
REMARK VINA RESULT:      -8.1      2.957      4.041
REMARK  Name = 
REMARK  5 active torsions:
REMARK  status: ('A' for Active; 'I' for Inactive)
REMARK    1  A    between atoms: C_2  and  C_20
REMARK    2  A    between atoms: N_3  and  C_4
REMARK    3  A    between atoms: C_7  and  S_8
REMARK    4  A    between atoms: S_8  and  N_11
REMARK    5  A    between atoms: N_11  and  C_12
REMARK                            x       y       z     vdW  Elec       q    Type
REMARK                         _______ _______ _______ _____ _____    ______ ____
ROOT
ATOM      1  C   UNL     1       1.073   8.886  19.640  0.00  0.00    +0.000 A 
ATOM      2  C   UNL     1       1.631   9.100  18.375  0.00  0.00    +0.000 A 
ATOM      3  C   UNL     1       2.631   8.270  17.869  0.00  0.00    +0.000 A 
ATOM      4  C   UNL     1       3.113   7.220  18.642  0.00  0.00    +0.000 A 
ATOM      5  C   UNL     1       2.571   6.979  19.910  0.00  0.00    +0.000 A 
ATOM      6  C   UNL     1       1.564   7.824  20.413  0.00  0.00    +0.000 A 
ENDROOT
BRANCH   1   9
ATOM      7  O   UNL     1       1.294  11.186  21.410  0.00  0.00    +0.000 OA
ATOM      8  C   UNL     1       0.208  10.783  21.012  0.00  0.00    +0.000 C 
ATOM      9  N   UNL     1       0.031   9.696  20.157  0.00  0.00    +0.000 N 
ATOM     10  H   UNL     1      -0.919   9.539  19.829  0.00  0.00    +0.000 HD
BRANCH   8  11
ATOM     11  C   UNL     1      -1.050  11.502  21.416  0.00  0.00    +0.000 A 
ATOM     12  N   UNL     1      -1.384  11.374  22.741  0.00  0.00    +0.000 NA
ATOM     13  C   UNL     1      -2.504  12.028  23.151  0.00  0.00    +0.000 A 
ATOM     14  C   UNL     1      -3.311  12.783  22.312  0.00  0.00    +0.000 A 
ATOM     15 CL   UNL     1      -4.719  13.565  22.904  0.00  0.00    +0.000 Cl
ATOM     16  C   UNL     1      -2.962  12.893  20.974  0.00  0.00    +0.000 A 
ATOM     17  C   UNL     1      -1.814  12.249  20.505  0.00  0.00    +0.000 A 
ATOM     18 CL   UNL     1      -1.481  12.442  18.823  0.00  0.00    +0.000 Cl
ENDBRANCH   8  11
ENDBRANCH   1   9
BRANCH   4  19
ATOM     19  S   UNL     1       4.389   6.179  17.960  0.00  0.00    +0.000 S 
ATOM     20  O   UNL     1       5.129   6.978  17.013  0.00  0.00    +0.000 OA
ATOM     21  O   UNL     1       5.053   5.502  19.054  0.00  0.00    +0.000 OA
BRANCH  19  22
ATOM     22  N   UNL     1       3.538   5.045  17.044  0.00  0.00    +0.000 N 
ATOM     23  H   UNL     1       3.108   5.431  16.207  0.00  0.00    +0.000 HD
BRANCH  22  24
ATOM     24  C   UNL     1       2.913   3.943  17.685  0.00  0.00    +0.000 A 
ATOM     25  C   UNL     1       1.577   4.031  18.080  0.00  0.00    +0.000 A 
ATOM     26  C   UNL     1       0.976   2.964  18.746  0.00  0.00    +0.000 A 
ATOM     27  C   UNL     1       1.702   1.801  18.997  0.00  0.00    +0.000 A 
ATOM     28  C   UNL     1       3.035   1.708  18.593  0.00  0.00    +0.000 A 
ATOM     29  C   UNL     1       3.645   2.786  17.949  0.00  0.00    +0.000 A 
ENDBRANCH  22  24
ENDBRANCH  19  22
ENDBRANCH   4  19
TORSDOF 5
ENDMDL
MODEL 4
REMARK VINA RESULT:      -8.1      2.960      4.132
REMARK  Name = 
REMARK  5 active torsions:
REMARK  status: ('A' for Active; 'I' for Inactive)
REMARK    1  A    between atoms: C_2  and  C_20
REMARK    2  A    between atoms: N_3  and  C_4
REMARK    3  A    between atoms: C_7  and  S_8
REMARK    4  A    between atoms: S_8  and  N_11
REMARK    5  A    between atoms: N_11  and  C_12
REMARK                            x       y       z     vdW  Elec       q    Type
REMARK                         _______ _______ _______ _____ _____    ______ ____
ROOT
ATOM      1  C   UNL     1       1.039   8.853  19.635  0.00  0.00    +0.000 A 
ATOM      2  C   UNL     1       1.556   7.775  20.363  0.00  0.00    +0.000 A 
ATOM      3  C   UNL     1       2.585   6.981  19.858  0.00  0.00    +0.000 A 
ATOM      4  C   UNL     1       3.096   7.237  18.591  0.00  0.00    +0.000 A 
ATOM      5  C   UNL     1       2.602   8.310  17.841  0.00  0.00    +0.000 A 
ATOM      6  C   UNL     1       1.562   9.105  18.358  0.00  0.00    +0.000 A 
ENDROOT
BRANCH   1   9
ATOM      7  O   UNL     1       1.306  11.071  21.501  0.00  0.00    +0.000 OA
ATOM      8  C   UNL     1       0.218  10.738  21.050  0.00  0.00    +0.000 C 
ATOM      9  N   UNL     1       0.020   9.695  20.146  0.00  0.00    +0.000 N 
ATOM     10  H   UNL     1      -0.924   9.598  19.779  0.00  0.00    +0.000 HD
BRANCH   8  11
ATOM     11  C   UNL     1      -1.019  11.504  21.436  0.00  0.00    +0.000 A 
ATOM     12  N   UNL     1      -1.404  11.347  22.744  0.00  0.00    +0.000 NA
ATOM     13  C   UNL     1      -2.505  12.041  23.140  0.00  0.00    +0.000 A 
ATOM     14  C   UNL     1      -3.246  12.862  22.303  0.00  0.00    +0.000 A 
ATOM     15 CL   UNL     1      -4.635  13.691  22.874  0.00  0.00    +0.000 Cl
ATOM     16  C   UNL     1      -2.845  13.001  20.982  0.00  0.00    +0.000 A 
ATOM     17  C   UNL     1      -1.714  12.318  20.528  0.00  0.00    +0.000 A 
ATOM     18 CL   UNL     1      -1.313  12.551  18.866  0.00  0.00    +0.000 Cl
ENDBRANCH   8  11
ENDBRANCH   1   9
BRANCH   4  19
ATOM     19  S   UNL     1       4.413   6.201  17.981  0.00  0.00    +0.000 S 
ATOM     20  O   UNL     1       5.176   6.991  17.044  0.00  0.00    +0.000 OA
ATOM     21  O   UNL     1       5.046   5.561  19.115  0.00  0.00    +0.000 OA
BRANCH  19  22
ATOM     22  N   UNL     1       3.615   5.033  17.062  0.00  0.00    +0.000 N 
ATOM     23  H   UNL     1       3.213   5.392  16.199  0.00  0.00    +0.000 HD
BRANCH  22  24
ATOM     24  C   UNL     1       2.980   3.938  17.706  0.00  0.00    +0.000 A 
ATOM     25  C   UNL     1       3.706   2.783  17.996  0.00  0.00    +0.000 A 
ATOM     26  C   UNL     1       3.072   1.692  18.591  0.00  0.00    +0.000 A 
ATOM     27  C   UNL     1       1.718   1.765  18.915  0.00  0.00    +0.000 A 
ATOM     28  C   UNL     1       0.994   2.925  18.635  0.00  0.00    +0.000 A 
ATOM     29  C   UNL     1       1.622   4.008  18.016  0.00  0.00    +0.000 A 
ENDBRANCH  22  24
ENDBRANCH  19  22
ENDBRANCH   4  19
TORSDOF 5
ENDMDL
MODEL 5
REMARK VINA RESULT:      -8.1      0.928      1.605
REMARK  Name = 
REMARK  5 active torsions:
REMARK  status: ('A' for Active; 'I' for Inactive)
REMARK    1  A    between atoms: C_2  and  C_20
REMARK    2  A    between atoms: N_3  and  C_4
REMARK    3  A    between atoms: C_7  and  S_8
REMARK    4  A    between atoms: S_8  and  N_11
REMARK    5  A    between atoms: N_11  and  C_12
REMARK                            x       y       z     vdW  Elec       q    Type
REMARK                         _______ _______ _______ _____ _____    ______ ____
ROOT
ATOM      1  C   UNL     1       2.174   7.594  18.936  0.00  0.00    +0.000 A 
ATOM      2  C   UNL     1       2.303   6.908  20.150  0.00  0.00    +0.000 A 
ATOM      3  C   UNL     1       2.793   5.603  20.201  0.00  0.00    +0.000 A 
ATOM      4  C   UNL     1       3.135   4.948  19.025  0.00  0.00    +0.000 A 
ATOM      5  C   UNL     1       3.020   5.608  17.796  0.00  0.00    +0.000 A 
ATOM      6  C   UNL     1       2.523   6.925  17.754  0.00  0.00    +0.000 A 
ENDROOT
BRANCH   1   9
ATOM      7  O   UNL     1       0.376   8.974  20.762  0.00  0.00    +0.000 OA
ATOM      8  C   UNL     1       0.841   9.529  19.775  0.00  0.00    +0.000 C 
ATOM      9  N   UNL     1       1.714   8.932  18.866  0.00  0.00    +0.000 N 
ATOM     10  H   UNL     1       2.098   9.544  18.152  0.00  0.00    +0.000 HD
BRANCH   8  11
ATOM     11  C   UNL     1       0.507  10.970  19.501  0.00  0.00    +0.000 A 
ATOM     12  N   UNL     1       1.289  11.878  20.171  0.00  0.00    +0.000 NA
ATOM     13  C   UNL     1       1.033  13.192  19.933  0.00  0.00    +0.000 A 
ATOM     14  C   UNL     1       0.036  13.646  19.083  0.00  0.00    +0.000 A 
ATOM     15 CL   UNL     1      -0.235  15.324  18.849  0.00  0.00    +0.000 Cl
ATOM     16  C   UNL     1      -0.751  12.714  18.422  0.00  0.00    +0.000 A 
ATOM     17  C   UNL     1      -0.521  11.350  18.623  0.00  0.00    +0.000 A 
ATOM     18 CL   UNL     1      -1.564  10.279  17.762  0.00  0.00    +0.000 Cl
ENDBRANCH   8  11
ENDBRANCH   1   9
BRANCH   4  19
ATOM     19  S   UNL     1       3.760   3.281  19.132  0.00  0.00    +0.000 S 
ATOM     20  O   UNL     1       3.353   2.756  20.414  0.00  0.00    +0.000 OA
ATOM     21  O   UNL     1       3.431   2.595  17.901  0.00  0.00    +0.000 OA
BRANCH  19  22
ATOM     22  N   UNL     1       5.432   3.482  19.224  0.00  0.00    +0.000 N 
ATOM     23  H   UNL     1       5.826   3.251  20.132  0.00  0.00    +0.000 HD
BRANCH  22  24
ATOM     24  C   UNL     1       6.069   4.481  18.440  0.00  0.00    +0.000 A 
ATOM     25  C   UNL     1       6.137   4.342  17.053  0.00  0.00    +0.000 A 
ATOM     26  C   UNL     1       6.798   5.303  16.289  0.00  0.00    +0.000 A 
ATOM     27  C   UNL     1       7.372   6.413  16.908  0.00  0.00    +0.000 A 
ATOM     28  C   UNL     1       7.295   6.557  18.294  0.00  0.00    +0.000 A 
ATOM     29  C   UNL     1       6.655   5.583  19.063  0.00  0.00    +0.000 A 
ENDBRANCH  22  24
ENDBRANCH  19  22
ENDBRANCH   4  19
TORSDOF 5
ENDMDL
MODEL 6
REMARK VINA RESULT:      -8.1      5.502      7.568
REMARK  Name = 
REMARK  5 active torsions:
REMARK  status: ('A' for Active; 'I' for Inactive)
REMARK    1  A    between atoms: C_2  and  C_20
REMARK    2  A    between atoms: N_3  and  C_4
REMARK    3  A    between atoms: C_7  and  S_8
REMARK    4  A    between atoms: S_8  and  N_11
REMARK    5  A    between atoms: N_11  and  C_12
REMARK                            x       y       z     vdW  Elec       q    Type
REMARK                         _______ _______ _______ _____ _____    ______ ____
ROOT
ATOM      1  C   UNL     1       7.890   8.453  17.849  0.00  0.00    +0.000 A 
ATOM      2  C   UNL     1       6.698   8.299  17.132  0.00  0.00    +0.000 A 
ATOM      3  C   UNL     1       5.965   7.113  17.182  0.00  0.00    +0.000 A 
ATOM      4  C   UNL     1       6.435   6.043  17.935  0.00  0.00    +0.000 A 
ATOM      5  C   UNL     1       7.623   6.169  18.665  0.00  0.00    +0.000 A 
ATOM      6  C   UNL     1       8.356   7.369  18.606  0.00  0.00    +0.000 A 
ENDROOT
BRANCH   1   9
ATOM      7  O   UNL     1       9.050   9.868  20.112  0.00  0.00    +0.000 OA
ATOM      8  C   UNL     1       9.151  10.293  18.968  0.00  0.00    +0.000 C 
ATOM      9  N   UNL     1       8.629   9.662  17.839  0.00  0.00    +0.000 N 
ATOM     10  H   UNL     1       8.877  10.077  16.945  0.00  0.00    +0.000 HD
BRANCH   8  11
ATOM     11  C   UNL     1       9.916  11.562  18.706  0.00  0.00    +0.000 A 
ATOM     12  N   UNL     1      10.744  11.517  17.612  0.00  0.00    +0.000 NA
ATOM     13  C   UNL     1      11.436  12.652  17.328  0.00  0.00    +0.000 A 
ATOM     14  C   UNL     1      11.361  13.815  18.080  0.00  0.00    +0.000 A 
ATOM     15 CL   UNL     1      12.281  15.202  17.665  0.00  0.00    +0.000 Cl
ATOM     16  C   UNL     1      10.525  13.838  19.188  0.00  0.00    +0.000 A 
ATOM     17  C   UNL     1       9.783  12.701  19.516  0.00  0.00    +0.000 A 
ATOM     18 CL   UNL     1       8.787  12.835  20.918  0.00  0.00    +0.000 Cl
ENDBRANCH   8  11
ENDBRANCH   1   9
BRANCH   4  19
ATOM     19  S   UNL     1       5.469   4.545  17.977  0.00  0.00    +0.000 S 
ATOM     20  O   UNL     1       5.729   3.837  16.746  0.00  0.00    +0.000 OA
ATOM     21  O   UNL     1       5.670   3.914  19.264  0.00  0.00    +0.000 OA
BRANCH  19  22
ATOM     22  N   UNL     1       3.876   5.089  17.871  0.00  0.00    +0.000 N 
ATOM     23  H   UNL     1       3.791   6.093  17.730  0.00  0.00    +0.000 HD
BRANCH  22  24
ATOM     24  C   UNL     1       2.848   4.414  18.581  0.00  0.00    +0.000 A 
ATOM     25  C   UNL     1       2.286   3.249  18.056  0.00  0.00    +0.000 A 
ATOM     26  C   UNL     1       1.249   2.609  18.734  0.00  0.00    +0.000 A 
ATOM     27  C   UNL     1       0.789   3.120  19.947  0.00  0.00    +0.000 A 
ATOM     28  C   UNL     1       1.358   4.278  20.478  0.00  0.00    +0.000 A 
ATOM     29  C   UNL     1       2.380   4.934  19.787  0.00  0.00    +0.000 A 
ENDBRANCH  22  24
ENDBRANCH  19  22
ENDBRANCH   4  19
TORSDOF 5
ENDMDL
MODEL 7
REMARK VINA RESULT:      -8.1      2.351      3.621
REMARK  Name = 
REMARK  5 active torsions:
REMARK  status: ('A' for Active; 'I' for Inactive)
REMARK    1  A    between atoms: C_2  and  C_20
REMARK    2  A    between atoms: N_3  and  C_4
REMARK    3  A    between atoms: C_7  and  S_8
REMARK    4  A    between atoms: S_8  and  N_11
REMARK    5  A    between atoms: N_11  and  C_12
REMARK                            x       y       z     vdW  Elec       q    Type
REMARK                         _______ _______ _______ _____ _____    ______ ____
ROOT
ATOM      1  C   UNL     1       2.296   7.433  18.645  0.00  0.00    +0.000 A 
ATOM      2  C   UNL     1       3.199   7.376  17.578  0.00  0.00    +0.000 A 
ATOM      3  C   UNL     1       4.322   6.548  17.616  0.00  0.00    +0.000 A 
ATOM      4  C   UNL     1       4.575   5.782  18.747  0.00  0.00    +0.000 A 
ATOM      5  C   UNL     1       3.689   5.816  19.829  0.00  0.00    +0.000 A 
ATOM      6  C   UNL     1       2.560   6.656  19.783  0.00  0.00    +0.000 A 
ENDROOT
BRANCH   1   9
ATOM      7  O   UNL     1       2.085  10.260  17.986  0.00  0.00    +0.000 OA
ATOM      8  C   UNL     1       1.103   9.597  18.294  0.00  0.00    +0.000 C 
ATOM      9  N   UNL     1       1.131   8.239  18.611  0.00  0.00    +0.000 N 
ATOM     10  H   UNL     1       0.226   7.797  18.747  0.00  0.00    +0.000 HD
BRANCH   8  11
ATOM     11  C   UNL     1      -0.258  10.238  18.308  0.00  0.00    +0.000 A 
ATOM     12  N   UNL     1      -1.113   9.789  17.333  0.00  0.00    +0.000 NA
ATOM     13  C   UNL     1      -2.362  10.327  17.325  0.00  0.00    +0.000 A 
ATOM     14  C   UNL     1      -2.794  11.295  18.221  0.00  0.00    +0.000 A 
ATOM     15 CL   UNL     1      -4.382  11.938  18.135  0.00  0.00    +0.000 Cl
ATOM     16  C   UNL     1      -1.912  11.743  19.193  0.00  0.00    +0.000 A 
ATOM     17  C   UNL     1      -0.621  11.213  19.250  0.00  0.00    +0.000 A 
ATOM     18 CL   UNL     1       0.397  11.849  20.490  0.00  0.00    +0.000 Cl
ENDBRANCH   8  11
ENDBRANCH   1   9
BRANCH   4  19
ATOM     19  S   UNL     1       6.019   4.735  18.757  0.00  0.00    +0.000 S 
ATOM     20  O   UNL     1       6.429   4.563  17.383  0.00  0.00    +0.000 OA
ATOM     21  O   UNL     1       6.936   5.239  19.757  0.00  0.00    +0.000 OA
BRANCH  19  22
ATOM     22  N   UNL     1       5.426   3.236  19.254  0.00  0.00    +0.000 N 
ATOM     23  H   UNL     1       6.118   2.490  19.229  0.00  0.00    +0.000 HD
BRANCH  22  24
ATOM     24  C   UNL     1       4.062   2.906  19.037  0.00  0.00    +0.000 A 
ATOM     25  C   UNL     1       3.555   2.856  17.738  0.00  0.00    +0.000 A 
ATOM     26  C   UNL     1       2.205   2.572  17.528  0.00  0.00    +0.000 A 
ATOM     27  C   UNL     1       1.369   2.318  18.614  0.00  0.00    +0.000 A 
ATOM     28  C   UNL     1       1.879   2.358  19.912  0.00  0.00    +0.000 A 
ATOM     29  C   UNL     1       3.224   2.667  20.125  0.00  0.00    +0.000 A 
ENDBRANCH  22  24
ENDBRANCH  19  22
ENDBRANCH   4  19
TORSDOF 5
ENDMDL
MODEL 8
REMARK VINA RESULT:      -8.1      2.921      4.090
REMARK  Name = 
REMARK  5 active torsions:
REMARK  status: ('A' for Active; 'I' for Inactive)
REMARK    1  A    between atoms: C_2  and  C_20
REMARK    2  A    between atoms: N_3  and  C_4
REMARK    3  A    between atoms: C_7  and  S_8
REMARK    4  A    between atoms: S_8  and  N_11
REMARK    5  A    between atoms: N_11  and  C_12
REMARK                            x       y       z     vdW  Elec       q    Type
REMARK                         _______ _______ _______ _____ _____    ______ ____
ROOT
ATOM      1  C   UNL     1       1.047   8.871  19.633  0.00  0.00    +0.000 A 
ATOM      2  C   UNL     1       1.523   9.046  18.329  0.00  0.00    +0.000 A 
ATOM      3  C   UNL     1       2.493   8.203  17.787  0.00  0.00    +0.000 A 
ATOM      4  C   UNL     1       3.028   7.181  18.562  0.00  0.00    +0.000 A 
ATOM      5  C   UNL     1       2.570   6.979  19.869  0.00  0.00    +0.000 A 
ATOM      6  C   UNL     1       1.592   7.836  20.407  0.00  0.00    +0.000 A 
ENDROOT
BRANCH   1   9
ATOM      7  O   UNL     1       1.362  11.156  21.409  0.00  0.00    +0.000 OA
ATOM      8  C   UNL     1       0.258  10.772  21.045  0.00  0.00    +0.000 C 
ATOM      9  N   UNL     1       0.035   9.694  20.189  0.00  0.00    +0.000 N 
ATOM     10  H   UNL     1      -0.927   9.554  19.892  0.00  0.00    +0.000 HD
BRANCH   8  11
ATOM     11  C   UNL     1      -0.975  11.508  21.494  0.00  0.00    +0.000 A 
ATOM     12  N   UNL     1      -1.315  11.309  22.809  0.00  0.00    +0.000 NA
ATOM     13  C   UNL     1      -2.411  11.975  23.260  0.00  0.00    +0.000 A 
ATOM     14  C   UNL     1      -3.191  12.809  22.472  0.00  0.00    +0.000 A 
ATOM     15 CL   UNL     1      -4.571  13.601  23.112  0.00  0.00    +0.000 Cl
ATOM     16  C   UNL     1      -2.837  12.990  21.143  0.00  0.00    +0.000 A 
ATOM     17  C   UNL     1      -1.712  12.337  20.633  0.00  0.00    +0.000 A 
ATOM     18 CL   UNL     1      -1.370  12.622  18.966  0.00  0.00    +0.000 Cl
ENDBRANCH   8  11
ENDBRANCH   1   9
BRANCH   4  19
ATOM     19  S   UNL     1       4.264   6.122  17.833  0.00  0.00    +0.000 S 
ATOM     20  O   UNL     1       4.585   6.673  16.537  0.00  0.00    +0.000 OA
ATOM     21  O   UNL     1       5.293   5.881  18.822  0.00  0.00    +0.000 OA
BRANCH  19  22
ATOM     22  N   UNL     1       3.437   4.683  17.533  0.00  0.00    +0.000 N 
ATOM     23  H   UNL     1       3.037   4.624  16.600  0.00  0.00    +0.000 HD
BRANCH  22  24
ATOM     24  C   UNL     1       2.784   4.008  18.598  0.00  0.00    +0.000 A 
ATOM     25  C   UNL     1       3.529   3.492  19.659  0.00  0.00    +0.000 A 
ATOM     26  C   UNL     1       2.890   2.793  20.683  0.00  0.00    +0.000 A 
ATOM     27  C   UNL     1       1.506   2.629  20.658  0.00  0.00    +0.000 A 
ATOM     28  C   UNL     1       0.760   3.154  19.602  0.00  0.00    +0.000 A 
ATOM     29  C   UNL     1       1.400   3.832  18.563  0.00  0.00    +0.000 A 
ENDBRANCH  22  24
ENDBRANCH  19  22
ENDBRANCH   4  19
TORSDOF 5
ENDMDL
MODEL 9
REMARK VINA RESULT:      -8.1      5.494      7.501
REMARK  Name = 
REMARK  5 active torsions:
REMARK  status: ('A' for Active; 'I' for Inactive)
REMARK    1  A    between atoms: C_2  and  C_20
REMARK    2  A    between atoms: N_3  and  C_4
REMARK    3  A    between atoms: C_7  and  S_8
REMARK    4  A    between atoms: S_8  and  N_11
REMARK    5  A    between atoms: N_11  and  C_12
REMARK                            x       y       z     vdW  Elec       q    Type
REMARK                         _______ _______ _______ _____ _____    ______ ____
ROOT
ATOM      1  C   UNL     1       7.896   8.532  17.876  0.00  0.00    +0.000 A 
ATOM      2  C   UNL     1       8.344   7.409  18.581  0.00  0.00    +0.000 A 
ATOM      3  C   UNL     1       7.638   6.206  18.562  0.00  0.00    +0.000 A 
ATOM      4  C   UNL     1       6.446   6.118  17.853  0.00  0.00    +0.000 A 
ATOM      5  C   UNL     1       5.974   7.222  17.135  0.00  0.00    +0.000 A 
ATOM      6  C   UNL     1       6.692   8.433  17.162  0.00  0.00    +0.000 A 
ENDROOT
BRANCH   1   9
ATOM      7  O   UNL     1       9.127   9.933  20.110  0.00  0.00    +0.000 OA
ATOM      8  C   UNL     1       9.176  10.374  18.969  0.00  0.00    +0.000 C 
ATOM      9  N   UNL     1       8.618   9.751  17.853  0.00  0.00    +0.000 N 
ATOM     10  H   UNL     1       8.824  10.181  16.955  0.00  0.00    +0.000 HD
BRANCH   8  11
ATOM     11  C   UNL     1       9.912  11.657  18.694  0.00  0.00    +0.000 A 
ATOM     12  N   UNL     1      10.742  11.619  17.601  0.00  0.00    +0.000 NA
ATOM     13  C   UNL     1      11.408  12.767  17.305  0.00  0.00    +0.000 A 
ATOM     14  C   UNL     1      11.306  13.936  18.045  0.00  0.00    +0.000 A 
ATOM     15 CL   UNL     1      12.195  15.339  17.615  0.00  0.00    +0.000 Cl
ATOM     16  C   UNL     1      10.470  13.952  19.151  0.00  0.00    +0.000 A 
ATOM     17  C   UNL     1       9.754  12.801  19.492  0.00  0.00    +0.000 A 
ATOM     18 CL   UNL     1       8.754  12.927  20.892  0.00  0.00    +0.000 Cl
ENDBRANCH   8  11
ENDBRANCH   1   9
BRANCH   4  19
ATOM     19  S   UNL     1       5.574   4.562  17.850  0.00  0.00    +0.000 S 
ATOM     20  O   UNL     1       6.007   3.834  16.681  0.00  0.00    +0.000 OA
ATOM     21  O   UNL     1       5.674   3.985  19.174  0.00  0.00    +0.000 OA
BRANCH  19  22
ATOM     22  N   UNL     1       3.971   4.998  17.557  0.00  0.00    +0.000 N 
ATOM     23  H   UNL     1       3.869   5.820  16.965  0.00  0.00    +0.000 HD
BRANCH  22  24
ATOM     24  C   UNL     1       2.976   4.737  18.535  0.00  0.00    +0.000 A 
ATOM     25  C   UNL     1       2.821   5.600  19.621  0.00  0.00    +0.000 A 
ATOM     26  C   UNL     1       1.871   5.321  20.603  0.00  0.00    +0.000 A 
ATOM     27  C   UNL     1       1.061   4.191  20.488  0.00  0.00    +0.000 A 
ATOM     28  C   UNL     1       1.209   3.333  19.397  0.00  0.00    +0.000 A 
ATOM     29  C   UNL     1       2.177   3.599  18.427  0.00  0.00    +0.000 A 
ENDBRANCH  22  24
ENDBRANCH  19  22
ENDBRANCH   4  19
TORSDOF 5
ENDMDL
