MODEL 1
REMARK VINA RESULT:      -6.8      0.000      0.000
REMARK  Name = 
REMARK  3 active torsions:
REMARK  status: ('A' for Active; 'I' for Inactive)
REMARK    1  A    between atoms: C_1  and  C_2
REMARK    2  A    between atoms: C_2  and  N_3
REMARK    3  A    between atoms: N_18  and  C_19
REMARK                            x       y       z     vdW  Elec       q    Type
REMARK                         _______ _______ _______ _____ _____    ______ ____
ROOT
ATOM      1  N   UNL     1      -6.578  13.382  22.307  0.00  0.00    +0.000 N 
ATOM      2  C   UNL     1      -5.318  12.911  22.600  0.00  0.00    +0.000 C 
ATOM      3  O   UNL     1      -5.095  12.269  23.624  0.00  0.00    +0.000 OA
ATOM      4  N   UNL     1      -4.330  13.247  21.673  0.00  0.00    +0.000 N 
ATOM      5  C   UNL     1      -2.947  12.859  22.043  0.00  0.00    +0.000 C 
ATOM      6  C   UNL     1      -1.757  13.798  21.654  0.00  0.00    +0.000 C 
ATOM      7  O   UNL     1      -0.552  13.003  21.542  0.00  0.00    +0.000 OA
ATOM      8  C   UNL     1       0.548  13.576  20.956  0.00  0.00    +0.000 A 
ATOM      9  C   UNL     1       1.351  14.369  21.812  0.00  0.00    +0.000 A 
ATOM     10  C   UNL     1       2.590  14.856  21.413  0.00  0.00    +0.000 A 
ATOM     11  C   UNL     1       3.042  14.572  20.145  0.00  0.00    +0.000 A 
ATOM     12  F   UNL     1       4.223  15.030  19.726  0.00  0.00    +0.000 F 
ATOM     13  C   UNL     1       2.288  13.780  19.290  0.00  0.00    +0.000 A 
ATOM     14  C   UNL     1       1.035  13.219  19.686  0.00  0.00    +0.000 A 
ATOM     15  C   UNL     1       0.417  12.411  18.548  0.00  0.00    +0.000 C 
ATOM     16  N   UNL     1      -0.455  11.249  18.708  0.00  0.00    +0.000 N 
ATOM     17  C   UNL     1      -0.677  10.720  20.047  0.00  0.00    +0.000 C 
ATOM     18  C   UNL     1      -1.658  11.280  18.028  0.00  0.00    +0.000 A 
ATOM     19  C   UNL     1      -2.046  10.092  17.206  0.00  0.00    +0.000 A 
ATOM     20  C   UNL     1      -3.353   9.775  17.262  0.00  0.00    +0.000 A 
ATOM     21  N   UNL     1      -4.220  10.580  17.994  0.00  0.00    +0.000 N 
ATOM     22  N   UNL     1      -5.497  10.335  18.351  0.00  0.00    +0.000 NA
ATOM     23  C   UNL     1      -5.780  11.285  19.250  0.00  0.00    +0.000 A 
ATOM     24  C   UNL     1      -4.742  12.228  19.413  0.00  0.00    +0.000 A 
ATOM     25  C   UNL     1      -3.772  11.782  18.541  0.00  0.00    +0.000 A 
ATOM     26  N   UNL     1      -2.495  12.221  18.393  0.00  0.00    +0.000 NA
ATOM     27  C   UNL     1      -4.665  13.471  20.251  0.00  0.00    +0.000 C 
ATOM     28  H   UNL     1      -6.565  14.330  21.960  0.00  0.00    +0.000 HD
ENDROOT
BRANCH   1  30
ATOM     29  C   UNL     1      -7.917  14.183  24.216  0.00  0.00    +0.000 C 
ATOM     30  C   UNL     1      -7.662  13.069  23.221  0.00  0.00    +0.000 C 
ENDBRANCH   1  30
TORSDOF 1
ENDMDL
MODEL 2
REMARK VINA RESULT:      -6.5      6.750     10.000
REMARK  Name = 
REMARK  3 active torsions:
REMARK  status: ('A' for Active; 'I' for Inactive)
REMARK    1  A    between atoms: C_1  and  C_2
REMARK    2  A    between atoms: C_2  and  N_3
REMARK    3  A    between atoms: N_18  and  C_19
REMARK                            x       y       z     vdW  Elec       q    Type
REMARK                         _______ _______ _______ _____ _____    ______ ____
ROOT
ATOM      1  N   UNL     1       2.117  15.958  18.639  0.00  0.00    +0.000 N 
ATOM      2  C   UNL     1       3.456  16.268  18.562  0.00  0.00    +0.000 C 
ATOM      3  O   UNL     1       3.841  17.341  18.104  0.00  0.00    +0.000 OA
ATOM      4  N   UNL     1       4.322  15.267  19.007  0.00  0.00    +0.000 N 
ATOM      5  C   UNL     1       5.767  15.536  18.809  0.00  0.00    +0.000 C 
ATOM      6  C   UNL     1       6.724  14.352  18.446  0.00  0.00    +0.000 C 
ATOM      7  O   UNL     1       8.063  14.680  18.891  0.00  0.00    +0.000 OA
ATOM      8  C   UNL     1       9.001  13.679  18.912  0.00  0.00    +0.000 A 
ATOM      9  C   UNL     1       9.653  13.429  17.680  0.00  0.00    +0.000 A 
ATOM     10  C   UNL     1      10.750  12.581  17.589  0.00  0.00    +0.000 A 
ATOM     11  C   UNL     1      11.207  11.957  18.727  0.00  0.00    +0.000 A 
ATOM     12  F   UNL     1      12.254  11.131  18.675  0.00  0.00    +0.000 F 
ATOM     13  C   UNL     1      10.603  12.198  19.953  0.00  0.00    +0.000 A 
ATOM     14  C   UNL     1       9.506  13.104  20.091  0.00  0.00    +0.000 A 
ATOM     15  C   UNL     1       9.030  13.163  21.540  0.00  0.00    +0.000 C 
ATOM     16  N   UNL     1       8.421  14.324  22.186  0.00  0.00    +0.000 N 
ATOM     17  C   UNL     1       8.358  15.581  21.452  0.00  0.00    +0.000 C 
ATOM     18  C   UNL     1       7.215  14.113  22.828  0.00  0.00    +0.000 A 
ATOM     19  C   UNL     1       7.051  14.615  24.228  0.00  0.00    +0.000 A 
ATOM     20  C   UNL     1       5.840  15.138  24.498  0.00  0.00    +0.000 A 
ATOM     21  N   UNL     1       4.852  15.111  23.519  0.00  0.00    +0.000 N 
ATOM     22  N   UNL     1       3.666  15.752  23.503  0.00  0.00    +0.000 NA
ATOM     23  C   UNL     1       3.225  15.605  22.249  0.00  0.00    +0.000 A 
ATOM     24  C   UNL     1       4.051  14.778  21.458  0.00  0.00    +0.000 A 
ATOM     25  C   UNL     1       5.062  14.422  22.325  0.00  0.00    +0.000 A 
ATOM     26  N   UNL     1       6.216  13.756  22.059  0.00  0.00    +0.000 NA
ATOM     27  C   UNL     1       3.899  14.300  20.043  0.00  0.00    +0.000 C 
ATOM     28  H   UNL     1       1.923  15.009  18.352  0.00  0.00    +0.000 HD
ENDROOT
BRANCH   1  30
ATOM     29  C   UNL     1      -0.270  16.571  18.559  0.00  0.00    +0.000 C 
ATOM     30  C   UNL     1       1.153  16.951  18.200  0.00  0.00    +0.000 C 
ENDBRANCH   1  30
TORSDOF 1
ENDMDL
MODEL 3
REMARK VINA RESULT:      -6.5     10.418     12.016
REMARK  Name = 
REMARK  3 active torsions:
REMARK  status: ('A' for Active; 'I' for Inactive)
REMARK    1  A    between atoms: C_1  and  C_2
REMARK    2  A    between atoms: C_2  and  N_3
REMARK    3  A    between atoms: N_18  and  C_19
REMARK                            x       y       z     vdW  Elec       q    Type
REMARK                         _______ _______ _______ _____ _____    ______ ____
ROOT
ATOM      1  N   UNL     1       6.433  11.091  26.677  0.00  0.00    +0.000 N 
ATOM      2  C   UNL     1       6.267  11.276  25.323  0.00  0.00    +0.000 C 
ATOM      3  O   UNL     1       5.223  10.964  24.755  0.00  0.00    +0.000 OA
ATOM      4  N   UNL     1       7.375  11.805  24.659  0.00  0.00    +0.000 N 
ATOM      5  C   UNL     1       7.257  11.887  23.182  0.00  0.00    +0.000 C 
ATOM      6  C   UNL     1       8.521  11.628  22.296  0.00  0.00    +0.000 C 
ATOM      7  O   UNL     1       8.361  12.326  21.038  0.00  0.00    +0.000 OA
ATOM      8  C   UNL     1       9.458  12.451  20.224  0.00  0.00    +0.000 A 
ATOM      9  C   UNL     1       9.723  11.343  19.383  0.00  0.00    +0.000 A 
ATOM     10  C   UNL     1      10.681  11.397  18.377  0.00  0.00    +0.000 A 
ATOM     11  C   UNL     1      11.401  12.556  18.204  0.00  0.00    +0.000 A 
ATOM     12  F   UNL     1      12.333  12.641  17.252  0.00  0.00    +0.000 F 
ATOM     13  C   UNL     1      11.150  13.666  18.998  0.00  0.00    +0.000 A 
ATOM     14  C   UNL     1      10.137  13.663  20.005  0.00  0.00    +0.000 A 
ATOM     15  C   UNL     1      10.091  15.003  20.734  0.00  0.00    +0.000 C 
ATOM     16  N   UNL     1       8.901  15.602  21.334  0.00  0.00    +0.000 N 
ATOM     17  C   UNL     1       7.613  14.951  21.135  0.00  0.00    +0.000 C 
ATOM     18  C   UNL     1       9.007  16.002  22.653  0.00  0.00    +0.000 A 
ATOM     19  C   UNL     1       8.553  17.379  23.023  0.00  0.00    +0.000 A 
ATOM     20  C   UNL     1       7.914  17.459  24.205  0.00  0.00    +0.000 A 
ATOM     21  N   UNL     1       7.789  16.320  24.992  0.00  0.00    +0.000 N 
ATOM     22  N   UNL     1       7.023  16.131  26.086  0.00  0.00    +0.000 NA
ATOM     23  C   UNL     1       7.064  14.811  26.299  0.00  0.00    +0.000 A 
ATOM     24  C   UNL     1       7.941  14.130  25.427  0.00  0.00    +0.000 A 
ATOM     25  C   UNL     1       8.443  15.140  24.634  0.00  0.00    +0.000 A 
ATOM     26  N   UNL     1       9.219  15.044  23.523  0.00  0.00    +0.000 NA
ATOM     27  C   UNL     1       8.335  12.684  25.360  0.00  0.00    +0.000 C 
ATOM     28  H   UNL     1       7.340  10.714  26.907  0.00  0.00    +0.000 HD
ENDROOT
BRANCH   1  30
ATOM     29  C   UNL     1       4.218  11.568  27.649  0.00  0.00    +0.000 C 
ATOM     30  C   UNL     1       5.321  10.550  27.440  0.00  0.00    +0.000 C 
ENDBRANCH   1  30
TORSDOF 1
ENDMDL
MODEL 4
REMARK VINA RESULT:      -6.3      8.007     10.685
REMARK  Name = 
REMARK  3 active torsions:
REMARK  status: ('A' for Active; 'I' for Inactive)
REMARK    1  A    between atoms: C_1  and  C_2
REMARK    2  A    between atoms: C_2  and  N_3
REMARK    3  A    between atoms: N_18  and  C_19
REMARK                            x       y       z     vdW  Elec       q    Type
REMARK                         _______ _______ _______ _____ _____    ______ ____
ROOT
ATOM      1  N   UNL     1       3.008  16.900  20.363  0.00  0.00    +0.000 N 
ATOM      2  C   UNL     1       4.369  17.043  20.205  0.00  0.00    +0.000 C 
ATOM      3  O   UNL     1       4.878  18.142  19.999  0.00  0.00    +0.000 OA
ATOM      4  N   UNL     1       5.099  15.855  20.264  0.00  0.00    +0.000 N 
ATOM      5  C   UNL     1       6.547  15.979  19.966  0.00  0.00    +0.000 C 
ATOM      6  C   UNL     1       7.271  14.827  19.192  0.00  0.00    +0.000 C 
ATOM      7  O   UNL     1       8.678  14.844  19.539  0.00  0.00    +0.000 OA
ATOM      8  C   UNL     1       9.444  13.763  19.182  0.00  0.00    +0.000 A 
ATOM      9  C   UNL     1       9.942  13.780  17.856  0.00  0.00    +0.000 A 
ATOM     10  C   UNL     1      10.881  12.856  17.414  0.00  0.00    +0.000 A 
ATOM     11  C   UNL     1      11.327  11.888  18.284  0.00  0.00    +0.000 A 
ATOM     12  F   UNL     1      12.222  10.980  17.891  0.00  0.00    +0.000 F 
ATOM     13  C   UNL     1      10.873  11.859  19.596  0.00  0.00    +0.000 A 
ATOM     14  C   UNL     1       9.949  12.825  20.099  0.00  0.00    +0.000 A 
ATOM     15  C   UNL     1       9.611  12.543  21.561  0.00  0.00    +0.000 C 
ATOM     16  N   UNL     1       9.250  13.550  22.557  0.00  0.00    +0.000 N 
ATOM     17  C   UNL     1       9.325  14.958  22.189  0.00  0.00    +0.000 C 
ATOM     18  C   UNL     1       8.084  13.328  23.266  0.00  0.00    +0.000 A 
ATOM     19  C   UNL     1       8.119  13.442  24.757  0.00  0.00    +0.000 A 
ATOM     20  C   UNL     1       7.033  14.022  25.301  0.00  0.00    +0.000 A 
ATOM     21  N   UNL     1       5.975  14.394  24.479  0.00  0.00    +0.000 N 
ATOM     22  N   UNL     1       4.907  15.162  24.777  0.00  0.00    +0.000 NA
ATOM     23  C   UNL     1       4.345  15.426  23.592  0.00  0.00    +0.000 A 
ATOM     24  C   UNL     1       4.961  14.749  22.517  0.00  0.00    +0.000 A 
ATOM     25  C   UNL     1       5.972  14.039  23.129  0.00  0.00    +0.000 A 
ATOM     26  N   UNL     1       6.979  13.329  22.559  0.00  0.00    +0.000 NA
ATOM     27  C   UNL     1       4.617  14.703  21.057  0.00  0.00    +0.000 C 
ATOM     28  H   UNL     1       2.644  16.101  19.865  0.00  0.00    +0.000 HD
ENDROOT
BRANCH   1  30
ATOM     29  C   UNL     1       1.251  18.105  19.123  0.00  0.00    +0.000 C 
ATOM     30  C   UNL     1       2.180  18.092  20.321  0.00  0.00    +0.000 C 
ENDBRANCH   1  30
TORSDOF 1
ENDMDL
MODEL 5
REMARK VINA RESULT:      -6.3     10.565     11.942
REMARK  Name = 
REMARK  3 active torsions:
REMARK  status: ('A' for Active; 'I' for Inactive)
REMARK    1  A    between atoms: C_1  and  C_2
REMARK    2  A    between atoms: C_2  and  N_3
REMARK    3  A    between atoms: N_18  and  C_19
REMARK                            x       y       z     vdW  Elec       q    Type
REMARK                         _______ _______ _______ _____ _____    ______ ____
ROOT
ATOM      1  N   UNL     1       7.691  12.256  26.392  0.00  0.00    +0.000 N 
ATOM      2  C   UNL     1       7.449  11.970  25.067  0.00  0.00    +0.000 C 
ATOM      3  O   UNL     1       6.616  11.131  24.734  0.00  0.00    +0.000 OA
ATOM      4  N   UNL     1       8.236  12.677  24.157  0.00  0.00    +0.000 N 
ATOM      5  C   UNL     1       8.078  12.284  22.735  0.00  0.00    +0.000 C 
ATOM      6  C   UNL     1       9.326  12.297  21.792  0.00  0.00    +0.000 C 
ATOM      7  O   UNL     1       8.880  12.491  20.428  0.00  0.00    +0.000 OA
ATOM      8  C   UNL     1       9.821  12.797  19.477  0.00  0.00    +0.000 A 
ATOM      9  C   UNL     1      10.506  11.689  18.919  0.00  0.00    +0.000 A 
ATOM     10  C   UNL     1      11.345  11.824  17.820  0.00  0.00    +0.000 A 
ATOM     11  C   UNL     1      11.528  13.071  17.268  0.00  0.00    +0.000 A 
ATOM     12  F   UNL     1      12.333  13.238  16.217  0.00  0.00    +0.000 F 
ATOM     13  C   UNL     1      10.855  14.172  17.780  0.00  0.00    +0.000 A 
ATOM     14  C   UNL     1       9.944  14.061  18.874  0.00  0.00    +0.000 A 
ATOM     15  C   UNL     1       9.364  15.425  19.239  0.00  0.00    +0.000 C 
ATOM     16  N   UNL     1       8.040  15.658  19.812  0.00  0.00    +0.000 N 
ATOM     17  C   UNL     1       7.127  14.530  19.949  0.00  0.00    +0.000 C 
ATOM     18  C   UNL     1       7.989  16.423  20.962  0.00  0.00    +0.000 A 
ATOM     19  C   UNL     1       7.017  17.558  21.025  0.00  0.00    +0.000 A 
ATOM     20  C   UNL     1       6.415  17.716  22.218  0.00  0.00    +0.000 A 
ATOM     21  N   UNL     1       6.775  16.891  23.278  0.00  0.00    +0.000 N 
ATOM     22  N   UNL     1       6.166  16.737  24.472  0.00  0.00    +0.000 NA
ATOM     23  C   UNL     1       6.745  15.656  25.006  0.00  0.00    +0.000 A 
ATOM     24  C   UNL     1       7.813  15.153  24.232  0.00  0.00    +0.000 A 
ATOM     25  C   UNL     1       7.850  16.009  23.152  0.00  0.00    +0.000 A 
ATOM     26  N   UNL     1       8.583  15.912  22.013  0.00  0.00    +0.000 NA
ATOM     27  C   UNL     1       8.762  14.019  24.485  0.00  0.00    +0.000 C 
ATOM     28  H   UNL     1       8.676  12.343  26.595  0.00  0.00    +0.000 HD
ENDROOT
BRANCH   1  30
ATOM     29  C   UNL     1       6.157  12.526  28.303  0.00  0.00    +0.000 C 
ATOM     30  C   UNL     1       6.907  11.566  27.401  0.00  0.00    +0.000 C 
ENDBRANCH   1  30
TORSDOF 1
ENDMDL
MODEL 6
REMARK VINA RESULT:      -6.3      3.776      7.052
REMARK  Name = 
REMARK  3 active torsions:
REMARK  status: ('A' for Active; 'I' for Inactive)
REMARK    1  A    between atoms: C_1  and  C_2
REMARK    2  A    between atoms: C_2  and  N_3
REMARK    3  A    between atoms: N_18  and  C_19
REMARK                            x       y       z     vdW  Elec       q    Type
REMARK                         _______ _______ _______ _____ _____    ______ ____
ROOT
ATOM      1  N   UNL     1       1.372   8.064  19.876  0.00  0.00    +0.000 N 
ATOM      2  C   UNL     1       1.169   8.900  20.951  0.00  0.00    +0.000 C 
ATOM      3  O   UNL     1       1.780   8.750  22.006  0.00  0.00    +0.000 OA
ATOM      4  N   UNL     1       0.206   9.892  20.754  0.00  0.00    +0.000 N 
ATOM      5  C   UNL     1      -0.115  10.716  21.945  0.00  0.00    +0.000 C 
ATOM      6  C   UNL     1      -1.587  11.199  22.169  0.00  0.00    +0.000 C 
ATOM      7  O   UNL     1      -1.565  12.413  22.960  0.00  0.00    +0.000 OA
ATOM      8  C   UNL     1      -2.721  13.146  23.049  0.00  0.00    +0.000 A 
ATOM      9  C   UNL     1      -3.640  12.717  24.038  0.00  0.00    +0.000 A 
ATOM     10  C   UNL     1      -4.762  13.468  24.372  0.00  0.00    +0.000 A 
ATOM     11  C   UNL     1      -4.992  14.653  23.712  0.00  0.00    +0.000 A 
ATOM     12  F   UNL     1      -6.062  15.396  24.003  0.00  0.00    +0.000 F 
ATOM     13  C   UNL     1      -4.098  15.111  22.754  0.00  0.00    +0.000 A 
ATOM     14  C   UNL     1      -2.909  14.392  22.424  0.00  0.00    +0.000 A 
ATOM     15  C   UNL     1      -2.124  15.112  21.330  0.00  0.00    +0.000 C 
ATOM     16  N   UNL     1      -0.673  15.075  21.163  0.00  0.00    +0.000 N 
ATOM     17  C   UNL     1       0.132  14.403  22.175  0.00  0.00    +0.000 C 
ATOM     18  C   UNL     1      -0.203  14.732  19.909  0.00  0.00    +0.000 A 
ATOM     19  C   UNL     1       0.839  15.596  19.273  0.00  0.00    +0.000 A 
ATOM     20  C   UNL     1       1.790  14.923  18.598  0.00  0.00    +0.000 A 
ATOM     21  N   UNL     1       1.700  13.540  18.489  0.00  0.00    +0.000 N 
ATOM     22  N   UNL     1       2.630  12.667  18.052  0.00  0.00    +0.000 NA
ATOM     23  C   UNL     1       2.148  11.467  18.393  0.00  0.00    +0.000 A 
ATOM     24  C   UNL     1       0.853  11.522  18.953  0.00  0.00    +0.000 A 
ATOM     25  C   UNL     1       0.564  12.869  18.945  0.00  0.00    +0.000 A 
ATOM     26  N   UNL     1      -0.490  13.517  19.506  0.00  0.00    +0.000 NA
ATOM     27  C   UNL     1      -0.070  10.428  19.405  0.00  0.00    +0.000 C 
ATOM     28  H   UNL     1       0.508   7.796  19.427  0.00  0.00    +0.000 HD
ENDROOT
BRANCH   1  30
ATOM     29  C   UNL     1       1.752   5.694  20.442  0.00  0.00    +0.000 C 
ATOM     30  C   UNL     1       2.363   7.010  20.001  0.00  0.00    +0.000 C 
ENDBRANCH   1  30
TORSDOF 1
ENDMDL
MODEL 7
REMARK VINA RESULT:      -6.1      3.563      7.986
REMARK  Name = 
REMARK  3 active torsions:
REMARK  status: ('A' for Active; 'I' for Inactive)
REMARK    1  A    between atoms: C_1  and  C_2
REMARK    2  A    between atoms: C_2  and  N_3
REMARK    3  A    between atoms: N_18  and  C_19
REMARK                            x       y       z     vdW  Elec       q    Type
REMARK                         _______ _______ _______ _____ _____    ______ ____
ROOT
ATOM      1  N   UNL     1       3.234  15.246  18.169  0.00  0.00    +0.000 N 
ATOM      2  C   UNL     1       2.546  14.076  18.401  0.00  0.00    +0.000 C 
ATOM      3  O   UNL     1       3.113  12.986  18.396  0.00  0.00    +0.000 OA
ATOM      4  N   UNL     1       1.173  14.228  18.605  0.00  0.00    +0.000 N 
ATOM      5  C   UNL     1       0.401  12.967  18.725  0.00  0.00    +0.000 C 
ATOM      6  C   UNL     1      -1.044  12.894  18.130  0.00  0.00    +0.000 C 
ATOM      7  O   UNL     1      -1.797  11.889  18.853  0.00  0.00    +0.000 OA
ATOM      8  C   UNL     1      -3.157  11.847  18.672  0.00  0.00    +0.000 A 
ATOM      9  C   UNL     1      -3.598  11.121  17.539  0.00  0.00    +0.000 A 
ATOM     10  C   UNL     1      -4.942  10.832  17.331  0.00  0.00    +0.000 A 
ATOM     11  C   UNL     1      -5.869  11.277  18.244  0.00  0.00    +0.000 A 
ATOM     12  F   UNL     1      -7.168  11.024  18.072  0.00  0.00    +0.000 F 
ATOM     13  C   UNL     1      -5.465  11.971  19.376  0.00  0.00    +0.000 A 
ATOM     14  C   UNL     1      -4.089  12.239  19.648  0.00  0.00    +0.000 A 
ATOM     15  C   UNL     1      -3.936  13.032  20.944  0.00  0.00    +0.000 C 
ATOM     16  N   UNL     1      -2.789  12.967  21.847  0.00  0.00    +0.000 N 
ATOM     17  C   UNL     1      -1.742  11.989  21.581  0.00  0.00    +0.000 C 
ATOM     18  C   UNL     1      -2.205  14.171  22.194  0.00  0.00    +0.000 A 
ATOM     19  C   UNL     1      -1.945  14.451  23.640  0.00  0.00    +0.000 A 
ATOM     20  C   UNL     1      -0.782  15.081  23.888  0.00  0.00    +0.000 A 
ATOM     21  N   UNL     1       0.024  15.470  22.824  0.00  0.00    +0.000 N 
ATOM     22  N   UNL     1       1.298  15.914  22.850  0.00  0.00    +0.000 NA
ATOM     23  C   UNL     1       1.684  15.894  21.569  0.00  0.00    +0.000 A 
ATOM     24  C   UNL     1       0.646  15.550  20.676  0.00  0.00    +0.000 A 
ATOM     25  C   UNL     1      -0.432  15.343  21.511  0.00  0.00    +0.000 A 
ATOM     26  N   UNL     1      -1.658  14.843  21.210  0.00  0.00    +0.000 NA
ATOM     27  C   UNL     1       0.622  15.474  19.178  0.00  0.00    +0.000 C 
ATOM     28  H   UNL     1       2.736  15.872  17.553  0.00  0.00    +0.000 HD
ENDROOT
BRANCH   1  30
ATOM     29  C   UNL     1       5.456  15.587  19.180  0.00  0.00    +0.000 C 
ATOM     30  C   UNL     1       4.668  15.171  17.954  0.00  0.00    +0.000 C 
ENDBRANCH   1  30
TORSDOF 1
ENDMDL
MODEL 8
REMARK VINA RESULT:      -6.1      3.824      6.957
REMARK  Name = 
REMARK  3 active torsions:
REMARK  status: ('A' for Active; 'I' for Inactive)
REMARK    1  A    between atoms: C_1  and  C_2
REMARK    2  A    between atoms: C_2  and  N_3
REMARK    3  A    between atoms: N_18  and  C_19
REMARK                            x       y       z     vdW  Elec       q    Type
REMARK                         _______ _______ _______ _____ _____    ______ ____
ROOT
ATOM      1  N   UNL     1       0.749   8.906  20.542  0.00  0.00    +0.000 N 
ATOM      2  C   UNL     1       0.511   9.861  21.505  0.00  0.00    +0.000 C 
ATOM      3  O   UNL     1       1.020   9.788  22.621  0.00  0.00    +0.000 OA
ATOM      4  N   UNL     1      -0.365  10.879  21.124  0.00  0.00    +0.000 N 
ATOM      5  C   UNL     1      -0.732  11.841  22.193  0.00  0.00    +0.000 C 
ATOM      6  C   UNL     1      -2.183  12.426  22.233  0.00  0.00    +0.000 C 
ATOM      7  O   UNL     1      -2.149  13.713  22.897  0.00  0.00    +0.000 OA
ATOM      8  C   UNL     1      -3.259  14.515  22.808  0.00  0.00    +0.000 A 
ATOM      9  C   UNL     1      -4.284  14.244  23.747  0.00  0.00    +0.000 A 
ATOM     10  C   UNL     1      -5.378  15.087  23.902  0.00  0.00    +0.000 A 
ATOM     11  C   UNL     1      -5.474  16.208  23.109  0.00  0.00    +0.000 A 
ATOM     12  F   UNL     1      -6.515  17.035  23.226  0.00  0.00    +0.000 F 
ATOM     13  C   UNL     1      -4.476  16.511  22.195  0.00  0.00    +0.000 A 
ATOM     14  C   UNL     1      -3.312  15.696  22.047  0.00  0.00    +0.000 A 
ATOM     15  C   UNL     1      -2.393  16.252  20.962  0.00  0.00    +0.000 C 
ATOM     16  N   UNL     1      -0.938  16.117  20.932  0.00  0.00    +0.000 N 
ATOM     17  C   UNL     1      -0.267  15.512  22.074  0.00  0.00    +0.000 C 
ATOM     18  C   UNL     1      -0.388  15.618  19.766  0.00  0.00    +0.000 A 
ATOM     19  C   UNL     1       0.758  16.351  19.144  0.00  0.00    +0.000 A 
ATOM     20  C   UNL     1       1.717  15.559  18.629  0.00  0.00    +0.000 A 
ATOM     21  N   UNL     1       1.547  14.179  18.651  0.00  0.00    +0.000 N 
ATOM     22  N   UNL     1       2.452  13.214  18.388  0.00  0.00    +0.000 NA
ATOM     23  C   UNL     1       1.866  12.085  18.803  0.00  0.00    +0.000 A 
ATOM     24  C   UNL     1       0.535  12.271  19.236  0.00  0.00    +0.000 A 
ATOM     25  C   UNL     1       0.336  13.625  19.066  0.00  0.00    +0.000 A 
ATOM     26  N   UNL     1      -0.718  14.386  19.463  0.00  0.00    +0.000 NA
ATOM     27  C   UNL     1      -0.492  11.285  19.708  0.00  0.00    +0.000 C 
ATOM     28  H   UNL     1      -0.089   8.641  20.046  0.00  0.00    +0.000 HD
ENDROOT
BRANCH   1  30
ATOM     29  C   UNL     1       2.283   7.210  19.621  0.00  0.00    +0.000 C 
ATOM     30  C   UNL     1       1.655   7.817  20.860  0.00  0.00    +0.000 C 
ENDBRANCH   1  30
TORSDOF 1
ENDMDL
MODEL 9
REMARK VINA RESULT:      -6.1      3.560      6.001
REMARK  Name = 
REMARK  3 active torsions:
REMARK  status: ('A' for Active; 'I' for Inactive)
REMARK    1  A    between atoms: C_1  and  C_2
REMARK    2  A    between atoms: C_2  and  N_3
REMARK    3  A    between atoms: N_18  and  C_19
REMARK                            x       y       z     vdW  Elec       q    Type
REMARK                         _______ _______ _______ _____ _____    ______ ____
ROOT
ATOM      1  N   UNL     1      -1.638  15.248  23.675  0.00  0.00    +0.000 N 
ATOM      2  C   UNL     1      -2.001  14.018  23.174  0.00  0.00    +0.000 C 
ATOM      3  O   UNL     1      -1.932  13.000  23.858  0.00  0.00    +0.000 OA
ATOM      4  N   UNL     1      -2.412  14.022  21.840  0.00  0.00    +0.000 N 
ATOM      5  C   UNL     1      -2.680  12.687  21.250  0.00  0.00    +0.000 C 
ATOM      6  C   UNL     1      -2.319  12.426  19.750  0.00  0.00    +0.000 C 
ATOM      7  O   UNL     1      -3.173  11.373  19.240  0.00  0.00    +0.000 OA
ATOM      8  C   UNL     1      -3.208  11.169  17.884  0.00  0.00    +0.000 A 
ATOM      9  C   UNL     1      -2.173  10.352  17.364  0.00  0.00    +0.000 A 
ATOM     10  C   UNL     1      -2.184   9.904  16.048  0.00  0.00    +0.000 A 
ATOM     11  C   UNL     1      -3.221  10.278  15.224  0.00  0.00    +0.000 A 
ATOM     12  F   UNL     1      -3.259   9.872  13.954  0.00  0.00    +0.000 F 
ATOM     13  C   UNL     1      -4.259  11.059  15.711  0.00  0.00    +0.000 A 
ATOM     14  C   UNL     1      -4.308  11.493  17.071  0.00  0.00    +0.000 A 
ATOM     15  C   UNL     1      -5.546  12.349  17.325  0.00  0.00    +0.000 C 
ATOM     16  N   UNL     1      -6.260  12.452  18.595  0.00  0.00    +0.000 N 
ATOM     17  C   UNL     1      -5.857  11.589  19.698  0.00  0.00    +0.000 C 
ATOM     18  C   UNL     1      -6.485  13.728  19.078  0.00  0.00    +0.000 A 
ATOM     19  C   UNL     1      -7.866  14.094  19.520  0.00  0.00    +0.000 A 
ATOM     20  C   UNL     1      -7.915  14.862  20.625  0.00  0.00    +0.000 A 
ATOM     21  N   UNL     1      -6.730  15.296  21.208  0.00  0.00    +0.000 N 
ATOM     22  N   UNL     1      -6.547  15.882  22.409  0.00  0.00    +0.000 NA
ATOM     23  C   UNL     1      -5.222  15.854  22.595  0.00  0.00    +0.000 A 
ATOM     24  C   UNL     1      -4.510  15.358  21.481  0.00  0.00    +0.000 A 
ATOM     25  C   UNL     1      -5.508  15.064  20.576  0.00  0.00    +0.000 A 
ATOM     26  N   UNL     1      -5.412  14.416  19.385  0.00  0.00    +0.000 NA
ATOM     27  C   UNL     1      -3.036  15.219  21.238  0.00  0.00    +0.000 C 
ATOM     28  H   UNL     1      -1.093  15.788  23.019  0.00  0.00    +0.000 HD
ENDROOT
BRANCH   1  30
ATOM     29  C   UNL     1      -1.715  16.576  25.751  0.00  0.00    +0.000 C 
ATOM     30  C   UNL     1      -1.204  15.328  25.059  0.00  0.00    +0.000 C 
ENDBRANCH   1  30
TORSDOF 1
ENDMDL
