MODEL 1
REMARK VINA RESULT:      -6.7      0.000      0.000
REMARK  Name = 
REMARK  11 active torsions:
REMARK  status: ('A' for Active; 'I' for Inactive)
REMARK    1  A    between atoms: C_1  and  O_2
REMARK    2  A    between atoms: O_2  and  C_3
REMARK    3  A    between atoms: C_3  and  C_4
REMARK    4  A    between atoms: C_4  and  N_5
REMARK    5  A    between atoms: N_5  and  C_6
REMARK    6  A    between atoms: C_6  and  C_7
REMARK    7  A    between atoms: N_12  and  C_13
REMARK    8  A    between atoms: C_13  and  C_14
REMARK    9  A    between atoms: C_13  and  C_15
REMARK   10  A    between atoms: N_17  and  C_18
REMARK   11  A    between atoms: C_20  and  C_21
REMARK                            x       y       z     vdW  Elec       q    Type
REMARK                         _______ _______ _______ _____ _____    ______ ____
ROOT
ATOM      1  N   UNL     1       6.237   4.748  16.947  0.00  0.00    +0.000 N 
ATOM      2  C   UNL     1       5.103   4.041  17.352  0.00  0.00    +0.000 C 
ATOM      3  O   UNL     1       4.098   3.937  16.657  0.00  0.00    +0.000 OA
ATOM      4  N   UNL     1       5.188   3.445  18.582  0.00  0.00    +0.000 N 
ATOM      5  H   UNL     1       5.757   3.911  19.271  0.00  0.00    +0.000 HD
ENDROOT
BRANCH   4   6
ATOM      6  C   UNL     1       4.062   2.726  19.156  0.00  0.00    +0.000 C 
ATOM      7  C   UNL     1       4.540   1.904  20.352  0.00  0.00    +0.000 C 
BRANCH   6   8
ATOM      8  C   UNL     1       2.999   3.713  19.560  0.00  0.00    +0.000 A 
ATOM      9  C   UNL     1       3.156   4.981  20.092  0.00  0.00    +0.000 A 
ATOM     10  N   UNL     1       1.901   5.454  20.335  0.00  0.00    +0.000 N 
ATOM     11  C   UNL     1       1.550   6.722  20.925  0.00  0.00    +0.000 C 
ATOM     12  N   UNL     1       0.932   4.598  19.992  0.00  0.00    +0.000 NA
ATOM     13  C   UNL     1       1.587   3.532  19.512  0.00  0.00    +0.000 A 
ATOM     14  C   UNL     1       0.833   2.347  19.033  0.00  0.00    +0.000 C 
ENDBRANCH   6   8
ENDBRANCH   4   6
BRANCH   1  15
ATOM     15  C   UNL     1       6.190   5.397  15.623  0.00  0.00    +0.000 C 
BRANCH  15  16
ATOM     16  C   UNL     1       6.929   4.685  14.474  0.00  0.00    +0.000 C 
BRANCH  16  18
ATOM     17  C   UNL     1       6.368   3.566  12.481  0.00  0.00    +0.000 C 
ATOM     18  O   UNL     1       6.140   3.654  13.885  0.00  0.00    +0.000 OA
ENDBRANCH  16  18
ENDBRANCH  15  16
ENDBRANCH   1  15
BRANCH   1  19
ATOM     19  C   UNL     1       7.504   4.791  17.700  0.00  0.00    +0.000 C 
BRANCH  19  20
ATOM     20  C   UNL     1       7.637   5.884  18.763  0.00  0.00    +0.000 C 
ATOM     21  F   UNL     1       8.517   5.516  19.733  0.00  0.00    +0.000 F 
ATOM     22  F   UNL     1       8.172   6.997  18.192  0.00  0.00    +0.000 F 
ENDBRANCH  19  20
ENDBRANCH   1  19
TORSDOF 7
ENDMDL
MODEL 2
REMARK VINA RESULT:      -6.2      1.211      1.913
REMARK  Name = 
REMARK  11 active torsions:
REMARK  status: ('A' for Active; 'I' for Inactive)
REMARK    1  A    between atoms: C_1  and  O_2
REMARK    2  A    between atoms: O_2  and  C_3
REMARK    3  A    between atoms: C_3  and  C_4
REMARK    4  A    between atoms: C_4  and  N_5
REMARK    5  A    between atoms: N_5  and  C_6
REMARK    6  A    between atoms: C_6  and  C_7
REMARK    7  A    between atoms: N_12  and  C_13
REMARK    8  A    between atoms: C_13  and  C_14
REMARK    9  A    between atoms: C_13  and  C_15
REMARK   10  A    between atoms: N_17  and  C_18
REMARK   11  A    between atoms: C_20  and  C_21
REMARK                            x       y       z     vdW  Elec       q    Type
REMARK                         _______ _______ _______ _____ _____    ______ ____
ROOT
ATOM      1  N   UNL     1       6.181   4.623  17.083  0.00  0.00    +0.000 N 
ATOM      2  C   UNL     1       5.068   3.906  17.526  0.00  0.00    +0.000 C 
ATOM      3  O   UNL     1       4.037   3.801  16.869  0.00  0.00    +0.000 OA
ATOM      4  N   UNL     1       5.204   3.300  18.746  0.00  0.00    +0.000 N 
ATOM      5  H   UNL     1       5.796   3.764  19.416  0.00  0.00    +0.000 HD
ENDROOT
BRANCH   4   6
ATOM      6  C   UNL     1       4.105   2.569  19.357  0.00  0.00    +0.000 C 
ATOM      7  C   UNL     1       4.610   1.839  20.601  0.00  0.00    +0.000 C 
BRANCH   6   8
ATOM      8  C   UNL     1       3.000   3.532  19.698  0.00  0.00    +0.000 A 
ATOM      9  C   UNL     1       3.098   4.801  20.243  0.00  0.00    +0.000 A 
ATOM     10  N   UNL     1       1.820   5.247  20.410  0.00  0.00    +0.000 N 
ATOM     11  C   UNL     1       1.407   6.505  20.981  0.00  0.00    +0.000 C 
ATOM     12  N   UNL     1       0.892   4.373  20.004  0.00  0.00    +0.000 NA
ATOM     13  C   UNL     1       1.597   3.322  19.562  0.00  0.00    +0.000 A 
ATOM     14  C   UNL     1       0.899   2.125  19.034  0.00  0.00    +0.000 C 
ENDBRANCH   6   8
ENDBRANCH   4   6
BRANCH   1  15
ATOM     15  C   UNL     1       6.078   5.283  15.768  0.00  0.00    +0.000 C 
BRANCH  15  16
ATOM     16  C   UNL     1       5.229   6.567  15.700  0.00  0.00    +0.000 C 
BRANCH  16  18
ATOM     17  C   UNL     1       3.785   7.281  17.416  0.00  0.00    +0.000 C 
ATOM     18  O   UNL     1       5.135   7.217  16.965  0.00  0.00    +0.000 OA
ENDBRANCH  16  18
ENDBRANCH  15  16
ENDBRANCH   1  15
BRANCH   1  19
ATOM     19  C   UNL     1       7.476   4.668  17.787  0.00  0.00    +0.000 C 
BRANCH  19  20
ATOM     20  C   UNL     1       7.645   5.755  18.851  0.00  0.00    +0.000 C 
ATOM     21  F   UNL     1       8.554   5.381  19.790  0.00  0.00    +0.000 F 
ATOM     22  F   UNL     1       8.164   6.869  18.268  0.00  0.00    +0.000 F 
ENDBRANCH  19  20
ENDBRANCH   1  19
TORSDOF 7
ENDMDL
MODEL 3
REMARK VINA RESULT:      -6.1      0.846      1.077
REMARK  Name = 
REMARK  11 active torsions:
REMARK  status: ('A' for Active; 'I' for Inactive)
REMARK    1  A    between atoms: C_1  and  O_2
REMARK    2  A    between atoms: O_2  and  C_3
REMARK    3  A    between atoms: C_3  and  C_4
REMARK    4  A    between atoms: C_4  and  N_5
REMARK    5  A    between atoms: N_5  and  C_6
REMARK    6  A    between atoms: C_6  and  C_7
REMARK    7  A    between atoms: N_12  and  C_13
REMARK    8  A    between atoms: C_13  and  C_14
REMARK    9  A    between atoms: C_13  and  C_15
REMARK   10  A    between atoms: N_17  and  C_18
REMARK   11  A    between atoms: C_20  and  C_21
REMARK                            x       y       z     vdW  Elec       q    Type
REMARK                         _______ _______ _______ _____ _____    ______ ____
ROOT
ATOM      1  N   UNL     1       6.408   4.474  16.912  0.00  0.00    +0.000 N 
ATOM      2  C   UNL     1       5.234   3.898  17.400  0.00  0.00    +0.000 C 
ATOM      3  O   UNL     1       4.257   3.671  16.692  0.00  0.00    +0.000 OA
ATOM      4  N   UNL     1       5.242   3.577  18.731  0.00  0.00    +0.000 N 
ATOM      5  H   UNL     1       5.795   4.166  19.333  0.00  0.00    +0.000 HD
ENDROOT
BRANCH   4   6
ATOM      6  C   UNL     1       4.067   3.025  19.386  0.00  0.00    +0.000 C 
ATOM      7  C   UNL     1       4.499   2.228  20.617  0.00  0.00    +0.000 C 
BRANCH   6   8
ATOM      8  C   UNL     1       3.136   4.147  19.759  0.00  0.00    +0.000 A 
ATOM      9  C   UNL     1       3.328   5.511  19.619  0.00  0.00    +0.000 A 
ATOM     10  N   UNL     1       2.224   6.111  20.147  0.00  0.00    +0.000 N 
ATOM     11  C   UNL     1       1.977   7.527  20.265  0.00  0.00    +0.000 C 
ATOM     12  N   UNL     1       1.317   5.245  20.612  0.00  0.00    +0.000 NA
ATOM     13  C   UNL     1       1.857   4.041  20.378  0.00  0.00    +0.000 A 
ATOM     14  C   UNL     1       1.134   2.808  20.775  0.00  0.00    +0.000 C 
ENDBRANCH   6   8
ENDBRANCH   4   6
BRANCH   1  15
ATOM     15  C   UNL     1       6.442   4.825  15.480  0.00  0.00    +0.000 C 
BRANCH  15  16
ATOM     16  C   UNL     1       6.423   3.655  14.478  0.00  0.00    +0.000 C 
BRANCH  16  18
ATOM     17  C   UNL     1       7.144   4.174  12.298  0.00  0.00    +0.000 C 
ATOM     18  O   UNL     1       6.025   4.071  13.174  0.00  0.00    +0.000 OA
ENDBRANCH  16  18
ENDBRANCH  15  16
ENDBRANCH   1  15
BRANCH   1  19
ATOM     19  C   UNL     1       7.640   4.648  17.702  0.00  0.00    +0.000 C 
BRANCH  19  20
ATOM     20  C   UNL     1       7.740   5.914  18.555  0.00  0.00    +0.000 C 
ATOM     21  F   UNL     1       6.786   6.816  18.202  0.00  0.00    +0.000 F 
ATOM     22  F   UNL     1       7.478   5.598  19.852  0.00  0.00    +0.000 F 
ENDBRANCH  19  20
ENDBRANCH   1  19
TORSDOF 7
ENDMDL
MODEL 4
REMARK VINA RESULT:      -6.0      1.910      2.692
REMARK  Name = 
REMARK  11 active torsions:
REMARK  status: ('A' for Active; 'I' for Inactive)
REMARK    1  A    between atoms: C_1  and  O_2
REMARK    2  A    between atoms: O_2  and  C_3
REMARK    3  A    between atoms: C_3  and  C_4
REMARK    4  A    between atoms: C_4  and  N_5
REMARK    5  A    between atoms: N_5  and  C_6
REMARK    6  A    between atoms: C_6  and  C_7
REMARK    7  A    between atoms: N_12  and  C_13
REMARK    8  A    between atoms: C_13  and  C_14
REMARK    9  A    between atoms: C_13  and  C_15
REMARK   10  A    between atoms: N_17  and  C_18
REMARK   11  A    between atoms: C_20  and  C_21
REMARK                            x       y       z     vdW  Elec       q    Type
REMARK                         _______ _______ _______ _____ _____    ______ ____
ROOT
ATOM      1  N   UNL     1       5.930   4.722  17.177  0.00  0.00    +0.000 N 
ATOM      2  C   UNL     1       4.599   4.484  17.523  0.00  0.00    +0.000 C 
ATOM      3  O   UNL     1       3.867   3.733  16.886  0.00  0.00    +0.000 OA
ATOM      4  N   UNL     1       4.156   5.134  18.644  0.00  0.00    +0.000 N 
ATOM      5  H   UNL     1       4.568   6.033  18.837  0.00  0.00    +0.000 HD
ENDROOT
BRANCH   4   6
ATOM      6  C   UNL     1       2.776   5.027  19.089  0.00  0.00    +0.000 C 
ATOM      7  C   UNL     1       2.675   3.962  20.181  0.00  0.00    +0.000 C 
BRANCH   6   8
ATOM      8  C   UNL     1       2.311   6.369  19.586  0.00  0.00    +0.000 A 
ATOM      9  C   UNL     1       1.760   6.691  20.815  0.00  0.00    +0.000 A 
ATOM     10  N   UNL     1       1.458   8.019  20.764  0.00  0.00    +0.000 N 
ATOM     11  C   UNL     1       0.830   8.806  21.796  0.00  0.00    +0.000 C 
ATOM     12  N   UNL     1       1.779   8.596  19.601  0.00  0.00    +0.000 NA
ATOM     13  C   UNL     1       2.305   7.602  18.872  0.00  0.00    +0.000 A 
ATOM     14  C   UNL     1       2.776   7.859  17.489  0.00  0.00    +0.000 C 
ENDBRANCH   6   8
ENDBRANCH   4   6
BRANCH   1  15
ATOM     15  C   UNL     1       6.449   4.032  15.980  0.00  0.00    +0.000 C 
BRANCH  15  16
ATOM     16  C   UNL     1       6.455   4.836  14.665  0.00  0.00    +0.000 C 
BRANCH  16  18
ATOM     17  C   UNL     1       8.016   5.419  13.003  0.00  0.00    +0.000 C 
ATOM     18  O   UNL     1       7.728   5.420  14.398  0.00  0.00    +0.000 OA
ENDBRANCH  16  18
ENDBRANCH  15  16
ENDBRANCH   1  15
BRANCH   1  19
ATOM     19  C   UNL     1       6.872   5.518  17.986  0.00  0.00    +0.000 C 
BRANCH  19  20
ATOM     20  C   UNL     1       6.940   7.017  17.687  0.00  0.00    +0.000 C 
ATOM     21  F   UNL     1       8.089   7.332  17.031  0.00  0.00    +0.000 F 
ATOM     22  F   UNL     1       5.933   7.346  16.834  0.00  0.00    +0.000 F 
ENDBRANCH  19  20
ENDBRANCH   1  19
TORSDOF 7
ENDMDL
MODEL 5
REMARK VINA RESULT:      -6.0      3.080      6.335
REMARK  Name = 
REMARK  11 active torsions:
REMARK  status: ('A' for Active; 'I' for Inactive)
REMARK    1  A    between atoms: C_1  and  O_2
REMARK    2  A    between atoms: O_2  and  C_3
REMARK    3  A    between atoms: C_3  and  C_4
REMARK    4  A    between atoms: C_4  and  N_5
REMARK    5  A    between atoms: N_5  and  C_6
REMARK    6  A    between atoms: C_6  and  C_7
REMARK    7  A    between atoms: N_12  and  C_13
REMARK    8  A    between atoms: C_13  and  C_14
REMARK    9  A    between atoms: C_13  and  C_15
REMARK   10  A    between atoms: N_17  and  C_18
REMARK   11  A    between atoms: C_20  and  C_21
REMARK                            x       y       z     vdW  Elec       q    Type
REMARK                         _______ _______ _______ _____ _____    ______ ____
ROOT
ATOM      1  N   UNL     1       2.827   4.154  18.489  0.00  0.00    +0.000 N 
ATOM      2  C   UNL     1       4.017   4.081  17.762  0.00  0.00    +0.000 C 
ATOM      3  O   UNL     1       4.590   3.022  17.524  0.00  0.00    +0.000 OA
ATOM      4  N   UNL     1       4.503   5.276  17.305  0.00  0.00    +0.000 N 
ATOM      5  H   UNL     1       4.317   6.086  17.875  0.00  0.00    +0.000 HD
ENDROOT
BRANCH   4   6
ATOM      6  C   UNL     1       5.763   5.357  16.584  0.00  0.00    +0.000 C 
ATOM      7  C   UNL     1       5.493   5.748  15.131  0.00  0.00    +0.000 C 
BRANCH   6   8
ATOM      8  C   UNL     1       6.658   6.359  17.264  0.00  0.00    +0.000 A 
ATOM      9  C   UNL     1       6.789   7.713  17.008  0.00  0.00    +0.000 A 
ATOM     10  N   UNL     1       7.758   8.171  17.850  0.00  0.00    +0.000 N 
ATOM     11  C   UNL     1       8.274   9.515  17.931  0.00  0.00    +0.000 C 
ATOM     12  N   UNL     1       8.266   7.223  18.646  0.00  0.00    +0.000 NA
ATOM     13  C   UNL     1       7.601   6.111  18.303  0.00  0.00    +0.000 A 
ATOM     14  C   UNL     1       7.903   4.824  18.975  0.00  0.00    +0.000 C 
ENDBRANCH   6   8
ENDBRANCH   4   6
BRANCH   1  15
ATOM     15  C   UNL     1       2.265   2.885  18.991  0.00  0.00    +0.000 C 
BRANCH  15  16
ATOM     16  C   UNL     1       0.906   2.966  19.713  0.00  0.00    +0.000 C 
BRANCH  16  18
ATOM     17  C   UNL     1       2.409   2.747  21.511  0.00  0.00    +0.000 C 
ATOM     18  O   UNL     1       1.040   2.837  21.126  0.00  0.00    +0.000 OA
ENDBRANCH  16  18
ENDBRANCH  15  16
ENDBRANCH   1  15
BRANCH   1  19
ATOM     19  C   UNL     1       2.048   5.389  18.689  0.00  0.00    +0.000 C 
BRANCH  19  20
ATOM     20  C   UNL     1       2.406   6.241  19.909  0.00  0.00    +0.000 C 
ATOM     21  F   UNL     1       2.352   7.566  19.611  0.00  0.00    +0.000 F 
ATOM     22  F   UNL     1       1.468   6.048  20.876  0.00  0.00    +0.000 F 
ENDBRANCH  19  20
ENDBRANCH   1  19
TORSDOF 7
ENDMDL
MODEL 6
REMARK VINA RESULT:      -5.9      2.092      3.002
REMARK  Name = 
REMARK  11 active torsions:
REMARK  status: ('A' for Active; 'I' for Inactive)
REMARK    1  A    between atoms: C_1  and  O_2
REMARK    2  A    between atoms: O_2  and  C_3
REMARK    3  A    between atoms: C_3  and  C_4
REMARK    4  A    between atoms: C_4  and  N_5
REMARK    5  A    between atoms: N_5  and  C_6
REMARK    6  A    between atoms: C_6  and  C_7
REMARK    7  A    between atoms: N_12  and  C_13
REMARK    8  A    between atoms: C_13  and  C_14
REMARK    9  A    between atoms: C_13  and  C_15
REMARK   10  A    between atoms: N_17  and  C_18
REMARK   11  A    between atoms: C_20  and  C_21
REMARK                            x       y       z     vdW  Elec       q    Type
REMARK                         _______ _______ _______ _____ _____    ______ ____
ROOT
ATOM      1  N   UNL     1       5.408   5.338  17.147  0.00  0.00    +0.000 N 
ATOM      2  C   UNL     1       4.153   5.077  17.699  0.00  0.00    +0.000 C 
ATOM      3  O   UNL     1       3.428   4.167  17.308  0.00  0.00    +0.000 OA
ATOM      4  N   UNL     1       3.781   5.894  18.733  0.00  0.00    +0.000 N 
ATOM      5  H   UNL     1       4.126   6.840  18.705  0.00  0.00    +0.000 HD
ENDROOT
BRANCH   4   6
ATOM      6  C   UNL     1       2.476   5.774  19.364  0.00  0.00    +0.000 C 
ATOM      7  C   UNL     1       2.573   4.821  20.555  0.00  0.00    +0.000 C 
BRANCH   6   8
ATOM      8  C   UNL     1       2.006   7.139  19.790  0.00  0.00    +0.000 A 
ATOM      9  C   UNL     1       1.561   7.549  21.035  0.00  0.00    +0.000 A 
ATOM     10  N   UNL     1       1.202   8.857  20.902  0.00  0.00    +0.000 N 
ATOM     11  C   UNL     1       0.642   9.711  21.921  0.00  0.00    +0.000 C 
ATOM     12  N   UNL     1       1.389   9.340  19.669  0.00  0.00    +0.000 NA
ATOM     13  C   UNL     1       1.884   8.304  18.979  0.00  0.00    +0.000 A 
ATOM     14  C   UNL     1       2.213   8.455  17.540  0.00  0.00    +0.000 C 
ENDBRANCH   6   8
ENDBRANCH   4   6
BRANCH   1  15
ATOM     15  C   UNL     1       5.850   4.473  16.037  0.00  0.00    +0.000 C 
BRANCH  15  16
ATOM     16  C   UNL     1       6.171   5.169  14.700  0.00  0.00    +0.000 C 
BRANCH  16  18
ATOM     17  C   UNL     1       7.859   5.231  13.061  0.00  0.00    +0.000 C 
ATOM     18  O   UNL     1       7.573   5.246  14.457  0.00  0.00    +0.000 OA
ENDBRANCH  16  18
ENDBRANCH  15  16
ENDBRANCH   1  15
BRANCH   1  19
ATOM     19  C   UNL     1       6.356   6.339  17.671  0.00  0.00    +0.000 C 
BRANCH  19  20
ATOM     20  C   UNL     1       7.357   5.856  18.723  0.00  0.00    +0.000 C 
ATOM     21  F   UNL     1       8.072   4.794  18.264  0.00  0.00    +0.000 F 
ATOM     22  F   UNL     1       8.271   6.838  18.949  0.00  0.00    +0.000 F 
ENDBRANCH  19  20
ENDBRANCH   1  19
TORSDOF 7
ENDMDL
MODEL 7
REMARK VINA RESULT:      -5.8      3.808      7.259
REMARK  Name = 
REMARK  11 active torsions:
REMARK  status: ('A' for Active; 'I' for Inactive)
REMARK    1  A    between atoms: C_1  and  O_2
REMARK    2  A    between atoms: O_2  and  C_3
REMARK    3  A    between atoms: C_3  and  C_4
REMARK    4  A    between atoms: C_4  and  N_5
REMARK    5  A    between atoms: N_5  and  C_6
REMARK    6  A    between atoms: C_6  and  C_7
REMARK    7  A    between atoms: N_12  and  C_13
REMARK    8  A    between atoms: C_13  and  C_14
REMARK    9  A    between atoms: C_13  and  C_15
REMARK   10  A    between atoms: N_17  and  C_18
REMARK   11  A    between atoms: C_20  and  C_21
REMARK                            x       y       z     vdW  Elec       q    Type
REMARK                         _______ _______ _______ _____ _____    ______ ____
ROOT
ATOM      1  N   UNL     1       1.798   7.658  19.856  0.00  0.00    +0.000 N 
ATOM      2  C   UNL     1       2.235   6.333  19.899  0.00  0.00    +0.000 C 
ATOM      3  O   UNL     1       1.937   5.561  20.805  0.00  0.00    +0.000 OA
ATOM      4  N   UNL     1       3.011   5.934  18.844  0.00  0.00    +0.000 N 
ATOM      5  H   UNL     1       3.595   6.638  18.422  0.00  0.00    +0.000 HD
ENDROOT
BRANCH   4   6
ATOM      6  C   UNL     1       3.584   4.599  18.786  0.00  0.00    +0.000 C 
ATOM      7  C   UNL     1       2.496   3.594  18.410  0.00  0.00    +0.000 C 
BRANCH   6   8
ATOM      8  C   UNL     1       4.711   4.588  17.787  0.00  0.00    +0.000 A 
ATOM      9  C   UNL     1       4.683   4.198  16.459  0.00  0.00    +0.000 A 
ATOM     10  N   UNL     1       5.959   4.322  15.996  0.00  0.00    +0.000 N 
ATOM     11  C   UNL     1       6.438   3.997  14.675  0.00  0.00    +0.000 C 
ATOM     12  N   UNL     1       6.819   4.775  16.915  0.00  0.00    +0.000 NA
ATOM     13  C   UNL     1       6.071   4.947  18.013  0.00  0.00    +0.000 A 
ATOM     14  C   UNL     1       6.691   5.437  19.269  0.00  0.00    +0.000 C 
ENDBRANCH   6   8
ENDBRANCH   4   6
BRANCH   1  15
ATOM     15  C   UNL     1       0.950   8.125  20.970  0.00  0.00    +0.000 C 
BRANCH  15  16
ATOM     16  C   UNL     1       1.632   8.998  22.042  0.00  0.00    +0.000 C 
BRANCH  16  18
ATOM     17  C   UNL     1      -0.300   9.769  23.142  0.00  0.00    +0.000 C 
ATOM     18  O   UNL     1       0.848  10.139  22.384  0.00  0.00    +0.000 OA
ENDBRANCH  16  18
ENDBRANCH  15  16
ENDBRANCH   1  15
BRANCH   1  19
ATOM     19  C   UNL     1       2.031   8.576  18.726  0.00  0.00    +0.000 C 
BRANCH  19  20
ATOM     20  C   UNL     1       1.069   9.758  18.588  0.00  0.00    +0.000 C 
ATOM     21  F   UNL     1       1.727  10.878  18.184  0.00  0.00    +0.000 F 
ATOM     22  F   UNL     1       0.174   9.488  17.600  0.00  0.00    +0.000 F 
ENDBRANCH  19  20
ENDBRANCH   1  19
TORSDOF 7
ENDMDL
MODEL 8
REMARK VINA RESULT:      -5.8      4.925      7.126
REMARK  Name = 
REMARK  11 active torsions:
REMARK  status: ('A' for Active; 'I' for Inactive)
REMARK    1  A    between atoms: C_1  and  O_2
REMARK    2  A    between atoms: O_2  and  C_3
REMARK    3  A    between atoms: C_3  and  C_4
REMARK    4  A    between atoms: C_4  and  N_5
REMARK    5  A    between atoms: N_5  and  C_6
REMARK    6  A    between atoms: C_6  and  C_7
REMARK    7  A    between atoms: N_12  and  C_13
REMARK    8  A    between atoms: C_13  and  C_14
REMARK    9  A    between atoms: C_13  and  C_15
REMARK   10  A    between atoms: N_17  and  C_18
REMARK   11  A    between atoms: C_20  and  C_21
REMARK                            x       y       z     vdW  Elec       q    Type
REMARK                         _______ _______ _______ _____ _____    ______ ____
ROOT
ATOM      1  N   UNL     1       1.127   9.604  19.585  0.00  0.00    +0.000 N 
ATOM      2  C   UNL     1       1.644   8.681  18.674  0.00  0.00    +0.000 C 
ATOM      3  O   UNL     1       1.702   8.895  17.467  0.00  0.00    +0.000 OA
ATOM      4  N   UNL     1       2.108   7.513  19.217  0.00  0.00    +0.000 N 
ATOM      5  H   UNL     1       1.641   7.186  20.047  0.00  0.00    +0.000 HD
ENDROOT
BRANCH   4   6
ATOM      6  C   UNL     1       2.619   6.438  18.382  0.00  0.00    +0.000 C 
ATOM      7  C   UNL     1       4.119   6.632  18.165  0.00  0.00    +0.000 C 
BRANCH   6   8
ATOM      8  C   UNL     1       2.326   5.117  19.042  0.00  0.00    +0.000 A 
ATOM      9  C   UNL     1       1.973   4.869  20.357  0.00  0.00    +0.000 A 
ATOM     10  N   UNL     1       1.867   3.516  20.477  0.00  0.00    +0.000 N 
ATOM     11  C   UNL     1       1.555   2.772  21.673  0.00  0.00    +0.000 C 
ATOM     12  N   UNL     1       2.112   2.857  19.339  0.00  0.00    +0.000 NA
ATOM     13  C   UNL     1       2.389   3.822  18.451  0.00  0.00    +0.000 A 
ATOM     14  C   UNL     1       2.729   3.472  17.051  0.00  0.00    +0.000 C 
ENDBRANCH   6   8
ENDBRANCH   4   6
BRANCH   1  15
ATOM     15  C   UNL     1       0.626  10.881  19.040  0.00  0.00    +0.000 C 
BRANCH  15  16
ATOM     16  C   UNL     1       1.580  12.088  19.111  0.00  0.00    +0.000 C 
BRANCH  16  18
ATOM     17  C   UNL     1      -0.374  13.167  18.365  0.00  0.00    +0.000 C 
ATOM     18  O   UNL     1       1.047  13.234  18.452  0.00  0.00    +0.000 OA
ENDBRANCH  16  18
ENDBRANCH  15  16
ENDBRANCH   1  15
BRANCH   1  19
ATOM     19  C   UNL     1       1.154   9.434  21.049  0.00  0.00    +0.000 C 
BRANCH  19  20
ATOM     20  C   UNL     1      -0.196   9.249  21.746  0.00  0.00    +0.000 C 
ATOM     21  F   UNL     1      -0.683   7.996  21.543  0.00  0.00    +0.000 F 
ATOM     22  F   UNL     1      -0.019   9.355  23.091  0.00  0.00    +0.000 F 
ENDBRANCH  19  20
ENDBRANCH   1  19
TORSDOF 7
ENDMDL
MODEL 9
REMARK VINA RESULT:      -5.8      2.827      4.191
REMARK  Name = 
REMARK  11 active torsions:
REMARK  status: ('A' for Active; 'I' for Inactive)
REMARK    1  A    between atoms: C_1  and  O_2
REMARK    2  A    between atoms: O_2  and  C_3
REMARK    3  A    between atoms: C_3  and  C_4
REMARK    4  A    between atoms: C_4  and  N_5
REMARK    5  A    between atoms: N_5  and  C_6
REMARK    6  A    between atoms: C_6  and  C_7
REMARK    7  A    between atoms: N_12  and  C_13
REMARK    8  A    between atoms: C_13  and  C_14
REMARK    9  A    between atoms: C_13  and  C_15
REMARK   10  A    between atoms: N_17  and  C_18
REMARK   11  A    between atoms: C_20  and  C_21
REMARK                            x       y       z     vdW  Elec       q    Type
REMARK                         _______ _______ _______ _____ _____    ______ ____
ROOT
ATOM      1  N   UNL     1       6.249   5.849  16.806  0.00  0.00    +0.000 N 
ATOM      2  C   UNL     1       5.013   5.753  17.447  0.00  0.00    +0.000 C 
ATOM      3  O   UNL     1       4.394   6.731  17.855  0.00  0.00    +0.000 OA
ATOM      4  N   UNL     1       4.513   4.485  17.578  0.00  0.00    +0.000 N 
ATOM      5  H   UNL     1       5.188   3.744  17.683  0.00  0.00    +0.000 HD
ENDROOT
BRANCH   4   6
ATOM      6  C   UNL     1       3.264   4.230  18.277  0.00  0.00    +0.000 C 
ATOM      7  C   UNL     1       2.282   3.544  17.328  0.00  0.00    +0.000 C 
BRANCH   6   8
ATOM      8  C   UNL     1       3.540   3.380  19.488  0.00  0.00    +0.000 A 
ATOM      9  C   UNL     1       4.624   2.555  19.735  0.00  0.00    +0.000 A 
ATOM     10  N   UNL     1       4.389   1.963  20.941  0.00  0.00    +0.000 N 
ATOM     11  C   UNL     1       5.220   0.991  21.607  0.00  0.00    +0.000 C 
ATOM     12  N   UNL     1       3.240   2.345  21.508  0.00  0.00    +0.000 NA
ATOM     13  C   UNL     1       2.712   3.214  20.636  0.00  0.00    +0.000 A 
ATOM     14  C   UNL     1       1.404   3.854  20.919  0.00  0.00    +0.000 C 
ENDBRANCH   6   8
ENDBRANCH   4   6
BRANCH   1  15
ATOM     15  C   UNL     1       6.817   7.200  16.636  0.00  0.00    +0.000 C 
BRANCH  15  16
ATOM     16  C   UNL     1       7.715   7.724  17.773  0.00  0.00    +0.000 C 
BRANCH  16  18
ATOM     17  C   UNL     1       8.808   9.605  18.671  0.00  0.00    +0.000 C 
ATOM     18  O   UNL     1       7.785   9.148  17.791  0.00  0.00    +0.000 OA
ENDBRANCH  16  18
ENDBRANCH  15  16
ENDBRANCH   1  15
BRANCH   1  19
ATOM     19  C   UNL     1       6.961   4.712  16.195  0.00  0.00    +0.000 C 
BRANCH  19  20
ATOM     20  C   UNL     1       6.691   4.446  14.712  0.00  0.00    +0.000 C 
ATOM     21  F   UNL     1       5.474   4.926  14.344  0.00  0.00    +0.000 F 
ATOM     22  F   UNL     1       7.595   5.137  13.966  0.00  0.00    +0.000 F 
ENDBRANCH  19  20
ENDBRANCH   1  19
TORSDOF 7
ENDMDL
