MODEL 1
REMARK VINA RESULT:      -6.8      0.000      0.000
REMARK  Name = 
REMARK  7 active torsions:
REMARK  status: ('A' for Active; 'I' for Inactive)
REMARK    1  A    between atoms: C_1  and  C_2
REMARK    2  A    between atoms: C_3  and  C_4
REMARK    3  A    between atoms: N_6  and  C_7
REMARK    4  A    between atoms: C_19  and  C_20
REMARK    5  A    between atoms: C_22  and  S_23
REMARK    6  A    between atoms: S_23  and  C_24
REMARK    7  A    between atoms: C_24  and  C_25
REMARK                            x       y       z     vdW  Elec       q    Type
REMARK                         _______ _______ _______ _____ _____    ______ ____
ROOT
ATOM      1  C   UNL     1      -0.662   9.870  23.368  0.00  0.00    +0.000 C 
ATOM      2  C   UNL     1      -1.169  11.112  22.667  0.00  0.00    +0.000 C 
ATOM      3  C   UNL     1      -0.681  11.643  21.507  0.00  0.00    +0.000 C 
ATOM      4  C   UNL     1      -1.508  12.809  20.855  0.00  0.00    +0.000 C 
ATOM      5  C   UNL     1      -2.758  12.277  20.057  0.00  0.00    +0.000 C 
ATOM      6  C   UNL     1      -2.535  11.584  18.725  0.00  0.00    +0.000 C 
ATOM      7  C   UNL     1      -1.539  12.256  17.789  0.00  0.00    +0.000 C 
ATOM      8  C   UNL     1      -0.374  12.927  18.491  0.00  0.00    +0.000 C 
ATOM      9  C   UNL     1      -0.731  13.665  19.803  0.00  0.00    +0.000 C 
ATOM     10  C   UNL     1      -2.209  13.656  22.035  0.00  0.00    +0.000 C 
ATOM     11  C   UNL     1      -2.651  13.011  23.140  0.00  0.00    +0.000 C 
ATOM     12  N   UNL     1      -2.240  11.710  23.326  0.00  0.00    +0.000 N 
ATOM     13  H   UNL     1      -2.629  11.216  24.121  0.00  0.00    +0.000 HD
ENDROOT
BRANCH   3  14
ATOM     14  C   UNL     1       0.489  10.925  20.860  0.00  0.00    +0.000 C 
ATOM     15  O   UNL     1       1.624  11.332  21.097  0.00  0.00    +0.000 OA
ATOM     16  N   UNL     1       0.205   9.829  20.048  0.00  0.00    +0.000 N 
ATOM     17  H   UNL     1      -0.744   9.487  20.019  0.00  0.00    +0.000 HD
BRANCH  16  18
ATOM     18  C   UNL     1       1.181   8.937  19.489  0.00  0.00    +0.000 A 
ATOM     19  C   UNL     1       1.679   7.828  20.167  0.00  0.00    +0.000 A 
ATOM     20  C   UNL     1       2.626   6.979  19.567  0.00  0.00    +0.000 A 
ATOM     21  C   UNL     1       3.078   7.218  18.272  0.00  0.00    +0.000 A 
ATOM     22  C   UNL     1       2.578   8.310  17.568  0.00  0.00    +0.000 A 
ATOM     23  C   UNL     1       1.659   9.175  18.185  0.00  0.00    +0.000 A 
ENDBRANCH  16  18
ENDBRANCH   3  14
BRANCH  10  24
ATOM     24  C   UNL     1      -2.543  15.118  21.788  0.00  0.00    +0.000 C 
ATOM     25  N   UNL     1      -2.819  16.330  21.582  0.00  0.00    +0.000 NA
ENDBRANCH  10  24
BRANCH  11  26
ATOM     26  S   UNL     1      -3.844  13.808  24.141  0.00  0.00    +0.000 S 
BRANCH  26  27
ATOM     27  C   UNL     1      -4.971  12.489  24.640  0.00  0.00    +0.000 C 
BRANCH  27  28
ATOM     28  C   UNL     1      -6.392  12.709  24.135  0.00  0.00    +0.000 C 
ATOM     29  N   UNL     1      -7.041  13.854  24.492  0.00  0.00    +0.000 N 
ATOM     30  O   UNL     1      -6.963  11.872  23.439  0.00  0.00    +0.000 OA
ATOM     31  H   UNL     1      -6.569  14.594  25.000  0.00  0.00    +0.000 HD
ATOM     32  H   UNL     1      -7.972  14.021  24.135  0.00  0.00    +0.000 HD
ENDBRANCH  27  28
ENDBRANCH  26  27
ENDBRANCH  11  26
TORSDOF 6
ENDMDL
MODEL 2
REMARK VINA RESULT:      -6.6      0.785      1.198
REMARK  Name = 
REMARK  7 active torsions:
REMARK  status: ('A' for Active; 'I' for Inactive)
REMARK    1  A    between atoms: C_1  and  C_2
REMARK    2  A    between atoms: C_3  and  C_4
REMARK    3  A    between atoms: N_6  and  C_7
REMARK    4  A    between atoms: C_19  and  C_20
REMARK    5  A    between atoms: C_22  and  S_23
REMARK    6  A    between atoms: S_23  and  C_24
REMARK    7  A    between atoms: C_24  and  C_25
REMARK                            x       y       z     vdW  Elec       q    Type
REMARK                         _______ _______ _______ _____ _____    ______ ____
ROOT
ATOM      1  C   UNL     1      -0.651   9.983  23.370  0.00  0.00    +0.000 C 
ATOM      2  C   UNL     1      -1.160  11.216  22.655  0.00  0.00    +0.000 C 
ATOM      3  C   UNL     1      -0.684  11.724  21.480  0.00  0.00    +0.000 C 
ATOM      4  C   UNL     1      -1.512  12.884  20.819  0.00  0.00    +0.000 C 
ATOM      5  C   UNL     1      -2.778  12.348  20.048  0.00  0.00    +0.000 C 
ATOM      6  C   UNL     1      -2.578  11.630  18.726  0.00  0.00    +0.000 C 
ATOM      7  C   UNL     1      -1.591  12.280  17.764  0.00  0.00    +0.000 C 
ATOM      8  C   UNL     1      -0.412  12.954  18.438  0.00  0.00    +0.000 C 
ATOM      9  C   UNL     1      -0.745  13.717  19.741  0.00  0.00    +0.000 C 
ATOM     10  C   UNL     1      -2.191  13.756  21.995  0.00  0.00    +0.000 C 
ATOM     11  C   UNL     1      -2.621  13.134  23.117  0.00  0.00    +0.000 C 
ATOM     12  N   UNL     1      -2.217  11.833  23.319  0.00  0.00    +0.000 N 
ATOM     13  H   UNL     1      -2.598  11.355  24.127  0.00  0.00    +0.000 HD
ENDROOT
BRANCH   3  14
ATOM     14  C   UNL     1       0.471  10.986  20.828  0.00  0.00    +0.000 C 
ATOM     15  O   UNL     1       1.615  11.351  21.091  0.00  0.00    +0.000 OA
ATOM     16  N   UNL     1       0.164   9.922  19.984  0.00  0.00    +0.000 N 
ATOM     17  H   UNL     1      -0.795   9.611  19.932  0.00  0.00    +0.000 HD
BRANCH  16  18
ATOM     18  C   UNL     1       1.119   9.015  19.413  0.00  0.00    +0.000 A 
ATOM     19  C   UNL     1       1.651   9.168  18.137  0.00  0.00    +0.000 A 
ATOM     20  C   UNL     1       2.594   8.257  17.631  0.00  0.00    +0.000 A 
ATOM     21  C   UNL     1       3.033   7.184  18.403  0.00  0.00    +0.000 A 
ATOM     22  C   UNL     1       2.530   7.023  19.691  0.00  0.00    +0.000 A 
ATOM     23  C   UNL     1       1.562   7.916  20.177  0.00  0.00    +0.000 A 
ENDBRANCH  16  18
ENDBRANCH   3  14
BRANCH  10  24
ATOM     24  C   UNL     1      -2.518  15.216  21.727  0.00  0.00    +0.000 C 
ATOM     25  N   UNL     1      -2.789  16.427  21.504  0.00  0.00    +0.000 NA
ENDBRANCH  10  24
BRANCH  11  26
ATOM     26  S   UNL     1      -3.795  13.955  24.121  0.00  0.00    +0.000 S 
BRANCH  26  27
ATOM     27  C   UNL     1      -5.332  13.046  23.858  0.00  0.00    +0.000 C 
BRANCH  27  28
ATOM     28  C   UNL     1      -5.766  13.038  22.398  0.00  0.00    +0.000 C 
ATOM     29  N   UNL     1      -6.012  14.230  21.784  0.00  0.00    +0.000 N 
ATOM     30  O   UNL     1      -5.918  11.986  21.780  0.00  0.00    +0.000 OA
ATOM     31  H   UNL     1      -5.821  15.113  22.244  0.00  0.00    +0.000 HD
ATOM     32  H   UNL     1      -6.271  14.233  20.806  0.00  0.00    +0.000 HD
ENDBRANCH  27  28
ENDBRANCH  26  27
ENDBRANCH  11  26
TORSDOF 6
ENDMDL
MODEL 3
REMARK VINA RESULT:      -6.3      1.949      2.133
REMARK  Name = 
REMARK  7 active torsions:
REMARK  status: ('A' for Active; 'I' for Inactive)
REMARK    1  A    between atoms: C_1  and  C_2
REMARK    2  A    between atoms: C_3  and  C_4
REMARK    3  A    between atoms: N_6  and  C_7
REMARK    4  A    between atoms: C_19  and  C_20
REMARK    5  A    between atoms: C_22  and  S_23
REMARK    6  A    between atoms: S_23  and  C_24
REMARK    7  A    between atoms: C_24  and  C_25
REMARK                            x       y       z     vdW  Elec       q    Type
REMARK                         _______ _______ _______ _____ _____    ______ ____
ROOT
ATOM      1  C   UNL     1      -0.754  10.051  23.393  0.00  0.00    +0.000 C 
ATOM      2  C   UNL     1      -1.207  11.291  22.652  0.00  0.00    +0.000 C 
ATOM      3  C   UNL     1      -0.679  11.778  21.490  0.00  0.00    +0.000 C 
ATOM      4  C   UNL     1      -1.455  12.952  20.793  0.00  0.00    +0.000 C 
ATOM      5  C   UNL     1      -2.707  12.441  19.983  0.00  0.00    +0.000 C 
ATOM      6  C   UNL     1      -2.480  11.708  18.673  0.00  0.00    +0.000 C 
ATOM      7  C   UNL     1      -1.444  12.325  17.741  0.00  0.00    +0.000 C 
ATOM      8  C   UNL     1      -0.272  12.976  18.450  0.00  0.00    +0.000 C 
ATOM      9  C   UNL     1      -0.631  13.756  19.736  0.00  0.00    +0.000 C 
ATOM     10  C   UNL     1      -2.151  13.850  21.938  0.00  0.00    +0.000 C 
ATOM     11  C   UNL     1      -2.635  13.248  23.049  0.00  0.00    +0.000 C 
ATOM     12  N   UNL     1      -2.271  11.939  23.274  0.00  0.00    +0.000 N 
ATOM     13  H   UNL     1      -2.691  11.477  24.073  0.00  0.00    +0.000 HD
ENDROOT
BRANCH   3  14
ATOM     14  C   UNL     1       0.479  11.006  20.884  0.00  0.00    +0.000 C 
ATOM     15  O   UNL     1       1.622  11.362  21.162  0.00  0.00    +0.000 OA
ATOM     16  N   UNL     1       0.174   9.924  20.062  0.00  0.00    +0.000 N 
ATOM     17  H   UNL     1      -0.787   9.625  19.998  0.00  0.00    +0.000 HD
BRANCH  16  18
ATOM     18  C   UNL     1       1.129   8.988  19.537  0.00  0.00    +0.000 A 
ATOM     19  C   UNL     1       1.578   7.877  20.245  0.00  0.00    +0.000 A 
ATOM     20  C   UNL     1       2.505   6.985  19.678  0.00  0.00    +0.000 A 
ATOM     21  C   UNL     1       2.985   7.182  18.386  0.00  0.00    +0.000 A 
ATOM     22  C   UNL     1       2.534   8.275  17.652  0.00  0.00    +0.000 A 
ATOM     23  C   UNL     1       1.635   9.182  18.236  0.00  0.00    +0.000 A 
ENDBRANCH  16  18
ENDBRANCH   3  14
BRANCH  10  24
ATOM     24  C   UNL     1      -2.433  15.315  21.648  0.00  0.00    +0.000 C 
ATOM     25  N   UNL     1      -2.666  16.531  21.409  0.00  0.00    +0.000 NA
ENDBRANCH  10  24
BRANCH  11  26
ATOM     26  S   UNL     1      -3.822  14.106  24.006  0.00  0.00    +0.000 S 
BRANCH  26  27
ATOM     27  C   UNL     1      -2.938  14.580  25.506  0.00  0.00    +0.000 C 
BRANCH  27  28
ATOM     28  C   UNL     1      -1.844  15.608  25.243  0.00  0.00    +0.000 C 
ATOM     29  N   UNL     1      -2.181  16.929  25.225  0.00  0.00    +0.000 N 
ATOM     30  O   UNL     1      -0.683  15.268  25.027  0.00  0.00    +0.000 OA
ATOM     31  H   UNL     1      -3.113  17.242  25.475  0.00  0.00    +0.000 HD
ATOM     32  H   UNL     1      -1.454  17.618  25.082  0.00  0.00    +0.000 HD
ENDBRANCH  27  28
ENDBRANCH  26  27
ENDBRANCH  11  26
TORSDOF 6
ENDMDL
MODEL 4
REMARK VINA RESULT:      -6.2      1.899      2.222
REMARK  Name = 
REMARK  7 active torsions:
REMARK  status: ('A' for Active; 'I' for Inactive)
REMARK    1  A    between atoms: C_1  and  C_2
REMARK    2  A    between atoms: C_3  and  C_4
REMARK    3  A    between atoms: N_6  and  C_7
REMARK    4  A    between atoms: C_19  and  C_20
REMARK    5  A    between atoms: C_22  and  S_23
REMARK    6  A    between atoms: S_23  and  C_24
REMARK    7  A    between atoms: C_24  and  C_25
REMARK                            x       y       z     vdW  Elec       q    Type
REMARK                         _______ _______ _______ _____ _____    ______ ____
ROOT
ATOM      1  C   UNL     1      -0.684  10.023  23.359  0.00  0.00    +0.000 C 
ATOM      2  C   UNL     1      -1.202  11.249  22.638  0.00  0.00    +0.000 C 
ATOM      3  C   UNL     1      -0.731  11.753  21.459  0.00  0.00    +0.000 C 
ATOM      4  C   UNL     1      -1.567  12.904  20.792  0.00  0.00    +0.000 C 
ATOM      5  C   UNL     1      -2.829  12.354  20.025  0.00  0.00    +0.000 C 
ATOM      6  C   UNL     1      -2.625  11.630  18.707  0.00  0.00    +0.000 C 
ATOM      7  C   UNL     1      -1.643  12.281  17.741  0.00  0.00    +0.000 C 
ATOM      8  C   UNL     1      -0.468  12.968  18.410  0.00  0.00    +0.000 C 
ATOM      9  C   UNL     1      -0.806  13.735  19.709  0.00  0.00    +0.000 C 
ATOM     10  C   UNL     1      -2.251  13.777  21.963  0.00  0.00    +0.000 C 
ATOM     11  C   UNL     1      -2.676  13.159  23.089  0.00  0.00    +0.000 C 
ATOM     12  N   UNL     1      -2.263  11.862  23.298  0.00  0.00    +0.000 N 
ATOM     13  H   UNL     1      -2.641  11.386  24.110  0.00  0.00    +0.000 HD
ENDROOT
BRANCH   3  14
ATOM     14  C   UNL     1       0.430  11.020  20.811  0.00  0.00    +0.000 C 
ATOM     15  O   UNL     1       1.571  11.398  21.067  0.00  0.00    +0.000 OA
ATOM     16  N   UNL     1       0.130   9.945  19.978  0.00  0.00    +0.000 N 
ATOM     17  H   UNL     1      -0.826   9.625  19.932  0.00  0.00    +0.000 HD
BRANCH  16  18
ATOM     18  C   UNL     1       1.092   9.041  19.413  0.00  0.00    +0.000 A 
ATOM     19  C   UNL     1       1.627   9.194  18.138  0.00  0.00    +0.000 A 
ATOM     20  C   UNL     1       2.577   8.286  17.638  0.00  0.00    +0.000 A 
ATOM     21  C   UNL     1       3.019   7.218  18.415  0.00  0.00    +0.000 A 
ATOM     22  C   UNL     1       2.512   7.057  19.701  0.00  0.00    +0.000 A 
ATOM     23  C   UNL     1       1.538   7.947  20.182  0.00  0.00    +0.000 A 
ENDBRANCH  16  18
ENDBRANCH   3  14
BRANCH  10  24
ATOM     24  C   UNL     1      -2.589  15.233  21.687  0.00  0.00    +0.000 C 
ATOM     25  N   UNL     1      -2.869  16.441  21.457  0.00  0.00    +0.000 NA
ENDBRANCH  10  24
BRANCH  11  26
ATOM     26  S   UNL     1      -3.856  13.978  24.088  0.00  0.00    +0.000 S 
BRANCH  26  27
ATOM     27  C   UNL     1      -2.878  14.793  25.368  0.00  0.00    +0.000 C 
BRANCH  27  28
ATOM     28  C   UNL     1      -2.704  16.285  25.111  0.00  0.00    +0.000 C 
ATOM     29  N   UNL     1      -3.767  16.993  24.636  0.00  0.00    +0.000 N 
ATOM     30  O   UNL     1      -1.628  16.847  25.302  0.00  0.00    +0.000 OA
ATOM     31  H   UNL     1      -4.685  16.573  24.544  0.00  0.00    +0.000 HD
ATOM     32  H   UNL     1      -3.668  17.990  24.494  0.00  0.00    +0.000 HD
ENDBRANCH  27  28
ENDBRANCH  26  27
ENDBRANCH  11  26
TORSDOF 6
ENDMDL
MODEL 5
REMARK VINA RESULT:      -5.9      2.688      3.120
REMARK  Name = 
REMARK  7 active torsions:
REMARK  status: ('A' for Active; 'I' for Inactive)
REMARK    1  A    between atoms: C_1  and  C_2
REMARK    2  A    between atoms: C_3  and  C_4
REMARK    3  A    between atoms: N_6  and  C_7
REMARK    4  A    between atoms: C_19  and  C_20
REMARK    5  A    between atoms: C_22  and  S_23
REMARK    6  A    between atoms: S_23  and  C_24
REMARK    7  A    between atoms: C_24  and  C_25
REMARK                            x       y       z     vdW  Elec       q    Type
REMARK                         _______ _______ _______ _____ _____    ______ ____
ROOT
ATOM      1  C   UNL     1      -0.462   9.758  23.524  0.00  0.00    +0.000 C 
ATOM      2  C   UNL     1      -0.349  10.696  22.341  0.00  0.00    +0.000 C 
ATOM      3  C   UNL     1      -0.021  10.348  21.061  0.00  0.00    +0.000 C 
ATOM      4  C   UNL     1      -0.181  11.456  19.959  0.00  0.00    +0.000 C 
ATOM      5  C   UNL     1      -1.680  11.628  19.502  0.00  0.00    +0.000 C 
ATOM      6  C   UNL     1      -2.305  10.556  18.628  0.00  0.00    +0.000 C 
ATOM      7  C   UNL     1      -1.440  10.053  17.479  0.00  0.00    +0.000 C 
ATOM      8  C   UNL     1       0.044   9.999  17.788  0.00  0.00    +0.000 C 
ATOM      9  C   UNL     1       0.586  11.181  18.626  0.00  0.00    +0.000 C 
ATOM     10  C   UNL     1       0.121  12.890  20.634  0.00  0.00    +0.000 C 
ATOM     11  C   UNL     1      -0.253  13.111  21.915  0.00  0.00    +0.000 C 
ATOM     12  N   UNL     1      -0.628  12.020  22.667  0.00  0.00    +0.000 N 
ATOM     13  H   UNL     1      -0.970  12.204  23.604  0.00  0.00    +0.000 HD
ENDROOT
BRANCH   3  14
ATOM     14  C   UNL     1       0.268   8.881  20.799  0.00  0.00    +0.000 C 
ATOM     15  O   UNL     1      -0.657   8.078  20.909  0.00  0.00    +0.000 OA
ATOM     16  N   UNL     1       1.564   8.534  20.425  0.00  0.00    +0.000 N 
ATOM     17  H   UNL     1       2.222   9.274  20.230  0.00  0.00    +0.000 HD
BRANCH  16  18
ATOM     18  C   UNL     1       1.978   7.233  19.983  0.00  0.00    +0.000 A 
ATOM     19  C   UNL     1       1.885   6.092  20.774  0.00  0.00    +0.000 A 
ATOM     20  C   UNL     1       2.293   4.838  20.287  0.00  0.00    +0.000 A 
ATOM     21  C   UNL     1       2.788   4.704  18.993  0.00  0.00    +0.000 A 
ATOM     22  C   UNL     1       2.872   5.828  18.176  0.00  0.00    +0.000 A 
ATOM     23  C   UNL     1       2.496   7.084  18.680  0.00  0.00    +0.000 A 
ENDBRANCH  16  18
ENDBRANCH   3  14
BRANCH  10  24
ATOM     24  C   UNL     1       0.628  14.020  19.753  0.00  0.00    +0.000 C 
ATOM     25  N   UNL     1       1.048  14.957  19.022  0.00  0.00    +0.000 NA
ENDBRANCH  10  24
BRANCH  11  26
ATOM     26  S   UNL     1      -0.410  14.767  22.458  0.00  0.00    +0.000 S 
BRANCH  26  27
ATOM     27  C   UNL     1      -2.034  14.836  23.242  0.00  0.00    +0.000 C 
BRANCH  27  28
ATOM     28  C   UNL     1      -1.948  14.965  24.758  0.00  0.00    +0.000 C 
ATOM     29  N   UNL     1      -3.089  14.822  25.491  0.00  0.00    +0.000 N 
ATOM     30  O   UNL     1      -0.884  15.216  25.322  0.00  0.00    +0.000 OA
ATOM     31  H   UNL     1      -3.962  14.540  25.061  0.00  0.00    +0.000 HD
ATOM     32  H   UNL     1      -3.033  14.876  26.500  0.00  0.00    +0.000 HD
ENDBRANCH  27  28
ENDBRANCH  26  27
ENDBRANCH  11  26
TORSDOF 6
ENDMDL
MODEL 6
REMARK VINA RESULT:      -5.9      2.515      3.435
REMARK  Name = 
REMARK  7 active torsions:
REMARK  status: ('A' for Active; 'I' for Inactive)
REMARK    1  A    between atoms: C_1  and  C_2
REMARK    2  A    between atoms: C_3  and  C_4
REMARK    3  A    between atoms: N_6  and  C_7
REMARK    4  A    between atoms: C_19  and  C_20
REMARK    5  A    between atoms: C_22  and  S_23
REMARK    6  A    between atoms: S_23  and  C_24
REMARK    7  A    between atoms: C_24  and  C_25
REMARK                            x       y       z     vdW  Elec       q    Type
REMARK                         _______ _______ _______ _____ _____    ______ ____
ROOT
ATOM      1  C   UNL     1      -3.368  11.416  17.483  0.00  0.00    +0.000 C 
ATOM      2  C   UNL     1      -3.321  12.021  18.869  0.00  0.00    +0.000 C 
ATOM      3  C   UNL     1      -2.244  12.039  19.709  0.00  0.00    +0.000 C 
ATOM      4  C   UNL     1      -2.367  12.916  21.006  0.00  0.00    +0.000 C 
ATOM      5  C   UNL     1      -2.135  14.447  20.714  0.00  0.00    +0.000 C 
ATOM      6  C   UNL     1      -0.726  14.931  20.426  0.00  0.00    +0.000 C 
ATOM      7  C   UNL     1       0.362  14.381  21.341  0.00  0.00    +0.000 C 
ATOM      8  C   UNL     1       0.137  12.951  21.793  0.00  0.00    +0.000 C 
ATOM      9  C   UNL     1      -1.329  12.589  22.128  0.00  0.00    +0.000 C 
ATOM     10  C   UNL     1      -3.908  12.904  21.482  0.00  0.00    +0.000 C 
ATOM     11  C   UNL     1      -4.889  12.883  20.550  0.00  0.00    +0.000 C 
ATOM     12  N   UNL     1      -4.528  12.601  19.251  0.00  0.00    +0.000 N 
ATOM     13  H   UNL     1      -5.259  12.653  18.551  0.00  0.00    +0.000 HD
ENDROOT
BRANCH   3  14
ATOM     14  C   UNL     1      -0.970  11.383  19.208  0.00  0.00    +0.000 C 
ATOM     15  O   UNL     1      -0.154  12.079  18.608  0.00  0.00    +0.000 OA
ATOM     16  N   UNL     1      -0.791  10.028  19.480  0.00  0.00    +0.000 N 
ATOM     17  H   UNL     1      -1.450   9.571  20.093  0.00  0.00    +0.000 HD
BRANCH  16  18
ATOM     18  C   UNL     1       0.411   9.285  19.230  0.00  0.00    +0.000 A 
ATOM     19  C   UNL     1       1.014   8.466  20.180  0.00  0.00    +0.000 A 
ATOM     20  C   UNL     1       2.186   7.749  19.878  0.00  0.00    +0.000 A 
ATOM     21  C   UNL     1       2.763   7.829  18.614  0.00  0.00    +0.000 A 
ATOM     22  C   UNL     1       2.166   8.626  17.642  0.00  0.00    +0.000 A 
ATOM     23  C   UNL     1       1.016   9.367  17.960  0.00  0.00    +0.000 A 
ENDBRANCH  16  18
ENDBRANCH   3  14
BRANCH  10  24
ATOM     24  C   UNL     1      -4.222  13.125  22.953  0.00  0.00    +0.000 C 
ATOM     25  N   UNL     1      -4.481  13.309  24.173  0.00  0.00    +0.000 NA
ENDBRANCH  10  24
BRANCH  11  26
ATOM     26  S   UNL     1      -6.493  13.394  21.025  0.00  0.00    +0.000 S 
BRANCH  26  27
ATOM     27  C   UNL     1      -7.605  12.390  20.018  0.00  0.00    +0.000 C 
BRANCH  27  28
ATOM     28  C   UNL     1      -7.463  10.899  20.296  0.00  0.00    +0.000 C 
ATOM     29  N   UNL     1      -7.279  10.054  19.241  0.00  0.00    +0.000 N 
ATOM     30  O   UNL     1      -7.532  10.448  21.437  0.00  0.00    +0.000 OA
ATOM     31  H   UNL     1      -7.142  10.404  18.299  0.00  0.00    +0.000 HD
ATOM     32  H   UNL     1      -7.152   9.067  19.420  0.00  0.00    +0.000 HD
ENDBRANCH  27  28
ENDBRANCH  26  27
ENDBRANCH  11  26
TORSDOF 6
ENDMDL
MODEL 7
REMARK VINA RESULT:      -5.9      2.394      3.013
REMARK  Name = 
REMARK  7 active torsions:
REMARK  status: ('A' for Active; 'I' for Inactive)
REMARK    1  A    between atoms: C_1  and  C_2
REMARK    2  A    between atoms: C_3  and  C_4
REMARK    3  A    between atoms: N_6  and  C_7
REMARK    4  A    between atoms: C_19  and  C_20
REMARK    5  A    between atoms: C_22  and  S_23
REMARK    6  A    between atoms: S_23  and  C_24
REMARK    7  A    between atoms: C_24  and  C_25
REMARK                            x       y       z     vdW  Elec       q    Type
REMARK                         _______ _______ _______ _____ _____    ______ ____
ROOT
ATOM      1  C   UNL     1      -0.478   9.769  23.518  0.00  0.00    +0.000 C 
ATOM      2  C   UNL     1      -0.341  10.692  22.326  0.00  0.00    +0.000 C 
ATOM      3  C   UNL     1       0.004  10.327  21.055  0.00  0.00    +0.000 C 
ATOM      4  C   UNL     1      -0.132  11.423  19.938  0.00  0.00    +0.000 C 
ATOM      5  C   UNL     1      -1.622  11.600  19.457  0.00  0.00    +0.000 C 
ATOM      6  C   UNL     1      -2.242  10.522  18.586  0.00  0.00    +0.000 C 
ATOM      7  C   UNL     1      -1.364  10.000  17.456  0.00  0.00    +0.000 C 
ATOM      8  C   UNL     1       0.115   9.939  17.788  0.00  0.00    +0.000 C 
ATOM      9  C   UNL     1       0.653  11.127  18.619  0.00  0.00    +0.000 C 
ATOM     10  C   UNL     1       0.171  12.862  20.600  0.00  0.00    +0.000 C 
ATOM     11  C   UNL     1      -0.221  13.102  21.873  0.00  0.00    +0.000 C 
ATOM     12  N   UNL     1      -0.615  12.022  22.632  0.00  0.00    +0.000 N 
ATOM     13  H   UNL     1      -0.970  12.220  23.561  0.00  0.00    +0.000 HD
ENDROOT
BRANCH   3  14
ATOM     14  C   UNL     1       0.286   8.855  20.814  0.00  0.00    +0.000 C 
ATOM     15  O   UNL     1      -0.639   8.057  20.951  0.00  0.00    +0.000 OA
ATOM     16  N   UNL     1       1.576   8.499  20.429  0.00  0.00    +0.000 N 
ATOM     17  H   UNL     1       2.233   9.234  20.213  0.00  0.00    +0.000 HD
BRANCH  16  18
ATOM     18  C   UNL     1       1.982   7.189  20.004  0.00  0.00    +0.000 A 
ATOM     19  C   UNL     1       1.862   6.056  20.803  0.00  0.00    +0.000 A 
ATOM     20  C   UNL     1       2.263   4.793  20.332  0.00  0.00    +0.000 A 
ATOM     21  C   UNL     1       2.777   4.642  19.047  0.00  0.00    +0.000 A 
ATOM     22  C   UNL     1       2.887   5.759  18.224  0.00  0.00    +0.000 A 
ATOM     23  C   UNL     1       2.518   7.023  18.711  0.00  0.00    +0.000 A 
ENDBRANCH  16  18
ENDBRANCH   3  14
BRANCH  10  24
ATOM     24  C   UNL     1       0.698  13.979  19.714  0.00  0.00    +0.000 C 
ATOM     25  N   UNL     1       1.137  14.904  18.979  0.00  0.00    +0.000 NA
ENDBRANCH  10  24
BRANCH  11  26
ATOM     26  S   UNL     1      -0.374  14.765  22.394  0.00  0.00    +0.000 S 
BRANCH  26  27
ATOM     27  C   UNL     1      -2.135  14.975  22.730  0.00  0.00    +0.000 C 
BRANCH  27  28
ATOM     28  C   UNL     1      -3.016  14.288  21.694  0.00  0.00    +0.000 C 
ATOM     29  N   UNL     1      -3.160  14.871  20.470  0.00  0.00    +0.000 N 
ATOM     30  O   UNL     1      -3.609  13.242  21.949  0.00  0.00    +0.000 OA
ATOM     31  H   UNL     1      -2.623  15.690  20.207  0.00  0.00    +0.000 HD
ATOM     32  H   UNL     1      -3.718  14.404  19.767  0.00  0.00    +0.000 HD
ENDBRANCH  27  28
ENDBRANCH  26  27
ENDBRANCH  11  26
TORSDOF 6
ENDMDL
MODEL 8
REMARK VINA RESULT:      -5.8      1.885      2.711
REMARK  Name = 
REMARK  7 active torsions:
REMARK  status: ('A' for Active; 'I' for Inactive)
REMARK    1  A    between atoms: C_1  and  C_2
REMARK    2  A    between atoms: C_3  and  C_4
REMARK    3  A    between atoms: N_6  and  C_7
REMARK    4  A    between atoms: C_19  and  C_20
REMARK    5  A    between atoms: C_22  and  S_23
REMARK    6  A    between atoms: S_23  and  C_24
REMARK    7  A    between atoms: C_24  and  C_25
REMARK                            x       y       z     vdW  Elec       q    Type
REMARK                         _______ _______ _______ _____ _____    ______ ____
ROOT
ATOM      1  C   UNL     1      -3.678  11.587  18.387  0.00  0.00    +0.000 C 
ATOM      2  C   UNL     1      -3.254  12.399  19.592  0.00  0.00    +0.000 C 
ATOM      3  C   UNL     1      -1.995  12.469  20.118  0.00  0.00    +0.000 C 
ATOM      4  C   UNL     1      -1.749  13.546  21.235  0.00  0.00    +0.000 C 
ATOM      5  C   UNL     1      -1.553  14.990  20.635  0.00  0.00    +0.000 C 
ATOM      6  C   UNL     1      -0.252  15.316  19.924  0.00  0.00    +0.000 C 
ATOM      7  C   UNL     1       1.018  14.838  20.616  0.00  0.00    +0.000 C 
ATOM      8  C   UNL     1       0.873  13.518  21.349  0.00  0.00    +0.000 C 
ATOM      9  C   UNL     1      -0.465  13.323  22.099  0.00  0.00    +0.000 C 
ATOM     10  C   UNL     1      -3.112  13.723  22.077  0.00  0.00    +0.000 C 
ATOM     11  C   UNL     1      -4.302  13.629  21.439  0.00  0.00    +0.000 C 
ATOM     12  N   UNL     1      -4.300  13.119  20.160  0.00  0.00    +0.000 N 
ATOM     13  H   UNL     1      -5.186  13.115  19.667  0.00  0.00    +0.000 HD
ENDROOT
BRANCH   3  14
ATOM     14  C   UNL     1      -0.916  11.648  19.434  0.00  0.00    +0.000 C 
ATOM     15  O   UNL     1      -0.305  12.158  18.497  0.00  0.00    +0.000 OA
ATOM     16  N   UNL     1      -0.668  10.369  19.926  0.00  0.00    +0.000 N 
ATOM     17  H   UNL     1      -1.124  10.086  20.780  0.00  0.00    +0.000 HD
BRANCH  16  18
ATOM     18  C   UNL     1       0.414   9.519  19.515  0.00  0.00    +0.000 A 
ATOM     19  C   UNL     1       1.042   8.615  20.366  0.00  0.00    +0.000 A 
ATOM     20  C   UNL     1       2.089   7.796  19.908  0.00  0.00    +0.000 A 
ATOM     21  C   UNL     1       2.514   7.858  18.584  0.00  0.00    +0.000 A 
ATOM     22  C   UNL     1       1.886   8.741  17.709  0.00  0.00    +0.000 A 
ATOM     23  C   UNL     1       0.865   9.581  18.181  0.00  0.00    +0.000 A 
ENDBRANCH  16  18
ENDBRANCH   3  14
BRANCH  10  24
ATOM     24  C   UNL     1      -3.026  14.197  23.519  0.00  0.00    +0.000 C 
ATOM     25  N   UNL     1      -2.954  14.590  24.714  0.00  0.00    +0.000 NA
ENDBRANCH  10  24
BRANCH  11  26
ATOM     26  S   UNL     1      -5.711  14.326  22.207  0.00  0.00    +0.000 S 
BRANCH  26  27
ATOM     27  C   UNL     1      -6.929  12.995  22.216  0.00  0.00    +0.000 C 
BRANCH  27  28
ATOM     28  C   UNL     1      -7.360  12.603  23.624  0.00  0.00    +0.000 C 
ATOM     29  N   UNL     1      -7.469  13.581  24.568  0.00  0.00    +0.000 N 
ATOM     30  O   UNL     1      -7.586  11.433  23.924  0.00  0.00    +0.000 OA
ATOM     31  H   UNL     1      -7.364  14.561  24.331  0.00  0.00    +0.000 HD
ATOM     32  H   UNL     1      -7.786  13.332  25.496  0.00  0.00    +0.000 HD
ENDBRANCH  27  28
ENDBRANCH  26  27
ENDBRANCH  11  26
TORSDOF 6
ENDMDL
MODEL 9
REMARK VINA RESULT:      -5.7      1.535      1.856
REMARK  Name = 
REMARK  7 active torsions:
REMARK  status: ('A' for Active; 'I' for Inactive)
REMARK    1  A    between atoms: C_1  and  C_2
REMARK    2  A    between atoms: C_3  and  C_4
REMARK    3  A    between atoms: N_6  and  C_7
REMARK    4  A    between atoms: C_19  and  C_20
REMARK    5  A    between atoms: C_22  and  S_23
REMARK    6  A    between atoms: S_23  and  C_24
REMARK    7  A    between atoms: C_24  and  C_25
REMARK                            x       y       z     vdW  Elec       q    Type
REMARK                         _______ _______ _______ _____ _____    ______ ____
ROOT
ATOM      1  C   UNL     1      -0.771  10.024  23.229  0.00  0.00    +0.000 C 
ATOM      2  C   UNL     1      -1.038  11.254  22.388  0.00  0.00    +0.000 C 
ATOM      3  C   UNL     1      -0.878  11.359  21.035  0.00  0.00    +0.000 C 
ATOM      4  C   UNL     1      -1.426  12.663  20.353  0.00  0.00    +0.000 C 
ATOM      5  C   UNL     1      -2.987  12.612  20.140  0.00  0.00    +0.000 C 
ATOM      6  C   UNL     1      -3.547  11.713  19.053  0.00  0.00    +0.000 C 
ATOM      7  C   UNL     1      -2.817  11.759  17.716  0.00  0.00    +0.000 C 
ATOM      8  C   UNL     1      -1.318  11.958  17.828  0.00  0.00    +0.000 C 
ATOM      9  C   UNL     1      -0.864  12.951  18.923  0.00  0.00    +0.000 C 
ATOM     10  C   UNL     1      -1.279  13.883  21.398  0.00  0.00    +0.000 C 
ATOM     11  C   UNL     1      -1.460  13.649  22.719  0.00  0.00    +0.000 C 
ATOM     12  N   UNL     1      -1.493  12.336  23.135  0.00  0.00    +0.000 N 
ATOM     13  H   UNL     1      -1.696  12.171  24.114  0.00  0.00    +0.000 HD
ENDROOT
BRANCH   3  14
ATOM     14  C   UNL     1      -0.376  10.128  20.303  0.00  0.00    +0.000 C 
ATOM     15  O   UNL     1      -1.202   9.400  19.757  0.00  0.00    +0.000 OA
ATOM     16  N   UNL     1       0.999   9.908  20.276  0.00  0.00    +0.000 N 
ATOM     17  H   UNL     1       1.607  10.627  20.636  0.00  0.00    +0.000 HD
BRANCH  16  18
ATOM     18  C   UNL     1       1.661   8.895  19.502  0.00  0.00    +0.000 A 
ATOM     19  C   UNL     1       2.052   9.078  18.180  0.00  0.00    +0.000 A 
ATOM     20  C   UNL     1       2.709   8.057  17.471  0.00  0.00    +0.000 A 
ATOM     21  C   UNL     1       2.999   6.840  18.082  0.00  0.00    +0.000 A 
ATOM     22  C   UNL     1       2.636   6.642  19.411  0.00  0.00    +0.000 A 
ATOM     23  C   UNL     1       1.949   7.653  20.103  0.00  0.00    +0.000 A 
ENDBRANCH  16  18
ENDBRANCH   3  14
BRANCH  10  24
ATOM     24  C   UNL     1      -1.148  15.297  20.858  0.00  0.00    +0.000 C 
ATOM     25  N   UNL     1      -1.038  16.471  20.411  0.00  0.00    +0.000 NA
ENDBRANCH  10  24
BRANCH  11  26
ATOM     26  S   UNL     1      -1.821  15.009  23.759  0.00  0.00    +0.000 S 
BRANCH  26  27
ATOM     27  C   UNL     1      -3.264  14.485  24.708  0.00  0.00    +0.000 C 
BRANCH  27  28
ATOM     28  C   UNL     1      -4.408  14.010  23.820  0.00  0.00    +0.000 C 
ATOM     29  N   UNL     1      -4.848  12.726  23.954  0.00  0.00    +0.000 N 
ATOM     30  O   UNL     1      -4.919  14.749  22.982  0.00  0.00    +0.000 OA
ATOM     31  H   UNL     1      -4.498  12.120  24.688  0.00  0.00    +0.000 HD
ATOM     32  H   UNL     1      -5.628  12.415  23.391  0.00  0.00    +0.000 HD
ENDBRANCH  27  28
ENDBRANCH  26  27
ENDBRANCH  11  26
TORSDOF 6
ENDMDL
