MODEL 1
REMARK VINA RESULT:      -7.5      0.000      0.000
REMARK  Name = 
REMARK  6 active torsions:
REMARK  status: ('A' for Active; 'I' for Inactive)
REMARK    1  A    between atoms: C_1  and  C_2
REMARK    2  A    between atoms: C_2  and  S_3
REMARK    3  A    between atoms: C_2  and  C_21
REMARK    4  A    between atoms: S_3  and  C_4
REMARK    5  A    between atoms: N_10  and  C_11
REMARK    6  A    between atoms: N_14  and  C_15
REMARK                            x       y       z     vdW  Elec       q    Type
REMARK                         _______ _______ _______ _____ _____    ______ ____
ROOT
ATOM      1  C   UNL     1       3.772   6.243  18.244  0.00  0.00    +0.000 A 
ATOM      2  N   UNL     1       4.801   6.983  17.916  0.00  0.00    +0.000 NA
ATOM      3  C   UNL     1       5.998   6.369  18.106  0.00  0.00    +0.000 A 
ATOM      4  C   UNL     1       6.218   5.104  18.598  0.00  0.00    +0.000 A 
ATOM      5  C   UNL     1       7.604   4.916  18.604  0.00  0.00    +0.000 A 
ATOM      6  N   UNL     1       8.248   5.999  18.153  0.00  0.00    +0.000 NA
ATOM      7  N   UNL     1       7.249   6.872  17.864  0.00  0.00    +0.000 N 
ATOM      8  C   UNL     1       7.586   8.172  17.336  0.00  0.00    +0.000 C 
ATOM      9  C   UNL     1       5.114   4.279  18.976  0.00  0.00    +0.000 A 
ATOM     10  O   UNL     1       5.294   3.150  19.415  0.00  0.00    +0.000 OA
ATOM     11  N   UNL     1       3.867   4.910  18.759  0.00  0.00    +0.000 N 
ENDROOT
BRANCH  11  12
ATOM     12  C   UNL     1       2.720   4.153  19.156  0.00  0.00    +0.000 A 
ATOM     13  C   UNL     1       2.272   4.226  20.483  0.00  0.00    +0.000 A 
ATOM     14  C   UNL     1       1.141   3.516  20.887  0.00  0.00    +0.000 A 
ATOM     15  C   UNL     1       0.474   2.695  19.979  0.00  0.00    +0.000 A 
ATOM     16  C   UNL     1       0.933   2.589  18.666  0.00  0.00    +0.000 A 
ATOM     17  C   UNL     1       2.048   3.319  18.251  0.00  0.00    +0.000 A 
ENDBRANCH  11  12
BRANCH   1  18
ATOM     18  S   UNL     1       2.155   6.943  18.191  0.00  0.00    +0.000 S 
BRANCH  18  20
ATOM     19  C   UNL     1       1.947   9.731  17.576  0.00  0.00    +0.000 C 
ATOM     20  C   UNL     1       2.248   8.699  18.668  0.00  0.00    +0.000 C 
BRANCH  20  21
ATOM     21  C   UNL     1       1.282   8.951  19.837  0.00  0.00    +0.000 A 
ATOM     22  C   UNL     1       1.341   8.141  20.982  0.00  0.00    +0.000 A 
ATOM     23  C   UNL     1       0.540   8.416  22.095  0.00  0.00    +0.000 A 
ATOM     24  C   UNL     1      -0.349   9.489  22.073  0.00  0.00    +0.000 A 
ATOM     25  C   UNL     1      -0.449  10.282  20.934  0.00  0.00    +0.000 A 
ATOM     26  C   UNL     1       0.365  10.022  19.827  0.00  0.00    +0.000 A 
ENDBRANCH  20  21
ENDBRANCH  18  20
ENDBRANCH   1  18
TORSDOF 4
ENDMDL
MODEL 2
REMARK VINA RESULT:      -7.5      0.103      1.341
REMARK  Name = 
REMARK  6 active torsions:
REMARK  status: ('A' for Active; 'I' for Inactive)
REMARK    1  A    between atoms: C_1  and  C_2
REMARK    2  A    between atoms: C_2  and  S_3
REMARK    3  A    between atoms: C_2  and  C_21
REMARK    4  A    between atoms: S_3  and  C_4
REMARK    5  A    between atoms: N_10  and  C_11
REMARK    6  A    between atoms: N_14  and  C_15
REMARK                            x       y       z     vdW  Elec       q    Type
REMARK                         _______ _______ _______ _____ _____    ______ ____
ROOT
ATOM      1  C   UNL     1       3.774   6.204  18.254  0.00  0.00    +0.000 A 
ATOM      2  N   UNL     1       4.803   6.938  17.911  0.00  0.00    +0.000 NA
ATOM      3  C   UNL     1       6.000   6.329  18.112  0.00  0.00    +0.000 A 
ATOM      4  C   UNL     1       6.222   5.074  18.628  0.00  0.00    +0.000 A 
ATOM      5  C   UNL     1       7.608   4.887  18.637  0.00  0.00    +0.000 A 
ATOM      6  N   UNL     1       8.250   5.962  18.165  0.00  0.00    +0.000 NA
ATOM      7  N   UNL     1       7.250   6.828  17.859  0.00  0.00    +0.000 N 
ATOM      8  C   UNL     1       7.587   8.118  17.306  0.00  0.00    +0.000 C 
ATOM      9  C   UNL     1       5.118   4.256  19.023  0.00  0.00    +0.000 A 
ATOM     10  O   UNL     1       5.299   3.135  19.484  0.00  0.00    +0.000 OA
ATOM     11  N   UNL     1       3.870   4.882  18.795  0.00  0.00    +0.000 N 
ENDROOT
BRANCH  11  12
ATOM     12  C   UNL     1       2.725   4.131  19.208  0.00  0.00    +0.000 A 
ATOM     13  C   UNL     1       2.067   3.312  18.279  0.00  0.00    +0.000 A 
ATOM     14  C   UNL     1       0.963   2.552  18.665  0.00  0.00    +0.000 A 
ATOM     15  C   UNL     1       0.481   2.636  19.970  0.00  0.00    +0.000 A 
ATOM     16  C   UNL     1       1.107   3.476  20.892  0.00  0.00    +0.000 A 
ATOM     17  C   UNL     1       2.229   4.218  20.517  0.00  0.00    +0.000 A 
ENDBRANCH  11  12
BRANCH   1  18
ATOM     18  S   UNL     1       2.157   6.902  18.189  0.00  0.00    +0.000 S 
BRANCH  18  20
ATOM     19  C   UNL     1       1.848   9.683  17.586  0.00  0.00    +0.000 C 
ATOM     20  C   UNL     1       2.245   8.660  18.657  0.00  0.00    +0.000 C 
BRANCH  20  21
ATOM     21  C   UNL     1       1.355   8.895  19.888  0.00  0.00    +0.000 A 
ATOM     22  C   UNL     1       0.511  10.016  19.939  0.00  0.00    +0.000 A 
ATOM     23  C   UNL     1      -0.378  10.193  21.004  0.00  0.00    +0.000 A 
ATOM     24  C   UNL     1      -0.421   9.269  22.046  0.00  0.00    +0.000 A 
ATOM     25  C   UNL     1       0.434   8.171  22.032  0.00  0.00    +0.000 A 
ATOM     26  C   UNL     1       1.310   7.980  20.960  0.00  0.00    +0.000 A 
ENDBRANCH  20  21
ENDBRANCH  18  20
ENDBRANCH   1  18
TORSDOF 4
ENDMDL
MODEL 3
REMARK VINA RESULT:      -7.2      1.005      1.016
REMARK  Name = 
REMARK  6 active torsions:
REMARK  status: ('A' for Active; 'I' for Inactive)
REMARK    1  A    between atoms: C_1  and  C_2
REMARK    2  A    between atoms: C_2  and  S_3
REMARK    3  A    between atoms: C_2  and  C_21
REMARK    4  A    between atoms: S_3  and  C_4
REMARK    5  A    between atoms: N_10  and  C_11
REMARK    6  A    between atoms: N_14  and  C_15
REMARK                            x       y       z     vdW  Elec       q    Type
REMARK                         _______ _______ _______ _____ _____    ______ ____
ROOT
ATOM      1  C   UNL     1       3.749   6.049  18.752  0.00  0.00    +0.000 A 
ATOM      2  N   UNL     1       4.752   6.804  18.383  0.00  0.00    +0.000 NA
ATOM      3  C   UNL     1       5.721   6.133  17.707  0.00  0.00    +0.000 A 
ATOM      4  C   UNL     1       5.749   4.794  17.399  0.00  0.00    +0.000 A 
ATOM      5  C   UNL     1       6.938   4.572  16.695  0.00  0.00    +0.000 A 
ATOM      6  N   UNL     1       7.647   5.699  16.564  0.00  0.00    +0.000 NA
ATOM      7  N   UNL     1       6.889   6.634  17.195  0.00  0.00    +0.000 N 
ATOM      8  C   UNL     1       7.357   7.998  17.242  0.00  0.00    +0.000 C 
ATOM      9  C   UNL     1       4.673   3.943  17.801  0.00  0.00    +0.000 A 
ATOM     10  O   UNL     1       4.683   2.748  17.533  0.00  0.00    +0.000 OA
ATOM     11  N   UNL     1       3.654   4.645  18.486  0.00  0.00    +0.000 N 
ENDROOT
BRANCH  11  12
ATOM     12  C   UNL     1       2.566   3.843  18.953  0.00  0.00    +0.000 A 
ATOM     13  C   UNL     1       2.592   3.340  20.262  0.00  0.00    +0.000 A 
ATOM     14  C   UNL     1       1.531   2.576  20.747  0.00  0.00    +0.000 A 
ATOM     15  C   UNL     1       0.454   2.274  19.916  0.00  0.00    +0.000 A 
ATOM     16  C   UNL     1       0.435   2.740  18.601  0.00  0.00    +0.000 A 
ATOM     17  C   UNL     1       1.483   3.528  18.120  0.00  0.00    +0.000 A 
ENDBRANCH  11  12
BRANCH   1  18
ATOM     18  S   UNL     1       2.477   6.737  19.760  0.00  0.00    +0.000 S 
BRANCH  18  20
ATOM     19  C   UNL     1       1.530   8.577  17.783  0.00  0.00    +0.000 C 
ATOM     20  C   UNL     1       2.114   8.430  19.193  0.00  0.00    +0.000 C 
BRANCH  20  21
ATOM     21  C   UNL     1       1.139   9.090  20.180  0.00  0.00    +0.000 A 
ATOM     22  C   UNL     1       1.044   8.610  21.497  0.00  0.00    +0.000 A 
ATOM     23  C   UNL     1       0.237   9.259  22.437  0.00  0.00    +0.000 A 
ATOM     24  C   UNL     1      -0.504  10.382  22.073  0.00  0.00    +0.000 A 
ATOM     25  C   UNL     1      -0.450  10.851  20.764  0.00  0.00    +0.000 A 
ATOM     26  C   UNL     1       0.369  10.216  19.826  0.00  0.00    +0.000 A 
ENDBRANCH  20  21
ENDBRANCH  18  20
ENDBRANCH   1  18
TORSDOF 4
ENDMDL
MODEL 4
REMARK VINA RESULT:      -6.9      2.239      5.609
REMARK  Name = 
REMARK  6 active torsions:
REMARK  status: ('A' for Active; 'I' for Inactive)
REMARK    1  A    between atoms: C_1  and  C_2
REMARK    2  A    between atoms: C_2  and  S_3
REMARK    3  A    between atoms: C_2  and  C_21
REMARK    4  A    between atoms: S_3  and  C_4
REMARK    5  A    between atoms: N_10  and  C_11
REMARK    6  A    between atoms: N_14  and  C_15
REMARK                            x       y       z     vdW  Elec       q    Type
REMARK                         _______ _______ _______ _____ _____    ______ ____
ROOT
ATOM      1  C   UNL     1       3.254   6.289  17.888  0.00  0.00    +0.000 A 
ATOM      2  N   UNL     1       2.950   7.562  17.858  0.00  0.00    +0.000 NA
ATOM      3  C   UNL     1       2.238   7.979  18.937  0.00  0.00    +0.000 A 
ATOM      4  C   UNL     1       1.818   7.221  20.003  0.00  0.00    +0.000 A 
ATOM      5  C   UNL     1       1.130   8.086  20.861  0.00  0.00    +0.000 A 
ATOM      6  N   UNL     1       1.095   9.332  20.374  0.00  0.00    +0.000 NA
ATOM      7  N   UNL     1       1.770   9.240  19.199  0.00  0.00    +0.000 N 
ATOM      8  C   UNL     1       1.937  10.425  18.392  0.00  0.00    +0.000 C 
ATOM      9  C   UNL     1       2.124   5.825  20.056  0.00  0.00    +0.000 A 
ATOM     10  O   UNL     1       1.757   5.136  21.000  0.00  0.00    +0.000 OA
ATOM     11  N   UNL     1       2.883   5.395  18.943  0.00  0.00    +0.000 N 
ENDROOT
BRANCH  11  12
ATOM     12  C   UNL     1       3.188   3.998  18.914  0.00  0.00    +0.000 A 
ATOM     13  C   UNL     1       2.434   3.145  18.095  0.00  0.00    +0.000 A 
ATOM     14  C   UNL     1       2.729   1.783  18.031  0.00  0.00    +0.000 A 
ATOM     15  C   UNL     1       3.753   1.256  18.816  0.00  0.00    +0.000 A 
ATOM     16  C   UNL     1       4.486   2.090  19.661  0.00  0.00    +0.000 A 
ATOM     17  C   UNL     1       4.211   3.458  19.707  0.00  0.00    +0.000 A 
ENDBRANCH  11  12
BRANCH   1  18
ATOM     18  S   UNL     1       4.053   5.560  16.496  0.00  0.00    +0.000 S 
BRANCH  18  20
ATOM     19  C   UNL     1       6.393   3.993  15.984  0.00  0.00    +0.000 C 
ATOM     20  C   UNL     1       5.606   4.778  17.039  0.00  0.00    +0.000 C 
BRANCH  20  21
ATOM     21  C   UNL     1       6.535   5.859  17.615  0.00  0.00    +0.000 A 
ATOM     22  C   UNL     1       7.310   5.582  18.752  0.00  0.00    +0.000 A 
ATOM     23  C   UNL     1       8.235   6.516  19.231  0.00  0.00    +0.000 A 
ATOM     24  C   UNL     1       8.382   7.749  18.598  0.00  0.00    +0.000 A 
ATOM     25  C   UNL     1       7.597   8.056  17.491  0.00  0.00    +0.000 A 
ATOM     26  C   UNL     1       6.686   7.117  16.997  0.00  0.00    +0.000 A 
ENDBRANCH  20  21
ENDBRANCH  18  20
ENDBRANCH   1  18
TORSDOF 4
ENDMDL
MODEL 5
REMARK VINA RESULT:      -6.8      7.471     10.421
REMARK  Name = 
REMARK  6 active torsions:
REMARK  status: ('A' for Active; 'I' for Inactive)
REMARK    1  A    between atoms: C_1  and  C_2
REMARK    2  A    between atoms: C_2  and  S_3
REMARK    3  A    between atoms: C_2  and  C_21
REMARK    4  A    between atoms: S_3  and  C_4
REMARK    5  A    between atoms: N_10  and  C_11
REMARK    6  A    between atoms: N_14  and  C_15
REMARK                            x       y       z     vdW  Elec       q    Type
REMARK                         _______ _______ _______ _____ _____    ______ ____
ROOT
ATOM      1  C   UNL     1      -3.521  12.498  19.873  0.00  0.00    +0.000 A 
ATOM      2  N   UNL     1      -3.976  13.046  20.971  0.00  0.00    +0.000 NA
ATOM      3  C   UNL     1      -5.268  12.731  21.246  0.00  0.00    +0.000 A 
ATOM      4  C   UNL     1      -6.108  11.934  20.505  0.00  0.00    +0.000 A 
ATOM      5  C   UNL     1      -7.329  11.901  21.187  0.00  0.00    +0.000 A 
ATOM      6  N   UNL     1      -7.289  12.643  22.300  0.00  0.00    +0.000 NA
ATOM      7  N   UNL     1      -6.026  13.144  22.309  0.00  0.00    +0.000 N 
ATOM      8  C   UNL     1      -5.622  14.002  23.397  0.00  0.00    +0.000 C 
ATOM      9  C   UNL     1      -5.643  11.333  19.294  0.00  0.00    +0.000 A 
ATOM     10  O   UNL     1      -6.380  10.619  18.624  0.00  0.00    +0.000 OA
ATOM     11  N   UNL     1      -4.291  11.644  19.019  0.00  0.00    +0.000 N 
ENDROOT
BRANCH  11  12
ATOM     12  C   UNL     1      -3.776  11.106  17.798  0.00  0.00    +0.000 A 
ATOM     13  C   UNL     1      -2.812  10.088  17.846  0.00  0.00    +0.000 A 
ATOM     14  C   UNL     1      -2.313   9.531  16.669  0.00  0.00    +0.000 A 
ATOM     15  C   UNL     1      -2.742  10.014  15.434  0.00  0.00    +0.000 A 
ATOM     16  C   UNL     1      -3.674  11.051  15.376  0.00  0.00    +0.000 A 
ATOM     17  C   UNL     1      -4.196  11.593  16.552  0.00  0.00    +0.000 A 
ENDBRANCH  11  12
BRANCH   1  18
ATOM     18  S   UNL     1      -1.909  12.920  19.301  0.00  0.00    +0.000 S 
BRANCH  18  20
ATOM     19  C   UNL     1      -1.075  13.921  21.850  0.00  0.00    +0.000 C 
ATOM     20  C   UNL     1      -0.759  12.941  20.714  0.00  0.00    +0.000 C 
BRANCH  20  21
ATOM     21  C   UNL     1      -0.681  11.529  21.316  0.00  0.00    +0.000 A 
ATOM     22  C   UNL     1      -0.312  10.442  20.506  0.00  0.00    +0.000 A 
ATOM     23  C   UNL     1      -0.138   9.168  21.056  0.00  0.00    +0.000 A 
ATOM     24  C   UNL     1      -0.352   8.954  22.417  0.00  0.00    +0.000 A 
ATOM     25  C   UNL     1      -0.752  10.010  23.229  0.00  0.00    +0.000 A 
ATOM     26  C   UNL     1      -0.908  11.290  22.686  0.00  0.00    +0.000 A 
ENDBRANCH  20  21
ENDBRANCH  18  20
ENDBRANCH   1  18
TORSDOF 4
ENDMDL
MODEL 6
REMARK VINA RESULT:      -6.7      7.479     10.463
REMARK  Name = 
REMARK  6 active torsions:
REMARK  status: ('A' for Active; 'I' for Inactive)
REMARK    1  A    between atoms: C_1  and  C_2
REMARK    2  A    between atoms: C_2  and  S_3
REMARK    3  A    between atoms: C_2  and  C_21
REMARK    4  A    between atoms: S_3  and  C_4
REMARK    5  A    between atoms: N_10  and  C_11
REMARK    6  A    between atoms: N_14  and  C_15
REMARK                            x       y       z     vdW  Elec       q    Type
REMARK                         _______ _______ _______ _____ _____    ______ ____
ROOT
ATOM      1  C   UNL     1      -3.633  12.405  19.829  0.00  0.00    +0.000 A 
ATOM      2  N   UNL     1      -4.122  12.945  20.917  0.00  0.00    +0.000 NA
ATOM      3  C   UNL     1      -5.418  12.619  21.154  0.00  0.00    +0.000 A 
ATOM      4  C   UNL     1      -6.231  11.818  20.388  0.00  0.00    +0.000 A 
ATOM      5  C   UNL     1      -7.470  11.772  21.036  0.00  0.00    +0.000 A 
ATOM      6  N   UNL     1      -7.467  12.510  22.152  0.00  0.00    +0.000 NA
ATOM      7  N   UNL     1      -6.209  13.021  22.198  0.00  0.00    +0.000 N 
ATOM      8  C   UNL     1      -5.842  13.879  23.300  0.00  0.00    +0.000 C 
ATOM      9  C   UNL     1      -5.729  11.225  19.188  0.00  0.00    +0.000 A 
ATOM     10  O   UNL     1      -6.440  10.508  18.495  0.00  0.00    +0.000 OA
ATOM     11  N   UNL     1      -4.372  11.548  18.951  0.00  0.00    +0.000 N 
ENDROOT
BRANCH  11  12
ATOM     12  C   UNL     1      -3.819  11.019  17.743  0.00  0.00    +0.000 A 
ATOM     13  C   UNL     1      -4.204  11.567  16.511  0.00  0.00    +0.000 A 
ATOM     14  C   UNL     1      -3.659  11.084  15.321  0.00  0.00    +0.000 A 
ATOM     15  C   UNL     1      -2.757  10.022  15.350  0.00  0.00    +0.000 A 
ATOM     16  C   UNL     1      -2.394   9.447  16.568  0.00  0.00    +0.000 A 
ATOM     17  C   UNL     1      -2.916   9.946  17.763  0.00  0.00    +0.000 A 
ENDBRANCH  11  12
BRANCH   1  18
ATOM     18  S   UNL     1      -2.009  12.842  19.303  0.00  0.00    +0.000 S 
BRANCH  18  20
ATOM     19  C   UNL     1      -1.407  13.843  21.917  0.00  0.00    +0.000 C 
ATOM     20  C   UNL     1      -0.921  12.963  20.760  0.00  0.00    +0.000 C 
BRANCH  20  21
ATOM     21  C   UNL     1      -0.667  11.552  21.313  0.00  0.00    +0.000 A 
ATOM     22  C   UNL     1      -0.841  11.294  22.682  0.00  0.00    +0.000 A 
ATOM     23  C   UNL     1      -0.712   9.997  23.187  0.00  0.00    +0.000 A 
ATOM     24  C   UNL     1      -0.385   8.941  22.339  0.00  0.00    +0.000 A 
ATOM     25  C   UNL     1      -0.173   9.182  20.985  0.00  0.00    +0.000 A 
ATOM     26  C   UNL     1      -0.320  10.474  20.473  0.00  0.00    +0.000 A 
ENDBRANCH  20  21
ENDBRANCH  18  20
ENDBRANCH   1  18
TORSDOF 4
ENDMDL
MODEL 7
REMARK VINA RESULT:      -6.7      7.018     10.599
REMARK  Name = 
REMARK  6 active torsions:
REMARK  status: ('A' for Active; 'I' for Inactive)
REMARK    1  A    between atoms: C_1  and  C_2
REMARK    2  A    between atoms: C_2  and  S_3
REMARK    3  A    between atoms: C_2  and  C_21
REMARK    4  A    between atoms: S_3  and  C_4
REMARK    5  A    between atoms: N_10  and  C_11
REMARK    6  A    between atoms: N_14  and  C_15
REMARK                            x       y       z     vdW  Elec       q    Type
REMARK                         _______ _______ _______ _____ _____    ______ ____
ROOT
ATOM      1  C   UNL     1      -3.888  12.458  20.059  0.00  0.00    +0.000 A 
ATOM      2  N   UNL     1      -4.468  12.966  21.117  0.00  0.00    +0.000 NA
ATOM      3  C   UNL     1      -5.762  12.584  21.268  0.00  0.00    +0.000 A 
ATOM      4  C   UNL     1      -6.491  11.759  20.443  0.00  0.00    +0.000 A 
ATOM      5  C   UNL     1      -7.766  11.656  21.009  0.00  0.00    +0.000 A 
ATOM      6  N   UNL     1      -7.864  12.380  22.130  0.00  0.00    +0.000 NA
ATOM      7  N   UNL     1      -6.634  12.941  22.262  0.00  0.00    +0.000 N 
ATOM      8  C   UNL     1      -6.375  13.800  23.393  0.00  0.00    +0.000 C 
ATOM      9  C   UNL     1      -5.888  11.202  19.273  0.00  0.00    +0.000 A 
ATOM     10  O   UNL     1      -6.523  10.465  18.528  0.00  0.00    +0.000 OA
ATOM     11  N   UNL     1      -4.534  11.582  19.127  0.00  0.00    +0.000 N 
ENDROOT
BRANCH  11  12
ATOM     12  C   UNL     1      -3.882  11.091  17.952  0.00  0.00    +0.000 A 
ATOM     13  C   UNL     1      -4.262  11.585  16.696  0.00  0.00    +0.000 A 
ATOM     14  C   UNL     1      -3.625  11.138  15.539  0.00  0.00    +0.000 A 
ATOM     15  C   UNL     1      -2.631  10.165  15.623  0.00  0.00    +0.000 A 
ATOM     16  C   UNL     1      -2.271   9.641  16.865  0.00  0.00    +0.000 A 
ATOM     17  C   UNL     1      -2.888  10.105  18.029  0.00  0.00    +0.000 A 
ENDBRANCH  11  12
BRANCH   1  18
ATOM     18  S   UNL     1      -2.253  12.967  19.643  0.00  0.00    +0.000 S 
BRANCH  18  20
ATOM     19  C   UNL     1      -1.715  11.787  22.194  0.00  0.00    +0.000 C 
ATOM     20  C   UNL     1      -1.097  12.365  20.916  0.00  0.00    +0.000 C 
BRANCH  20  21
ATOM     21  C   UNL     1      -0.192  11.287  20.299  0.00  0.00    +0.000 A 
ATOM     22  C   UNL     1       0.040  10.087  20.990  0.00  0.00    +0.000 A 
ATOM     23  C   UNL     1       0.779   9.055  20.402  0.00  0.00    +0.000 A 
ATOM     24  C   UNL     1       1.317   9.214  19.127  0.00  0.00    +0.000 A 
ATOM     25  C   UNL     1       1.130  10.410  18.440  0.00  0.00    +0.000 A 
ATOM     26  C   UNL     1       0.375  11.436  19.017  0.00  0.00    +0.000 A 
ENDBRANCH  20  21
ENDBRANCH  18  20
ENDBRANCH   1  18
TORSDOF 4
ENDMDL
MODEL 8
REMARK VINA RESULT:      -6.6      2.768      6.493
REMARK  Name = 
REMARK  6 active torsions:
REMARK  status: ('A' for Active; 'I' for Inactive)
REMARK    1  A    between atoms: C_1  and  C_2
REMARK    2  A    between atoms: C_2  and  S_3
REMARK    3  A    between atoms: C_2  and  C_21
REMARK    4  A    between atoms: S_3  and  C_4
REMARK    5  A    between atoms: N_10  and  C_11
REMARK    6  A    between atoms: N_14  and  C_15
REMARK                            x       y       z     vdW  Elec       q    Type
REMARK                         _______ _______ _______ _____ _____    ______ ____
ROOT
ATOM      1  C   UNL     1       2.109   6.781  20.339  0.00  0.00    +0.000 A 
ATOM      2  N   UNL     1       1.301   7.634  20.917  0.00  0.00    +0.000 NA
ATOM      3  C   UNL     1       1.050   8.741  20.171  0.00  0.00    +0.000 A 
ATOM      4  C   UNL     1       1.551   9.039  18.926  0.00  0.00    +0.000 A 
ATOM      5  C   UNL     1       1.006  10.276  18.563  0.00  0.00    +0.000 A 
ATOM      6  N   UNL     1       0.206  10.758  19.521  0.00  0.00    +0.000 NA
ATOM      7  N   UNL     1       0.256   9.809  20.492  0.00  0.00    +0.000 N 
ATOM      8  C   UNL     1      -0.513  10.002  21.699  0.00  0.00    +0.000 C 
ATOM      9  C   UNL     1       2.446   8.133  18.277  0.00  0.00    +0.000 A 
ATOM     10  O   UNL     1       2.900   8.384  17.167  0.00  0.00    +0.000 OA
ATOM     11  N   UNL     1       2.692   6.970  19.045  0.00  0.00    +0.000 N 
ENDROOT
BRANCH  11  12
ATOM     12  C   UNL     1       3.613   6.040  18.469  0.00  0.00    +0.000 A 
ATOM     13  C   UNL     1       3.201   5.238  17.396  0.00  0.00    +0.000 A 
ATOM     14  C   UNL     1       4.089   4.340  16.802  0.00  0.00    +0.000 A 
ATOM     15  C   UNL     1       5.382   4.208  17.303  0.00  0.00    +0.000 A 
ATOM     16  C   UNL     1       5.791   4.976  18.395  0.00  0.00    +0.000 A 
ATOM     17  C   UNL     1       4.913   5.895  18.974  0.00  0.00    +0.000 A 
ENDBRANCH  11  12
BRANCH   1  18
ATOM     18  S   UNL     1       2.648   5.361  21.234  0.00  0.00    +0.000 S 
BRANCH  18  20
ATOM     19  C   UNL     1       0.364   4.235  19.926  0.00  0.00    +0.000 C 
ATOM     20  C   UNL     1       1.592   3.943  20.796  0.00  0.00    +0.000 C 
BRANCH  20  21
ATOM     21  C   UNL     1       2.444   2.889  20.071  0.00  0.00    +0.000 A 
ATOM     22  C   UNL     1       1.946   2.254  18.923  0.00  0.00    +0.000 A 
ATOM     23  C   UNL     1       2.745   1.367  18.193  0.00  0.00    +0.000 A 
ATOM     24  C   UNL     1       4.043   1.083  18.611  0.00  0.00    +0.000 A 
ATOM     25  C   UNL     1       4.543   1.675  19.767  0.00  0.00    +0.000 A 
ATOM     26  C   UNL     1       3.754   2.577  20.488  0.00  0.00    +0.000 A 
ENDBRANCH  20  21
ENDBRANCH  18  20
ENDBRANCH   1  18
TORSDOF 4
ENDMDL
MODEL 9
REMARK VINA RESULT:      -6.6      7.327     10.201
REMARK  Name = 
REMARK  6 active torsions:
REMARK  status: ('A' for Active; 'I' for Inactive)
REMARK    1  A    between atoms: C_1  and  C_2
REMARK    2  A    between atoms: C_2  and  S_3
REMARK    3  A    between atoms: C_2  and  C_21
REMARK    4  A    between atoms: S_3  and  C_4
REMARK    5  A    between atoms: N_10  and  C_11
REMARK    6  A    between atoms: N_14  and  C_15
REMARK                            x       y       z     vdW  Elec       q    Type
REMARK                         _______ _______ _______ _____ _____    ______ ____
ROOT
ATOM      1  C   UNL     1      -3.045  12.609  19.816  0.00  0.00    +0.000 A 
ATOM      2  N   UNL     1      -3.408  13.235  20.907  0.00  0.00    +0.000 NA
ATOM      3  C   UNL     1      -4.699  13.009  21.263  0.00  0.00    +0.000 A 
ATOM      4  C   UNL     1      -5.621  12.228  20.607  0.00  0.00    +0.000 A 
ATOM      5  C   UNL     1      -6.804  12.299  21.351  0.00  0.00    +0.000 A 
ATOM      6  N   UNL     1      -6.662  13.090  22.421  0.00  0.00    +0.000 NA
ATOM      7  N   UNL     1      -5.375  13.516  22.341  0.00  0.00    +0.000 N 
ATOM      8  C   UNL     1      -4.866  14.400  23.362  0.00  0.00    +0.000 C 
ATOM      9  C   UNL     1      -5.256  11.544  19.406  0.00  0.00    +0.000 A 
ATOM     10  O   UNL     1      -6.066  10.843  18.811  0.00  0.00    +0.000 OA
ATOM     11  N   UNL     1      -3.906  11.762  19.047  0.00  0.00    +0.000 N 
ENDROOT
BRANCH  11  12
ATOM     12  C   UNL     1      -3.487  11.137  17.830  0.00  0.00    +0.000 A 
ATOM     13  C   UNL     1      -4.006  11.591  16.609  0.00  0.00    +0.000 A 
ATOM     14  C   UNL     1      -3.594  11.013  15.408  0.00  0.00    +0.000 A 
ATOM     15  C   UNL     1      -2.692   9.951  15.420  0.00  0.00    +0.000 A 
ATOM     16  C   UNL     1      -2.197   9.469  16.632  0.00  0.00    +0.000 A 
ATOM     17  C   UNL     1      -2.587  10.062  17.835  0.00  0.00    +0.000 A 
ENDBRANCH  11  12
BRANCH   1  18
ATOM     18  S   UNL     1      -1.444  12.908  19.142  0.00  0.00    +0.000 S 
BRANCH  18  20
ATOM     19  C   UNL     1      -0.232  13.887  21.544  0.00  0.00    +0.000 C 
ATOM     20  C   UNL     1      -0.204  12.792  20.472  0.00  0.00    +0.000 C 
BRANCH  20  21
ATOM     21  C   UNL     1      -0.354  11.435  21.178  0.00  0.00    +0.000 A 
ATOM     22  C   UNL     1      -0.045  10.250  20.492  0.00  0.00    +0.000 A 
ATOM     23  C   UNL     1      -0.079   9.015  21.147  0.00  0.00    +0.000 A 
ATOM     24  C   UNL     1      -0.446   8.940  22.490  0.00  0.00    +0.000 A 
ATOM     25  C   UNL     1      -0.792  10.100  23.177  0.00  0.00    +0.000 A 
ATOM     26  C   UNL     1      -0.739  11.338  22.531  0.00  0.00    +0.000 A 
ENDBRANCH  20  21
ENDBRANCH  18  20
ENDBRANCH   1  18
TORSDOF 4
ENDMDL
