MODEL 1
REMARK VINA RESULT:      -7.8      0.000      0.000
REMARK  Name = 
REMARK  9 active torsions:
REMARK  status: ('A' for Active; 'I' for Inactive)
REMARK    1  A    between atoms: C_1  and  C_2
REMARK    2  A    between atoms: C_2  and  C_21
REMARK    3  A    between atoms: N_3  and  N_4
REMARK    4  A    between atoms: C_5  and  C_7
REMARK    5  A    between atoms: C_10  and  C_11
REMARK    6  A    between atoms: C_11  and  S_12
REMARK    7  A    between atoms: S_12  and  C_13
REMARK    8  A    between atoms: N_17  and  C_18
REMARK    9  A    between atoms: C_24  and  C_25
REMARK                            x       y       z     vdW  Elec       q    Type
REMARK                         _______ _______ _______ _____ _____    ______ ____
ROOT
ATOM      1  N   UNL     1       1.256   8.928  19.999  0.00  0.00    +0.000 N 
ATOM      2  C   UNL     1       0.378   9.916  19.563  0.00  0.00    +0.000 C 
ATOM      3  O   UNL     1       0.210  10.262  18.400  0.00  0.00    +0.000 OA
ATOM      4  H   UNL     1       1.205   8.619  20.957  0.00  0.00    +0.000 HD
ENDROOT
BRANCH   2   5
ATOM      5  C   UNL     1      -0.430  10.561  20.649  0.00  0.00    +0.000 A 
ATOM      6  C   UNL     1      -0.297  10.176  21.988  0.00  0.00    +0.000 A 
ATOM      7  C   UNL     1      -1.069  10.790  22.982  0.00  0.00    +0.000 A 
ATOM      8  C   UNL     1      -1.968  11.822  22.671  0.00  0.00    +0.000 A 
ATOM      9  C   UNL     1      -2.094  12.205  21.326  0.00  0.00    +0.000 A 
ATOM     10  C   UNL     1      -1.327  11.586  20.325  0.00  0.00    +0.000 A 
BRANCH   8  11
ATOM     11  C   UNL     1      -2.803  12.479  23.759  0.00  0.00    +0.000 C 
BRANCH  11  12
ATOM     12  S   UNL     1      -3.937  13.754  23.098  0.00  0.00    +0.000 S 
BRANCH  12  13
ATOM     13  C   UNL     1      -5.463  12.944  23.188  0.00  0.00    +0.000 A 
ATOM     14  N   UNL     1      -5.948  12.287  24.217  0.00  0.00    +0.000 NA
ATOM     15  N   UNL     1      -7.205  11.835  23.874  0.00  0.00    +0.000 NA
ATOM     16  C   UNL     1      -7.447  12.229  22.645  0.00  0.00    +0.000 A 
ATOM     17  N   UNL     1      -6.371  12.917  22.166  0.00  0.00    +0.000 N 
ATOM     18  C   UNL     1      -6.271  13.501  20.855  0.00  0.00    +0.000 C 
ENDBRANCH  12  13
ENDBRANCH  11  12
ENDBRANCH   8  11
ENDBRANCH   2   5
BRANCH   1  21
ATOM     19  C   UNL     1       1.854   6.156  20.472  0.00  0.00    +0.000 C 
ATOM     20  C   UNL     1       2.321   6.996  19.295  0.00  0.00    +0.000 C 
ATOM     21  N   UNL     1       2.044   8.256  19.113  0.00  0.00    +0.000 NA
BRANCH  20  22
ATOM     22  C   UNL     1       3.185   6.297  18.272  0.00  0.00    +0.000 A 
ATOM     23  C   UNL     1       3.144   4.904  18.103  0.00  0.00    +0.000 A 
ATOM     24  C   UNL     1       3.967   4.271  17.165  0.00  0.00    +0.000 A 
ATOM     25  C   UNL     1       4.841   5.021  16.377  0.00  0.00    +0.000 A 
ATOM     26  C   UNL     1       4.884   6.410  16.528  0.00  0.00    +0.000 A 
ATOM     27  C   UNL     1       4.061   7.043  17.469  0.00  0.00    +0.000 A 
BRANCH  25  28
ATOM     28  C   UNL     1       5.688   4.364  15.424  0.00  0.00    +0.000 C 
ATOM     29  N   UNL     1       6.386   3.839  14.663  0.00  0.00    +0.000 NA
ENDBRANCH  25  28
ENDBRANCH  20  22
ENDBRANCH   1  21
TORSDOF 7
ENDMDL
MODEL 2
REMARK VINA RESULT:      -7.6      3.531     12.073
REMARK  Name = 
REMARK  9 active torsions:
REMARK  status: ('A' for Active; 'I' for Inactive)
REMARK    1  A    between atoms: C_1  and  C_2
REMARK    2  A    between atoms: C_2  and  C_21
REMARK    3  A    between atoms: N_3  and  N_4
REMARK    4  A    between atoms: C_5  and  C_7
REMARK    5  A    between atoms: C_10  and  C_11
REMARK    6  A    between atoms: C_11  and  S_12
REMARK    7  A    between atoms: S_12  and  C_13
REMARK    8  A    between atoms: N_17  and  C_18
REMARK    9  A    between atoms: C_24  and  C_25
REMARK                            x       y       z     vdW  Elec       q    Type
REMARK                         _______ _______ _______ _____ _____    ______ ____
ROOT
ATOM      1  N   UNL     1       1.810   8.375  19.899  0.00  0.00    +0.000 N 
ATOM      2  C   UNL     1       1.963   7.010  20.126  0.00  0.00    +0.000 C 
ATOM      3  O   UNL     1       1.285   6.332  20.889  0.00  0.00    +0.000 OA
ATOM      4  H   UNL     1       2.320   8.802  19.142  0.00  0.00    +0.000 HD
ENDROOT
BRANCH   2   5
ATOM      5  C   UNL     1       3.044   6.357  19.320  0.00  0.00    +0.000 A 
ATOM      6  C   UNL     1       3.657   5.170  19.741  0.00  0.00    +0.000 A 
ATOM      7  C   UNL     1       4.670   4.584  18.972  0.00  0.00    +0.000 A 
ATOM      8  C   UNL     1       5.075   5.148  17.752  0.00  0.00    +0.000 A 
ATOM      9  C   UNL     1       4.454   6.336  17.334  0.00  0.00    +0.000 A 
ATOM     10  C   UNL     1       3.442   6.931  18.107  0.00  0.00    +0.000 A 
BRANCH   8  11
ATOM     11  C   UNL     1       6.179   4.503  16.927  0.00  0.00    +0.000 C 
BRANCH  11  12
ATOM     12  S   UNL     1       5.564   3.824  15.343  0.00  0.00    +0.000 S 
BRANCH  12  13
ATOM     13  C   UNL     1       6.656   4.541  14.209  0.00  0.00    +0.000 A 
ATOM     14  N   UNL     1       7.548   5.475  14.454  0.00  0.00    +0.000 NA
ATOM     15  N   UNL     1       8.228   5.726  13.280  0.00  0.00    +0.000 NA
ATOM     16  C   UNL     1       7.729   4.939  12.356  0.00  0.00    +0.000 A 
ATOM     17  N   UNL     1       6.724   4.187  12.890  0.00  0.00    +0.000 N 
ATOM     18  C   UNL     1       5.944   3.210  12.177  0.00  0.00    +0.000 C 
ENDBRANCH  12  13
ENDBRANCH  11  12
ENDBRANCH   8  11
ENDBRANCH   2   5
BRANCH   1  21
ATOM     19  C   UNL     1       1.002  10.933  18.866  0.00  0.00    +0.000 C 
ATOM     20  C   UNL     1       0.463  10.246  20.109  0.00  0.00    +0.000 C 
ATOM     21  N   UNL     1       0.858   9.090  20.561  0.00  0.00    +0.000 NA
BRANCH  20  22
ATOM     22  C   UNL     1      -0.609  10.987  20.875  0.00  0.00    +0.000 A 
ATOM     23  C   UNL     1      -1.493  11.869  20.234  0.00  0.00    +0.000 A 
ATOM     24  C   UNL     1      -2.466  12.562  20.962  0.00  0.00    +0.000 A 
ATOM     25  C   UNL     1      -2.574  12.382  22.342  0.00  0.00    +0.000 A 
ATOM     26  C   UNL     1      -1.706  11.498  22.990  0.00  0.00    +0.000 A 
ATOM     27  C   UNL     1      -0.730  10.805  22.260  0.00  0.00    +0.000 A 
BRANCH  25  28
ATOM     28  C   UNL     1      -3.568  13.104  23.083  0.00  0.00    +0.000 C 
ATOM     29  N   UNL     1      -4.376  13.672  23.687  0.00  0.00    +0.000 NA
ENDBRANCH  25  28
ENDBRANCH  20  22
ENDBRANCH   1  21
TORSDOF 7
ENDMDL
MODEL 3
REMARK VINA RESULT:      -7.6      3.557     12.002
REMARK  Name = 
REMARK  9 active torsions:
REMARK  status: ('A' for Active; 'I' for Inactive)
REMARK    1  A    between atoms: C_1  and  C_2
REMARK    2  A    between atoms: C_2  and  C_21
REMARK    3  A    between atoms: N_3  and  N_4
REMARK    4  A    between atoms: C_5  and  C_7
REMARK    5  A    between atoms: C_10  and  C_11
REMARK    6  A    between atoms: C_11  and  S_12
REMARK    7  A    between atoms: S_12  and  C_13
REMARK    8  A    between atoms: N_17  and  C_18
REMARK    9  A    between atoms: C_24  and  C_25
REMARK                            x       y       z     vdW  Elec       q    Type
REMARK                         _______ _______ _______ _____ _____    ______ ____
ROOT
ATOM      1  N   UNL     1       1.511   8.725  19.509  0.00  0.00    +0.000 N 
ATOM      2  C   UNL     1       2.045   8.718  18.224  0.00  0.00    +0.000 C 
ATOM      3  O   UNL     1       1.784   9.522  17.337  0.00  0.00    +0.000 OA
ATOM      4  H   UNL     1       1.907   8.111  20.204  0.00  0.00    +0.000 HD
ENDROOT
BRANCH   2   5
ATOM      5  C   UNL     1       3.042   7.630  17.964  0.00  0.00    +0.000 A 
ATOM      6  C   UNL     1       2.976   6.400  18.630  0.00  0.00    +0.000 A 
ATOM      7  C   UNL     1       3.924   5.403  18.374  0.00  0.00    +0.000 A 
ATOM      8  C   UNL     1       4.943   5.595  17.428  0.00  0.00    +0.000 A 
ATOM      9  C   UNL     1       5.003   6.830  16.761  0.00  0.00    +0.000 A 
ATOM     10  C   UNL     1       4.057   7.835  17.021  0.00  0.00    +0.000 A 
BRANCH   8  11
ATOM     11  C   UNL     1       5.970   4.505  17.160  0.00  0.00    +0.000 C 
BRANCH  11  12
ATOM     12  S   UNL     1       5.643   3.600  15.605  0.00  0.00    +0.000 S 
BRANCH  12  13
ATOM     13  C   UNL     1       6.700   4.409  14.500  0.00  0.00    +0.000 A 
ATOM     14  N   UNL     1       7.628   5.291  14.799  0.00  0.00    +0.000 NA
ATOM     15  N   UNL     1       8.260   5.651  13.626  0.00  0.00    +0.000 NA
ATOM     16  C   UNL     1       7.697   4.978  12.649  0.00  0.00    +0.000 A 
ATOM     17  N   UNL     1       6.697   4.197  13.149  0.00  0.00    +0.000 N 
ATOM     18  C   UNL     1       5.858   3.320  12.376  0.00  0.00    +0.000 C 
ENDBRANCH  12  13
ENDBRANCH  11  12
ENDBRANCH   8  11
ENDBRANCH   2   5
BRANCH   1  21
ATOM     19  C   UNL     1       0.924   9.090  22.300  0.00  0.00    +0.000 C 
ATOM     20  C   UNL     1       0.322   9.863  21.139  0.00  0.00    +0.000 C 
ATOM     21  N   UNL     1       0.599   9.667  19.881  0.00  0.00    +0.000 NA
BRANCH  20  22
ATOM     22  C   UNL     1      -0.684  10.932  21.493  0.00  0.00    +0.000 A 
ATOM     23  C   UNL     1      -1.351  11.671  20.504  0.00  0.00    +0.000 A 
ATOM     24  C   UNL     1      -2.265  12.672  20.851  0.00  0.00    +0.000 A 
ATOM     25  C   UNL     1      -2.531  12.947  22.193  0.00  0.00    +0.000 A 
ATOM     26  C   UNL     1      -1.882  12.210  23.188  0.00  0.00    +0.000 A 
ATOM     27  C   UNL     1      -0.965  11.209  22.840  0.00  0.00    +0.000 A 
BRANCH  25  28
ATOM     28  C   UNL     1      -3.463  13.981  22.540  0.00  0.00    +0.000 C 
ATOM     29  N   UNL     1      -4.209  14.825  22.807  0.00  0.00    +0.000 NA
ENDBRANCH  25  28
ENDBRANCH  20  22
ENDBRANCH   1  21
TORSDOF 7
ENDMDL
MODEL 4
REMARK VINA RESULT:      -7.6      3.598     10.905
REMARK  Name = 
REMARK  9 active torsions:
REMARK  status: ('A' for Active; 'I' for Inactive)
REMARK    1  A    between atoms: C_1  and  C_2
REMARK    2  A    between atoms: C_2  and  C_21
REMARK    3  A    between atoms: N_3  and  N_4
REMARK    4  A    between atoms: C_5  and  C_7
REMARK    5  A    between atoms: C_10  and  C_11
REMARK    6  A    between atoms: C_11  and  S_12
REMARK    7  A    between atoms: S_12  and  C_13
REMARK    8  A    between atoms: N_17  and  C_18
REMARK    9  A    between atoms: C_24  and  C_25
REMARK                            x       y       z     vdW  Elec       q    Type
REMARK                         _______ _______ _______ _____ _____    ______ ____
ROOT
ATOM      1  N   UNL     1       0.778  10.692  20.913  0.00  0.00    +0.000 N 
ATOM      2  C   UNL     1       0.381  10.014  19.763  0.00  0.00    +0.000 C 
ATOM      3  O   UNL     1      -0.648  10.219  19.132  0.00  0.00    +0.000 OA
ATOM      4  H   UNL     1       1.711  10.549  21.265  0.00  0.00    +0.000 HD
ENDROOT
BRANCH   2   5
ATOM      5  C   UNL     1       1.348   8.975  19.283  0.00  0.00    +0.000 A 
ATOM      6  C   UNL     1       1.710   7.884  20.082  0.00  0.00    +0.000 A 
ATOM      7  C   UNL     1       2.622   6.931  19.612  0.00  0.00    +0.000 A 
ATOM      8  C   UNL     1       3.170   7.025  18.324  0.00  0.00    +0.000 A 
ATOM      9  C   UNL     1       2.801   8.120  17.525  0.00  0.00    +0.000 A 
ATOM     10  C   UNL     1       1.893   9.082  17.997  0.00  0.00    +0.000 A 
BRANCH   8  11
ATOM     11  C   UNL     1       4.162   5.985  17.824  0.00  0.00    +0.000 C 
BRANCH  11  12
ATOM     12  S   UNL     1       4.501   4.686  19.066  0.00  0.00    +0.000 S 
BRANCH  12  13
ATOM     13  C   UNL     1       3.223   3.562  18.753  0.00  0.00    +0.000 A 
ATOM     14  N   UNL     1       2.922   3.012  17.598  0.00  0.00    +0.000 NA
ATOM     15  N   UNL     1       1.864   2.150  17.805  0.00  0.00    +0.000 NA
ATOM     16  C   UNL     1       1.552   2.204  19.080  0.00  0.00    +0.000 A 
ATOM     17  N   UNL     1       2.370   3.093  19.713  0.00  0.00    +0.000 N 
ATOM     18  C   UNL     1       2.324   3.415  21.115  0.00  0.00    +0.000 C 
ENDBRANCH  12  13
ENDBRANCH  11  12
ENDBRANCH   8  11
ENDBRANCH   2   5
BRANCH   1  21
ATOM     19  C   UNL     1      -0.842  10.085  23.210  0.00  0.00    +0.000 C 
ATOM     20  C   UNL     1      -0.740  11.425  22.501  0.00  0.00    +0.000 C 
ATOM     21  N   UNL     1      -0.006  11.668  21.452  0.00  0.00    +0.000 NA
BRANCH  20  22
ATOM     22  C   UNL     1      -1.575  12.550  23.067  0.00  0.00    +0.000 A 
ATOM     23  C   UNL     1      -2.917  12.357  23.431  0.00  0.00    +0.000 A 
ATOM     24  C   UNL     1      -3.682  13.415  23.934  0.00  0.00    +0.000 A 
ATOM     25  C   UNL     1      -3.116  14.682  24.087  0.00  0.00    +0.000 A 
ATOM     26  C   UNL     1      -1.777  14.884  23.739  0.00  0.00    +0.000 A 
ATOM     27  C   UNL     1      -1.012  13.824  23.233  0.00  0.00    +0.000 A 
BRANCH  25  28
ATOM     28  C   UNL     1      -3.909  15.764  24.596  0.00  0.00    +0.000 C 
ATOM     29  N   UNL     1      -4.555  16.641  24.990  0.00  0.00    +0.000 NA
ENDBRANCH  25  28
ENDBRANCH  20  22
ENDBRANCH   1  21
TORSDOF 7
ENDMDL
MODEL 5
REMARK VINA RESULT:      -7.5      3.618     10.829
REMARK  Name = 
REMARK  9 active torsions:
REMARK  status: ('A' for Active; 'I' for Inactive)
REMARK    1  A    between atoms: C_1  and  C_2
REMARK    2  A    between atoms: C_2  and  C_21
REMARK    3  A    between atoms: N_3  and  N_4
REMARK    4  A    between atoms: C_5  and  C_7
REMARK    5  A    between atoms: C_10  and  C_11
REMARK    6  A    between atoms: C_11  and  S_12
REMARK    7  A    between atoms: S_12  and  C_13
REMARK    8  A    between atoms: N_17  and  C_18
REMARK    9  A    between atoms: C_24  and  C_25
REMARK                            x       y       z     vdW  Elec       q    Type
REMARK                         _______ _______ _______ _____ _____    ______ ____
ROOT
ATOM      1  N   UNL     1       0.871   9.400  20.229  0.00  0.00    +0.000 N 
ATOM      2  C   UNL     1       1.202   9.157  18.899  0.00  0.00    +0.000 C 
ATOM      3  O   UNL     1       0.753   9.756  17.929  0.00  0.00    +0.000 OA
ATOM      4  H   UNL     1       1.411   8.954  20.954  0.00  0.00    +0.000 HD
ENDROOT
BRANCH   2   5
ATOM      5  C   UNL     1       2.224   8.080  18.693  0.00  0.00    +0.000 A 
ATOM      6  C   UNL     1       3.074   8.079  17.580  0.00  0.00    +0.000 A 
ATOM      7  C   UNL     1       4.015   7.057  17.408  0.00  0.00    +0.000 A 
ATOM      8  C   UNL     1       4.154   6.030  18.354  0.00  0.00    +0.000 A 
ATOM      9  C   UNL     1       3.300   6.038  19.470  0.00  0.00    +0.000 A 
ATOM     10  C   UNL     1       2.350   7.058  19.642  0.00  0.00    +0.000 A 
BRANCH   8  11
ATOM     11  C   UNL     1       5.178   4.923  18.155  0.00  0.00    +0.000 C 
BRANCH  11  12
ATOM     12  S   UNL     1       4.592   3.623  17.008  0.00  0.00    +0.000 S 
BRANCH  12  13
ATOM     13  C   UNL     1       3.134   3.106  17.783  0.00  0.00    +0.000 A 
ATOM     14  N   UNL     1       1.906   3.284  17.350  0.00  0.00    +0.000 NA
ATOM     15  N   UNL     1       1.051   2.682  18.251  0.00  0.00    +0.000 NA
ATOM     16  C   UNL     1       1.785   2.157  19.205  0.00  0.00    +0.000 A 
ATOM     17  N   UNL     1       3.102   2.414  18.962  0.00  0.00    +0.000 N 
ATOM     18  C   UNL     1       4.201   1.995  19.791  0.00  0.00    +0.000 C 
ENDBRANCH  12  13
ENDBRANCH  11  12
ENDBRANCH   8  11
ENDBRANCH   2   5
BRANCH   1  21
ATOM     19  C   UNL     1      -0.062   9.582  22.942  0.00  0.00    +0.000 C 
ATOM     20  C   UNL     1      -0.471  10.473  21.781  0.00  0.00    +0.000 C 
ATOM     21  N   UNL     1      -0.040  10.359  20.557  0.00  0.00    +0.000 NA
BRANCH  20  22
ATOM     22  C   UNL     1      -1.467  11.566  22.091  0.00  0.00    +0.000 A 
ATOM     23  C   UNL     1      -2.089  11.659  23.346  0.00  0.00    +0.000 A 
ATOM     24  C   UNL     1      -3.024  12.666  23.609  0.00  0.00    +0.000 A 
ATOM     25  C   UNL     1      -3.351  13.598  22.623  0.00  0.00    +0.000 A 
ATOM     26  C   UNL     1      -2.730  13.523  21.372  0.00  0.00    +0.000 A 
ATOM     27  C   UNL     1      -1.794  12.513  21.109  0.00  0.00    +0.000 A 
BRANCH  25  28
ATOM     28  C   UNL     1      -4.318  14.621  22.898  0.00  0.00    +0.000 C 
ATOM     29  N   UNL     1      -5.104  15.439  23.134  0.00  0.00    +0.000 NA
ENDBRANCH  25  28
ENDBRANCH  20  22
ENDBRANCH   1  21
TORSDOF 7
ENDMDL
MODEL 6
REMARK VINA RESULT:      -7.5      3.669     11.042
REMARK  Name = 
REMARK  9 active torsions:
REMARK  status: ('A' for Active; 'I' for Inactive)
REMARK    1  A    between atoms: C_1  and  C_2
REMARK    2  A    between atoms: C_2  and  C_21
REMARK    3  A    between atoms: N_3  and  N_4
REMARK    4  A    between atoms: C_5  and  C_7
REMARK    5  A    between atoms: C_10  and  C_11
REMARK    6  A    between atoms: C_11  and  S_12
REMARK    7  A    between atoms: S_12  and  C_13
REMARK    8  A    between atoms: N_17  and  C_18
REMARK    9  A    between atoms: C_24  and  C_25
REMARK                            x       y       z     vdW  Elec       q    Type
REMARK                         _______ _______ _______ _____ _____    ______ ____
ROOT
ATOM      1  N   UNL     1       0.671  11.056  20.936  0.00  0.00    +0.000 N 
ATOM      2  C   UNL     1       0.196  10.339  19.841  0.00  0.00    +0.000 C 
ATOM      3  O   UNL     1      -0.874  10.526  19.275  0.00  0.00    +0.000 OA
ATOM      4  H   UNL     1       1.626  10.921  21.228  0.00  0.00    +0.000 HD
ENDROOT
BRANCH   2   5
ATOM      5  C   UNL     1       1.125   9.279  19.334  0.00  0.00    +0.000 A 
ATOM      6  C   UNL     1       1.648   9.323  18.035  0.00  0.00    +0.000 A 
ATOM      7  C   UNL     1       2.509   8.316  17.583  0.00  0.00    +0.000 A 
ATOM      8  C   UNL     1       2.894   7.258  18.422  0.00  0.00    +0.000 A 
ATOM      9  C   UNL     1       2.368   7.222  19.724  0.00  0.00    +0.000 A 
ATOM     10  C   UNL     1       1.498   8.227  20.178  0.00  0.00    +0.000 A 
BRANCH   8  11
ATOM     11  C   UNL     1       3.828   6.168  17.918  0.00  0.00    +0.000 C 
BRANCH  11  12
ATOM     12  S   UNL     1       4.342   5.019  19.245  0.00  0.00    +0.000 S 
BRANCH  12  13
ATOM     13  C   UNL     1       3.264   3.689  18.994  0.00  0.00    +0.000 A 
ATOM     14  N   UNL     1       3.142   2.969  17.901  0.00  0.00    +0.000 NA
ATOM     15  N   UNL     1       2.199   1.991  18.145  0.00  0.00    +0.000 NA
ATOM     16  C   UNL     1       1.775   2.147  19.378  0.00  0.00    +0.000 A 
ATOM     17  N   UNL     1       2.405   3.216  19.946  0.00  0.00    +0.000 N 
ATOM     18  C   UNL     1       2.195   3.690  21.288  0.00  0.00    +0.000 C 
ENDBRANCH  12  13
ENDBRANCH  11  12
ENDBRANCH   8  11
ENDBRANCH   2   5
BRANCH   1  21
ATOM     19  C   UNL     1      -1.016  10.465  23.187  0.00  0.00    +0.000 C 
ATOM     20  C   UNL     1      -0.835  11.818  22.521  0.00  0.00    +0.000 C 
ATOM     21  N   UNL     1      -0.072  12.054  21.492  0.00  0.00    +0.000 NA
BRANCH  20  22
ATOM     22  C   UNL     1      -1.622  12.967  23.108  0.00  0.00    +0.000 A 
ATOM     23  C   UNL     1      -1.033  14.219  23.341  0.00  0.00    +0.000 A 
ATOM     24  C   UNL     1      -1.772  15.265  23.904  0.00  0.00    +0.000 A 
ATOM     25  C   UNL     1      -3.113  15.078  24.239  0.00  0.00    +0.000 A 
ATOM     26  C   UNL     1      -3.716  13.839  24.002  0.00  0.00    +0.000 A 
ATOM     27  C   UNL     1      -2.974  12.791  23.439  0.00  0.00    +0.000 A 
BRANCH  25  28
ATOM     28  C   UNL     1      -3.861  16.153  24.825  0.00  0.00    +0.000 C 
ATOM     29  N   UNL     1      -4.480  17.014  25.291  0.00  0.00    +0.000 NA
ENDBRANCH  25  28
ENDBRANCH  20  22
ENDBRANCH   1  21
TORSDOF 7
ENDMDL
MODEL 7
REMARK VINA RESULT:      -7.5      0.688      1.142
REMARK  Name = 
REMARK  9 active torsions:
REMARK  status: ('A' for Active; 'I' for Inactive)
REMARK    1  A    between atoms: C_1  and  C_2
REMARK    2  A    between atoms: C_2  and  C_21
REMARK    3  A    between atoms: N_3  and  N_4
REMARK    4  A    between atoms: C_5  and  C_7
REMARK    5  A    between atoms: C_10  and  C_11
REMARK    6  A    between atoms: C_11  and  S_12
REMARK    7  A    between atoms: S_12  and  C_13
REMARK    8  A    between atoms: N_17  and  C_18
REMARK    9  A    between atoms: C_24  and  C_25
REMARK                            x       y       z     vdW  Elec       q    Type
REMARK                         _______ _______ _______ _____ _____    ______ ____
ROOT
ATOM      1  N   UNL     1       1.183   8.793  19.646  0.00  0.00    +0.000 N 
ATOM      2  C   UNL     1       1.012  10.174  19.600  0.00  0.00    +0.000 C 
ATOM      3  O   UNL     1       1.551  10.935  18.807  0.00  0.00    +0.000 OA
ATOM      4  H   UNL     1       0.578   8.247  20.239  0.00  0.00    +0.000 HD
ENDROOT
BRANCH   2   5
ATOM      5  C   UNL     1       0.050  10.721  20.611  0.00  0.00    +0.000 A 
ATOM      6  C   UNL     1       0.047  10.274  21.938  0.00  0.00    +0.000 A 
ATOM      7  C   UNL     1      -0.867  10.796  22.860  0.00  0.00    +0.000 A 
ATOM      8  C   UNL     1      -1.779  11.798  22.492  0.00  0.00    +0.000 A 
ATOM      9  C   UNL     1      -1.769  12.244  21.161  0.00  0.00    +0.000 A 
ATOM     10  C   UNL     1      -0.858  11.716  20.230  0.00  0.00    +0.000 A 
BRANCH   8  11
ATOM     11  C   UNL     1      -2.769  12.356  23.503  0.00  0.00    +0.000 C 
BRANCH  11  12
ATOM     12  S   UNL     1      -3.784  13.713  22.814  0.00  0.00    +0.000 S 
BRANCH  12  13
ATOM     13  C   UNL     1      -5.263  12.894  22.450  0.00  0.00    +0.000 A 
ATOM     14  N   UNL     1      -6.037  12.250  23.295  0.00  0.00    +0.000 NA
ATOM     15  N   UNL     1      -7.129  11.782  22.594  0.00  0.00    +0.000 NA
ATOM     16  C   UNL     1      -6.987  12.155  21.342  0.00  0.00    +0.000 A 
ATOM     17  N   UNL     1      -5.817  12.842  21.201  0.00  0.00    +0.000 N 
ATOM     18  C   UNL     1      -5.325  13.405  19.971  0.00  0.00    +0.000 C 
ENDBRANCH  12  13
ENDBRANCH  11  12
ENDBRANCH   8  11
ENDBRANCH   2   5
BRANCH   1  21
ATOM     19  C   UNL     1       2.120   6.146  20.262  0.00  0.00    +0.000 C 
ATOM     20  C   UNL     1       2.455   6.960  19.024  0.00  0.00    +0.000 C 
ATOM     21  N   UNL     1       2.024   8.165  18.777  0.00  0.00    +0.000 NA
BRANCH  20  22
ATOM     22  C   UNL     1       3.371   6.306  18.016  0.00  0.00    +0.000 A 
ATOM     23  C   UNL     1       4.269   7.058  17.243  0.00  0.00    +0.000 A 
ATOM     24  C   UNL     1       5.095   6.437  16.300  0.00  0.00    +0.000 A 
ATOM     25  C   UNL     1       5.041   5.055  16.118  0.00  0.00    +0.000 A 
ATOM     26  C   UNL     1       4.158   4.293  16.890  0.00  0.00    +0.000 A 
ATOM     27  C   UNL     1       3.329   4.916  17.833  0.00  0.00    +0.000 A 
BRANCH  25  28
ATOM     28  C   UNL     1       5.885   4.427  15.142  0.00  0.00    +0.000 C 
ATOM     29  N   UNL     1       6.572   3.937  14.349  0.00  0.00    +0.000 NA
ENDBRANCH  25  28
ENDBRANCH  20  22
ENDBRANCH   1  21
TORSDOF 7
ENDMDL
MODEL 8
REMARK VINA RESULT:      -7.5      3.652     11.394
REMARK  Name = 
REMARK  9 active torsions:
REMARK  status: ('A' for Active; 'I' for Inactive)
REMARK    1  A    between atoms: C_1  and  C_2
REMARK    2  A    between atoms: C_2  and  C_21
REMARK    3  A    between atoms: N_3  and  N_4
REMARK    4  A    between atoms: C_5  and  C_7
REMARK    5  A    between atoms: C_10  and  C_11
REMARK    6  A    between atoms: C_11  and  S_12
REMARK    7  A    between atoms: S_12  and  C_13
REMARK    8  A    between atoms: N_17  and  C_18
REMARK    9  A    between atoms: C_24  and  C_25
REMARK                            x       y       z     vdW  Elec       q    Type
REMARK                         _______ _______ _______ _____ _____    ______ ____
ROOT
ATOM      1  N   UNL     1       1.510   9.222  19.662  0.00  0.00    +0.000 N 
ATOM      2  C   UNL     1       1.734   7.908  20.064  0.00  0.00    +0.000 C 
ATOM      3  O   UNL     1       1.331   7.400  21.103  0.00  0.00    +0.000 OA
ATOM      4  H   UNL     1       1.756   9.492  18.723  0.00  0.00    +0.000 HD
ENDROOT
BRANCH   2   5
ATOM      5  C   UNL     1       2.515   7.078  19.091  0.00  0.00    +0.000 A 
ATOM      6  C   UNL     1       3.216   7.660  18.028  0.00  0.00    +0.000 A 
ATOM      7  C   UNL     1       3.932   6.862  17.128  0.00  0.00    +0.000 A 
ATOM      8  C   UNL     1       3.993   5.469  17.283  0.00  0.00    +0.000 A 
ATOM      9  C   UNL     1       3.291   4.891  18.354  0.00  0.00    +0.000 A 
ATOM     10  C   UNL     1       2.565   5.688  19.254  0.00  0.00    +0.000 A 
BRANCH   8  11
ATOM     11  C   UNL     1       4.773   4.610  16.298  0.00  0.00    +0.000 C 
BRANCH  11  12
ATOM     12  S   UNL     1       6.393   5.339  15.862  0.00  0.00    +0.000 S 
BRANCH  12  13
ATOM     13  C   UNL     1       7.138   5.487  17.417  0.00  0.00    +0.000 A 
ATOM     14  N   UNL     1       7.406   4.514  18.259  0.00  0.00    +0.000 NA
ATOM     15  N   UNL     1       8.035   5.068  19.355  0.00  0.00    +0.000 NA
ATOM     16  C   UNL     1       8.129   6.361  19.148  0.00  0.00    +0.000 A 
ATOM     17  N   UNL     1       7.562   6.674  17.948  0.00  0.00    +0.000 N 
ATOM     18  C   UNL     1       7.479   7.995  17.384  0.00  0.00    +0.000 C 
ENDBRANCH  12  13
ENDBRANCH  11  12
ENDBRANCH   8  11
ENDBRANCH   2   5
BRANCH   1  21
ATOM     19  C   UNL     1      -1.015  10.234  18.732  0.00  0.00    +0.000 C 
ATOM     20  C   UNL     1      -0.347  10.546  20.061  0.00  0.00    +0.000 C 
ATOM     21  N   UNL     1       0.806  10.082  20.451  0.00  0.00    +0.000 NA
BRANCH  20  22
ATOM     22  C   UNL     1      -1.092  11.483  20.983  0.00  0.00    +0.000 A 
ATOM     23  C   UNL     1      -1.201  11.226  22.359  0.00  0.00    +0.000 A 
ATOM     24  C   UNL     1      -1.912  12.094  23.195  0.00  0.00    +0.000 A 
ATOM     25  C   UNL     1      -2.521  13.235  22.671  0.00  0.00    +0.000 A 
ATOM     26  C   UNL     1      -2.411  13.507  21.304  0.00  0.00    +0.000 A 
ATOM     27  C   UNL     1      -1.699  12.637  20.467  0.00  0.00    +0.000 A 
BRANCH  25  28
ATOM     28  C   UNL     1      -3.257  14.114  23.533  0.00  0.00    +0.000 C 
ATOM     29  N   UNL     1      -3.856  14.832  24.216  0.00  0.00    +0.000 NA
ENDBRANCH  25  28
ENDBRANCH  20  22
ENDBRANCH   1  21
TORSDOF 7
ENDMDL
MODEL 9
REMARK VINA RESULT:      -7.5      0.749      1.689
REMARK  Name = 
REMARK  9 active torsions:
REMARK  status: ('A' for Active; 'I' for Inactive)
REMARK    1  A    between atoms: C_1  and  C_2
REMARK    2  A    between atoms: C_2  and  C_21
REMARK    3  A    between atoms: N_3  and  N_4
REMARK    4  A    between atoms: C_5  and  C_7
REMARK    5  A    between atoms: C_10  and  C_11
REMARK    6  A    between atoms: C_11  and  S_12
REMARK    7  A    between atoms: S_12  and  C_13
REMARK    8  A    between atoms: N_17  and  C_18
REMARK    9  A    between atoms: C_24  and  C_25
REMARK                            x       y       z     vdW  Elec       q    Type
REMARK                         _______ _______ _______ _____ _____    ______ ____
ROOT
ATOM      1  N   UNL     1       0.955   9.024  19.790  0.00  0.00    +0.000 N 
ATOM      2  C   UNL     1       0.841  10.411  19.780  0.00  0.00    +0.000 C 
ATOM      3  O   UNL     1       1.461  11.175  19.051  0.00  0.00    +0.000 OA
ATOM      4  H   UNL     1       0.291   8.485  20.322  0.00  0.00    +0.000 HD
ENDROOT
BRANCH   2   5
ATOM      5  C   UNL     1      -0.164  10.965  20.744  0.00  0.00    +0.000 A 
ATOM      6  C   UNL     1      -1.070  11.964  20.367  0.00  0.00    +0.000 A 
ATOM      7  C   UNL     1      -1.994  12.469  21.289  0.00  0.00    +0.000 A 
ATOM      8  C   UNL     1      -2.059  11.971  22.600  0.00  0.00    +0.000 A 
ATOM      9  C   UNL     1      -1.149  10.967  22.972  0.00  0.00    +0.000 A 
ATOM     10  C   UNL     1      -0.216  10.463  22.051  0.00  0.00    +0.000 A 
BRANCH   8  11
ATOM     11  C   UNL     1      -3.065  12.529  23.594  0.00  0.00    +0.000 C 
BRANCH  11  12
ATOM     12  S   UNL     1      -4.112  13.843  22.870  0.00  0.00    +0.000 S 
BRANCH  12  13
ATOM     13  C   UNL     1      -5.493  12.941  22.347  0.00  0.00    +0.000 A 
ATOM     14  N   UNL     1      -5.551  12.106  21.335  0.00  0.00    +0.000 NA
ATOM     15  N   UNL     1      -6.826  11.579  21.297  0.00  0.00    +0.000 NA
ATOM     16  C   UNL     1      -7.505  12.111  22.287  0.00  0.00    +0.000 A 
ATOM     17  N   UNL     1      -6.711  12.989  22.965  0.00  0.00    +0.000 N 
ATOM     18  C   UNL     1      -7.112  13.762  24.111  0.00  0.00    +0.000 C 
ENDBRANCH  12  13
ENDBRANCH  11  12
ENDBRANCH   8  11
ENDBRANCH   2   5
BRANCH   1  21
ATOM     19  C   UNL     1       1.850   6.372  20.445  0.00  0.00    +0.000 C 
ATOM     20  C   UNL     1       2.239   7.183  19.221  0.00  0.00    +0.000 C 
ATOM     21  N   UNL     1       1.827   8.390  18.956  0.00  0.00    +0.000 NA
BRANCH  20  22
ATOM     22  C   UNL     1       3.192   6.522  18.252  0.00  0.00    +0.000 A 
ATOM     23  C   UNL     1       4.087   7.273  17.474  0.00  0.00    +0.000 A 
ATOM     24  C   UNL     1       4.948   6.646  16.566  0.00  0.00    +0.000 A 
ATOM     25  C   UNL     1       4.931   5.258  16.425  0.00  0.00    +0.000 A 
ATOM     26  C   UNL     1       4.052   4.497  17.202  0.00  0.00    +0.000 A 
ATOM     27  C   UNL     1       3.189   5.127  18.110  0.00  0.00    +0.000 A 
BRANCH  25  28
ATOM     28  C   UNL     1       5.810   4.623  15.486  0.00  0.00    +0.000 C 
ATOM     29  N   UNL     1       6.531   4.106  14.741  0.00  0.00    +0.000 NA
ENDBRANCH  25  28
ENDBRANCH  20  22
ENDBRANCH   1  21
TORSDOF 7
ENDMDL
