MODEL 1
REMARK VINA RESULT:      -7.4      0.000      0.000
REMARK  Name = 
REMARK  4 active torsions:
REMARK  status: ('A' for Active; 'I' for Inactive)
REMARK    1  A    between atoms: C_2  and  C_14
REMARK    2  A    between atoms: N_7  and  C_8
REMARK    3  A    between atoms: C_8  and  C_9
REMARK    4  A    between atoms: C_9  and  O_10
REMARK                            x       y       z     vdW  Elec       q    Type
REMARK                         _______ _______ _______ _____ _____    ______ ____
ROOT
ATOM      1  O   UNL     1       6.176   4.621  16.833  0.00  0.00    +0.000 OA
ATOM      2  C   UNL     1       5.414   4.435  15.887  0.00  0.00    +0.000 C 
ATOM      3  N   UNL     1       4.063   4.142  16.001  0.00  0.00    +0.000 N 
ATOM      4  C   UNL     1       3.353   4.063  17.179  0.00  0.00    +0.000 A 
ATOM      5  C   UNL     1       3.850   4.844  18.327  0.00  0.00    +0.000 A 
ATOM      6  C   UNL     1       3.145   4.716  19.446  0.00  0.00    +0.000 A 
ATOM      7  N   UNL     1       2.032   3.915  19.496  0.00  0.00    +0.000 N 
ATOM      8  C   UNL     1       1.596   3.192  18.377  0.00  0.00    +0.000 A 
ATOM      9  O   UNL     1       0.627   2.441  18.450  0.00  0.00    +0.000 OA
ATOM     10  N   UNL     1       2.293   3.334  17.191  0.00  0.00    +0.000 NA
ATOM     11  H   UNL     1       3.608   3.696  15.217  0.00  0.00    +0.000 HD
ENDROOT
BRANCH   2  12
ATOM     12  C   UNL     1       6.013   4.449  14.535  0.00  0.00    +0.000 A 
ATOM     13  C   UNL     1       5.424   3.614  13.574  0.00  0.00    +0.000 A 
ATOM     14  C   UNL     1       6.007   3.463  12.319  0.00  0.00    +0.000 A 
ATOM     15  C   UNL     1       7.188   4.140  12.024  0.00  0.00    +0.000 A 
ATOM     16  C   UNL     1       7.777   4.976  12.978  0.00  0.00    +0.000 A 
ATOM     17  C   UNL     1       7.190   5.139  14.238  0.00  0.00    +0.000 A 
ENDBRANCH   2  12
BRANCH   7  18
ATOM     18  C   UNL     1       1.257   3.871  20.743  0.00  0.00    +0.000 C 
BRANCH  18  19
ATOM     19  C   UNL     1       1.497   2.611  21.578  0.00  0.00    +0.000 C 
BRANCH  19  20
ATOM     20  O   UNL     1       2.864   2.489  21.970  0.00  0.00    +0.000 OA
ATOM     21  H   UNL     1       3.393   2.863  21.244  0.00  0.00    +0.000 HD
ENDBRANCH  19  20
ENDBRANCH  18  19
ENDBRANCH   7  18
TORSDOF 4
ENDMDL
MODEL 2
REMARK VINA RESULT:      -7.3      0.843      1.391
REMARK  Name = 
REMARK  4 active torsions:
REMARK  status: ('A' for Active; 'I' for Inactive)
REMARK    1  A    between atoms: C_2  and  C_14
REMARK    2  A    between atoms: N_7  and  C_8
REMARK    3  A    between atoms: C_8  and  C_9
REMARK    4  A    between atoms: C_9  and  O_10
REMARK                            x       y       z     vdW  Elec       q    Type
REMARK                         _______ _______ _______ _____ _____    ______ ____
ROOT
ATOM      1  O   UNL     1       6.781   4.582  16.711  0.00  0.00    +0.000 OA
ATOM      2  C   UNL     1       5.947   4.457  15.818  0.00  0.00    +0.000 C 
ATOM      3  N   UNL     1       4.578   4.355  16.019  0.00  0.00    +0.000 N 
ATOM      4  C   UNL     1       3.935   4.427  17.235  0.00  0.00    +0.000 A 
ATOM      5  C   UNL     1       4.598   5.185  18.311  0.00  0.00    +0.000 A 
ATOM      6  C   UNL     1       3.950   5.205  19.472  0.00  0.00    +0.000 A 
ATOM      7  N   UNL     1       2.745   4.565  19.623  0.00  0.00    +0.000 N 
ATOM      8  C   UNL     1       2.153   3.857  18.569  0.00  0.00    +0.000 A 
ATOM      9  O   UNL     1       1.099   3.248  18.733  0.00  0.00    +0.000 OA
ATOM     10  N   UNL     1       2.790   3.849  17.342  0.00  0.00    +0.000 NA
ATOM     11  H   UNL     1       4.022   3.938  15.285  0.00  0.00    +0.000 HD
ENDROOT
BRANCH   2  12
ATOM     12  C   UNL     1       6.461   4.328  14.437  0.00  0.00    +0.000 A 
ATOM     13  C   UNL     1       7.462   5.230  14.048  0.00  0.00    +0.000 A 
ATOM     14  C   UNL     1       7.902   5.268  12.728  0.00  0.00    +0.000 A 
ATOM     15  C   UNL     1       7.335   4.409  11.790  0.00  0.00    +0.000 A 
ATOM     16  C   UNL     1       6.340   3.505  12.174  0.00  0.00    +0.000 A 
ATOM     17  C   UNL     1       5.900   3.456  13.502  0.00  0.00    +0.000 A 
ENDBRANCH   2  12
BRANCH   7  18
ATOM     18  C   UNL     1       2.047   4.683  20.909  0.00  0.00    +0.000 C 
BRANCH  18  19
ATOM     19  C   UNL     1       2.120   3.423  21.774  0.00  0.00    +0.000 C 
BRANCH  19  20
ATOM     20  O   UNL     1       0.942   2.627  21.648  0.00  0.00    +0.000 OA
ATOM     21  H   UNL     1       1.213   1.705  21.808  0.00  0.00    +0.000 HD
ENDBRANCH  19  20
ENDBRANCH  18  19
ENDBRANCH   7  18
TORSDOF 4
ENDMDL
MODEL 3
REMARK VINA RESULT:      -7.2      1.465      1.876
REMARK  Name = 
REMARK  4 active torsions:
REMARK  status: ('A' for Active; 'I' for Inactive)
REMARK    1  A    between atoms: C_2  and  C_14
REMARK    2  A    between atoms: N_7  and  C_8
REMARK    3  A    between atoms: C_8  and  C_9
REMARK    4  A    between atoms: C_9  and  O_10
REMARK                            x       y       z     vdW  Elec       q    Type
REMARK                         _______ _______ _______ _____ _____    ______ ____
ROOT
ATOM      1  O   UNL     1       5.240   6.051  15.753  0.00  0.00    +0.000 OA
ATOM      2  C   UNL     1       5.402   4.859  15.506  0.00  0.00    +0.000 C 
ATOM      3  N   UNL     1       5.020   3.816  16.336  0.00  0.00    +0.000 N 
ATOM      4  C   UNL     1       4.359   3.945  17.538  0.00  0.00    +0.000 A 
ATOM      5  C   UNL     1       3.518   5.141  17.727  0.00  0.00    +0.000 A 
ATOM      6  C   UNL     1       2.921   5.231  18.912  0.00  0.00    +0.000 A 
ATOM      7  N   UNL     1       3.086   4.258  19.866  0.00  0.00    +0.000 N 
ATOM      8  C   UNL     1       3.895   3.137  19.639  0.00  0.00    +0.000 A 
ATOM      9  O   UNL     1       4.072   2.299  20.519  0.00  0.00    +0.000 OA
ATOM     10  N   UNL     1       4.501   3.002  18.403  0.00  0.00    +0.000 NA
ATOM     11  H   UNL     1       5.473   2.922  16.211  0.00  0.00    +0.000 HD
ENDROOT
BRANCH   2  12
ATOM     12  C   UNL     1       6.131   4.529  14.262  0.00  0.00    +0.000 A 
ATOM     13  C   UNL     1       7.268   5.298  13.972  0.00  0.00    +0.000 A 
ATOM     14  C   UNL     1       7.930   5.146  12.757  0.00  0.00    +0.000 A 
ATOM     15  C   UNL     1       7.452   4.230  11.823  0.00  0.00    +0.000 A 
ATOM     16  C   UNL     1       6.321   3.459  12.109  0.00  0.00    +0.000 A 
ATOM     17  C   UNL     1       5.656   3.601  13.333  0.00  0.00    +0.000 A 
ENDBRANCH   2  12
BRANCH   7  18
ATOM     18  C   UNL     1       2.343   4.382  21.126  0.00  0.00    +0.000 C 
BRANCH  18  19
ATOM     19  C   UNL     1       1.221   3.354  21.290  0.00  0.00    +0.000 C 
BRANCH  19  20
ATOM     20  O   UNL     1       1.568   2.338  22.230  0.00  0.00    +0.000 OA
ATOM     21  H   UNL     1       0.749   2.109  22.704  0.00  0.00    +0.000 HD
ENDBRANCH  19  20
ENDBRANCH  18  19
ENDBRANCH   7  18
TORSDOF 4
ENDMDL
MODEL 4
REMARK VINA RESULT:      -7.2      1.282      1.329
REMARK  Name = 
REMARK  4 active torsions:
REMARK  status: ('A' for Active; 'I' for Inactive)
REMARK    1  A    between atoms: C_2  and  C_14
REMARK    2  A    between atoms: N_7  and  C_8
REMARK    3  A    between atoms: C_8  and  C_9
REMARK    4  A    between atoms: C_9  and  O_10
REMARK                            x       y       z     vdW  Elec       q    Type
REMARK                         _______ _______ _______ _____ _____    ______ ____
ROOT
ATOM      1  O   UNL     1       7.123   4.240  16.628  0.00  0.00    +0.000 OA
ATOM      2  C   UNL     1       6.210   4.149  15.812  0.00  0.00    +0.000 C 
ATOM      3  N   UNL     1       4.909   3.771  16.113  0.00  0.00    +0.000 N 
ATOM      4  C   UNL     1       4.424   3.488  17.370  0.00  0.00    +0.000 A 
ATOM      5  C   UNL     1       5.097   4.124  18.518  0.00  0.00    +0.000 A 
ATOM      6  C   UNL     1       4.608   3.801  19.711  0.00  0.00    +0.000 A 
ATOM      7  N   UNL     1       3.543   2.942  19.832  0.00  0.00    +0.000 N 
ATOM      8  C   UNL     1       2.935   2.363  18.711  0.00  0.00    +0.000 A 
ATOM      9  O   UNL     1       2.016   1.558  18.838  0.00  0.00    +0.000 OA
ATOM     10  N   UNL     1       3.404   2.709  17.457  0.00  0.00    +0.000 NA
ATOM     11  H   UNL     1       4.334   3.416  15.361  0.00  0.00    +0.000 HD
ENDROOT
BRANCH   2  12
ATOM     12  C   UNL     1       6.556   4.387  14.394  0.00  0.00    +0.000 A 
ATOM     13  C   UNL     1       5.947   3.552  13.445  0.00  0.00    +0.000 A 
ATOM     14  C   UNL     1       6.321   3.617  12.105  0.00  0.00    +0.000 A 
ATOM     15  C   UNL     1       7.313   4.511  11.711  0.00  0.00    +0.000 A 
ATOM     16  C   UNL     1       7.921   5.347  12.653  0.00  0.00    +0.000 A 
ATOM     17  C   UNL     1       7.543   5.294  13.999  0.00  0.00    +0.000 A 
ENDBRANCH   2  12
BRANCH   7  18
ATOM     18  C   UNL     1       3.006   2.680  21.174  0.00  0.00    +0.000 C 
BRANCH  18  19
ATOM     19  C   UNL     1       1.804   3.552  21.542  0.00  0.00    +0.000 C 
BRANCH  19  20
ATOM     20  O   UNL     1       0.608   3.100  20.907  0.00  0.00    +0.000 OA
ATOM     21  H   UNL     1       0.481   3.665  20.124  0.00  0.00    +0.000 HD
ENDBRANCH  19  20
ENDBRANCH  18  19
ENDBRANCH   7  18
TORSDOF 4
ENDMDL
MODEL 5
REMARK VINA RESULT:      -7.0      1.469      1.514
REMARK  Name = 
REMARK  4 active torsions:
REMARK  status: ('A' for Active; 'I' for Inactive)
REMARK    1  A    between atoms: C_2  and  C_14
REMARK    2  A    between atoms: N_7  and  C_8
REMARK    3  A    between atoms: C_8  and  C_9
REMARK    4  A    between atoms: C_9  and  O_10
REMARK                            x       y       z     vdW  Elec       q    Type
REMARK                         _______ _______ _______ _____ _____    ______ ____
ROOT
ATOM      1  O   UNL     1       5.117   6.219  15.793  0.00  0.00    +0.000 OA
ATOM      2  C   UNL     1       5.268   5.038  15.494  0.00  0.00    +0.000 C 
ATOM      3  N   UNL     1       4.915   3.962  16.296  0.00  0.00    +0.000 N 
ATOM      4  C   UNL     1       4.298   4.044  17.525  0.00  0.00    +0.000 A 
ATOM      5  C   UNL     1       3.466   5.232  17.791  0.00  0.00    +0.000 A 
ATOM      6  C   UNL     1       2.912   5.276  18.998  0.00  0.00    +0.000 A 
ATOM      7  N   UNL     1       3.109   4.266  19.907  0.00  0.00    +0.000 N 
ATOM      8  C   UNL     1       3.908   3.155  19.608  0.00  0.00    +0.000 A 
ATOM      9  O   UNL     1       4.116   2.284  20.448  0.00  0.00    +0.000 OA
ATOM     10  N   UNL     1       4.469   3.069  18.347  0.00  0.00    +0.000 NA
ATOM     11  H   UNL     1       5.362   3.074  16.120  0.00  0.00    +0.000 HD
ENDROOT
BRANCH   2  12
ATOM     12  C   UNL     1       5.951   4.756  14.212  0.00  0.00    +0.000 A 
ATOM     13  C   UNL     1       5.371   3.780  13.387  0.00  0.00    +0.000 A 
ATOM     14  C   UNL     1       6.022   3.357  12.232  0.00  0.00    +0.000 A 
ATOM     15  C   UNL     1       7.261   3.901  11.902  0.00  0.00    +0.000 A 
ATOM     16  C   UNL     1       7.841   4.876  12.719  0.00  0.00    +0.000 A 
ATOM     17  C   UNL     1       7.188   5.313  13.877  0.00  0.00    +0.000 A 
ENDBRANCH   2  12
BRANCH   7  18
ATOM     18  C   UNL     1       2.413   4.341  21.198  0.00  0.00    +0.000 C 
BRANCH  18  19
ATOM     19  C   UNL     1       1.275   3.329  21.349  0.00  0.00    +0.000 C 
BRANCH  19  20
ATOM     20  O   UNL     1       1.643   2.245  22.201  0.00  0.00    +0.000 OA
ATOM     21  H   UNL     1       0.848   1.692  22.302  0.00  0.00    +0.000 HD
ENDBRANCH  19  20
ENDBRANCH  18  19
ENDBRANCH   7  18
TORSDOF 4
ENDMDL
MODEL 6
REMARK VINA RESULT:      -6.9      4.433      8.145
REMARK  Name = 
REMARK  4 active torsions:
REMARK  status: ('A' for Active; 'I' for Inactive)
REMARK    1  A    between atoms: C_2  and  C_14
REMARK    2  A    between atoms: N_7  and  C_8
REMARK    3  A    between atoms: C_8  and  C_9
REMARK    4  A    between atoms: C_9  and  O_10
REMARK                            x       y       z     vdW  Elec       q    Type
REMARK                         _______ _______ _______ _____ _____    ______ ____
ROOT
ATOM      1  O   UNL     1       1.218   9.084  18.731  0.00  0.00    +0.000 OA
ATOM      2  C   UNL     1       1.374   8.698  19.886  0.00  0.00    +0.000 C 
ATOM      3  N   UNL     1       2.092   7.570  20.257  0.00  0.00    +0.000 N 
ATOM      4  C   UNL     1       2.779   6.737  19.403  0.00  0.00    +0.000 A 
ATOM      5  C   UNL     1       3.268   7.313  18.137  0.00  0.00    +0.000 A 
ATOM      6  C   UNL     1       3.904   6.464  17.337  0.00  0.00    +0.000 A 
ATOM      7  N   UNL     1       4.088   5.152  17.697  0.00  0.00    +0.000 N 
ATOM      8  C   UNL     1       3.606   4.650  18.913  0.00  0.00    +0.000 A 
ATOM      9  O   UNL     1       3.735   3.462  19.199  0.00  0.00    +0.000 OA
ATOM     10  N   UNL     1       2.970   5.521  19.778  0.00  0.00    +0.000 NA
ATOM     11  H   UNL     1       1.896   7.161  21.161  0.00  0.00    +0.000 HD
ENDROOT
BRANCH   2  12
ATOM     12  C   UNL     1       0.674   9.458  20.944  0.00  0.00    +0.000 A 
ATOM     13  C   UNL     1       0.739   8.938  22.245  0.00  0.00    +0.000 A 
ATOM     14  C   UNL     1      -0.004   9.513  23.273  0.00  0.00    +0.000 A 
ATOM     15  C   UNL     1      -0.822  10.606  23.000  0.00  0.00    +0.000 A 
ATOM     16  C   UNL     1      -0.888  11.130  21.705  0.00  0.00    +0.000 A 
ATOM     17  C   UNL     1      -0.137  10.562  20.670  0.00  0.00    +0.000 A 
ENDBRANCH   2  12
BRANCH   7  18
ATOM     18  C   UNL     1       4.860   4.282  16.800  0.00  0.00    +0.000 C 
BRANCH  18  19
ATOM     19  C   UNL     1       6.376   4.442  16.932  0.00  0.00    +0.000 C 
BRANCH  19  20
ATOM     20  O   UNL     1       6.827   4.128  18.249  0.00  0.00    +0.000 OA
ATOM     21  H   UNL     1       7.571   3.509  18.146  0.00  0.00    +0.000 HD
ENDBRANCH  19  20
ENDBRANCH  18  19
ENDBRANCH   7  18
TORSDOF 4
ENDMDL
MODEL 7
REMARK VINA RESULT:      -6.9      4.347      7.809
REMARK  Name = 
REMARK  4 active torsions:
REMARK  status: ('A' for Active; 'I' for Inactive)
REMARK    1  A    between atoms: C_2  and  C_14
REMARK    2  A    between atoms: N_7  and  C_8
REMARK    3  A    between atoms: C_8  and  C_9
REMARK    4  A    between atoms: C_9  and  O_10
REMARK                            x       y       z     vdW  Elec       q    Type
REMARK                         _______ _______ _______ _____ _____    ______ ____
ROOT
ATOM      1  O   UNL     1       1.865   8.326  19.254  0.00  0.00    +0.000 OA
ATOM      2  C   UNL     1       1.470   8.146  20.402  0.00  0.00    +0.000 C 
ATOM      3  N   UNL     1       1.575   6.951  21.100  0.00  0.00    +0.000 N 
ATOM      4  C   UNL     1       2.177   5.801  20.641  0.00  0.00    +0.000 A 
ATOM      5  C   UNL     1       3.239   5.947  19.628  0.00  0.00    +0.000 A 
ATOM      6  C   UNL     1       3.772   4.807  19.199  0.00  0.00    +0.000 A 
ATOM      7  N   UNL     1       3.351   3.597  19.692  0.00  0.00    +0.000 N 
ATOM      8  C   UNL     1       2.338   3.509  20.656  0.00  0.00    +0.000 A 
ATOM      9  O   UNL     1       1.938   2.417  21.051  0.00  0.00    +0.000 OA
ATOM     10  N   UNL     1       1.790   4.681  21.143  0.00  0.00    +0.000 NA
ATOM     11  H   UNL     1       0.951   6.804  21.882  0.00  0.00    +0.000 HD
ENDROOT
BRANCH   2  12
ATOM     12  C   UNL     1       0.761   9.271  21.049  0.00  0.00    +0.000 A 
ATOM     13  C   UNL     1       0.367   9.087  22.383  0.00  0.00    +0.000 A 
ATOM     14  C   UNL     1      -0.423  10.039  23.022  0.00  0.00    +0.000 A 
ATOM     15  C   UNL     1      -0.830  11.174  22.325  0.00  0.00    +0.000 A 
ATOM     16  C   UNL     1      -0.437  11.363  20.997  0.00  0.00    +0.000 A 
ATOM     17  C   UNL     1       0.365  10.415  20.352  0.00  0.00    +0.000 A 
ENDBRANCH   2  12
BRANCH   7  18
ATOM     18  C   UNL     1       4.028   2.380  19.228  0.00  0.00    +0.000 C 
BRANCH  18  19
ATOM     19  C   UNL     1       3.452   1.803  17.933  0.00  0.00    +0.000 C 
BRANCH  19  20
ATOM     20  O   UNL     1       2.046   1.577  18.035  0.00  0.00    +0.000 OA
ATOM     21  H   UNL     1       1.911   1.034  18.831  0.00  0.00    +0.000 HD
ENDBRANCH  19  20
ENDBRANCH  18  19
ENDBRANCH   7  18
TORSDOF 4
ENDMDL
MODEL 8
REMARK VINA RESULT:      -6.9      3.816      7.593
REMARK  Name = 
REMARK  4 active torsions:
REMARK  status: ('A' for Active; 'I' for Inactive)
REMARK    1  A    between atoms: C_2  and  C_14
REMARK    2  A    between atoms: N_7  and  C_8
REMARK    3  A    between atoms: C_8  and  C_9
REMARK    4  A    between atoms: C_9  and  O_10
REMARK                            x       y       z     vdW  Elec       q    Type
REMARK                         _______ _______ _______ _____ _____    ______ ____
ROOT
ATOM      1  O   UNL     1       2.436   8.819  17.421  0.00  0.00    +0.000 OA
ATOM      2  C   UNL     1       2.236   8.235  18.483  0.00  0.00    +0.000 C 
ATOM      3  N   UNL     1       2.712   6.970  18.796  0.00  0.00    +0.000 N 
ATOM      4  C   UNL     1       3.519   6.193  17.994  0.00  0.00    +0.000 A 
ATOM      5  C   UNL     1       4.385   6.887  17.024  0.00  0.00    +0.000 A 
ATOM      6  C   UNL     1       5.127   6.093  16.258  0.00  0.00    +0.000 A 
ATOM      7  N   UNL     1       5.076   4.728  16.392  0.00  0.00    +0.000 N 
ATOM      8  C   UNL     1       4.237   4.113  17.331  0.00  0.00    +0.000 A 
ATOM      9  O   UNL     1       4.166   2.889  17.407  0.00  0.00    +0.000 OA
ATOM     10  N   UNL     1       3.481   4.918  18.163  0.00  0.00    +0.000 NA
ATOM     11  H   UNL     1       2.241   6.454  19.526  0.00  0.00    +0.000 HD
ENDROOT
BRANCH   2  12
ATOM     12  C   UNL     1       1.355   8.909  19.460  0.00  0.00    +0.000 A 
ATOM     13  C   UNL     1       1.332   8.382  20.760  0.00  0.00    +0.000 A 
ATOM     14  C   UNL     1       0.430   8.869  21.702  0.00  0.00    +0.000 A 
ATOM     15  C   UNL     1      -0.459   9.879  21.345  0.00  0.00    +0.000 A 
ATOM     16  C   UNL     1      -0.437  10.410  20.052  0.00  0.00    +0.000 A 
ATOM     17  C   UNL     1       0.473   9.932  19.102  0.00  0.00    +0.000 A 
ENDBRANCH   2  12
BRANCH   7  18
ATOM     18  C   UNL     1       5.971   3.910  15.564  0.00  0.00    +0.000 C 
BRANCH  18  19
ATOM     19  C   UNL     1       6.473   4.620  14.304  0.00  0.00    +0.000 C 
BRANCH  19  20
ATOM     20  O   UNL     1       7.742   5.238  14.515  0.00  0.00    +0.000 OA
ATOM     21  H   UNL     1       7.996   5.643  13.667  0.00  0.00    +0.000 HD
ENDBRANCH  19  20
ENDBRANCH  18  19
ENDBRANCH   7  18
TORSDOF 4
ENDMDL
MODEL 9
REMARK VINA RESULT:      -6.8      4.035      7.835
REMARK  Name = 
REMARK  4 active torsions:
REMARK  status: ('A' for Active; 'I' for Inactive)
REMARK    1  A    between atoms: C_2  and  C_14
REMARK    2  A    between atoms: N_7  and  C_8
REMARK    3  A    between atoms: C_8  and  C_9
REMARK    4  A    between atoms: C_9  and  O_10
REMARK                            x       y       z     vdW  Elec       q    Type
REMARK                         _______ _______ _______ _____ _____    ______ ____
ROOT
ATOM      1  O   UNL     1       2.079   9.010  18.108  0.00  0.00    +0.000 OA
ATOM      2  C   UNL     1       1.927   8.340  19.126  0.00  0.00    +0.000 C 
ATOM      3  N   UNL     1       2.423   7.058  19.315  0.00  0.00    +0.000 N 
ATOM      4  C   UNL     1       3.199   6.356  18.420  0.00  0.00    +0.000 A 
ATOM      5  C   UNL     1       4.020   7.134  17.474  0.00  0.00    +0.000 A 
ATOM      6  C   UNL     1       4.733   6.412  16.616  0.00  0.00    +0.000 A 
ATOM      7  N   UNL     1       4.696   5.040  16.641  0.00  0.00    +0.000 N 
ATOM      8  C   UNL     1       3.901   4.343  17.561  0.00  0.00    +0.000 A 
ATOM      9  O   UNL     1       3.840   3.117  17.539  0.00  0.00    +0.000 OA
ATOM     10  N   UNL     1       3.175   5.071  18.486  0.00  0.00    +0.000 NA
ATOM     11  H   UNL     1       1.986   6.481  20.020  0.00  0.00    +0.000 HD
ENDROOT
BRANCH   2  12
ATOM     12  C   UNL     1       1.084   8.925  20.192  0.00  0.00    +0.000 A 
ATOM     13  C   UNL     1       0.249   9.991  19.823  0.00  0.00    +0.000 A 
ATOM     14  C   UNL     1      -0.472  10.687  20.789  0.00  0.00    +0.000 A 
ATOM     15  C   UNL     1      -0.353  10.326  22.129  0.00  0.00    +0.000 A 
ATOM     16  C   UNL     1       0.475   9.262  22.500  0.00  0.00    +0.000 A 
ATOM     17  C   UNL     1       1.196   8.552  21.533  0.00  0.00    +0.000 A 
ENDBRANCH   2  12
BRANCH   7  18
ATOM     18  C   UNL     1       5.560   4.300  15.712  0.00  0.00    +0.000 C 
BRANCH  18  19
ATOM     19  C   UNL     1       7.054   4.567  15.908  0.00  0.00    +0.000 C 
BRANCH  19  20
ATOM     20  O   UNL     1       7.607   5.300  14.815  0.00  0.00    +0.000 OA
ATOM     21  H   UNL     1       6.970   6.007  14.606  0.00  0.00    +0.000 HD
ENDBRANCH  19  20
ENDBRANCH  18  19
ENDBRANCH   7  18
TORSDOF 4
ENDMDL
