MODEL 1
REMARK VINA RESULT:      -8.3      0.000      0.000
REMARK  Name = 
REMARK  4 active torsions:
REMARK  status: ('A' for Active; 'I' for Inactive)
REMARK    1  A    between atoms: C_2  and  C_29
REMARK    2  A    between atoms: N_3  and  C_4
REMARK    3  A    between atoms: C_4  and  C_5
REMARK    4  A    between atoms: C_8  and  C_9
REMARK                            x       y       z     vdW  Elec       q    Type
REMARK                         _______ _______ _______ _____ _____    ______ ____
ROOT
ATOM      1  C   UNL     1      -1.143  10.722  18.607  0.00  0.00    +0.000 A 
ATOM      2  N   UNL     1      -2.318  10.432  18.082  0.00  0.00    +0.000 NA
ATOM      3  N   UNL     1      -3.215  11.359  18.552  0.00  0.00    +0.000 NA
ATOM      4  C   UNL     1      -2.572  12.211  19.342  0.00  0.00    +0.000 A 
ATOM      5  N   UNL     1      -1.225  12.033  19.101  0.00  0.00    +0.000 N 
ATOM      6  C   UNL     1      -0.119  12.818  19.472  0.00  0.00    +0.000 A 
ATOM      7  C   UNL     1       1.055  12.682  18.714  0.00  0.00    +0.000 A 
ATOM      8  C   UNL     1       2.273  12.722  19.367  0.00  0.00    +0.000 A 
ATOM      9  C   UNL     1       2.248  12.968  20.724  0.00  0.00    +0.000 A 
ATOM     10  N   UNL     1       1.135  13.354  21.397  0.00  0.00    +0.000 NA
ATOM     11  C   UNL     1      -0.055  13.323  20.755  0.00  0.00    +0.000 A 
ATOM     12  N   UNL     1      -1.129  13.778  21.495  0.00  0.00    +0.000 N 
ATOM     13  C   UNL     1      -2.513  13.840  21.281  0.00  0.00    +0.000 A 
ATOM     14  C   UNL     1      -3.248  14.683  22.147  0.00  0.00    +0.000 A 
ATOM     15  C   UNL     1      -4.641  14.748  22.105  0.00  0.00    +0.000 A 
ATOM     16  C   UNL     1      -5.330  13.986  21.176  0.00  0.00    +0.000 A 
ATOM     17  C   UNL     1      -4.619  13.206  20.266  0.00  0.00    +0.000 A 
ATOM     18  C   UNL     1      -3.207  13.137  20.283  0.00  0.00    +0.000 A 
ATOM     19  H   UNL     1      -0.798  14.129  22.387  0.00  0.00    +0.000 HD
ENDROOT
BRANCH   1  23
ATOM     20  C   UNL     1       2.122   7.944  19.211  0.00  0.00    +0.000 A 
ATOM     21  C   UNL     1       1.798   8.408  17.926  0.00  0.00    +0.000 A 
ATOM     22  C   UNL     1       0.741   9.317  17.728  0.00  0.00    +0.000 A 
ATOM     23  C   UNL     1      -0.021   9.777  18.806  0.00  0.00    +0.000 A 
ATOM     24  C   UNL     1       0.279   9.255  20.077  0.00  0.00    +0.000 A 
ATOM     25  C   UNL     1       1.362   8.396  20.288  0.00  0.00    +0.000 A 
BRANCH  20  26
ATOM     26  C   UNL     1       3.234   6.955  19.451  0.00  0.00    +0.000 C 
BRANCH  26  29
ATOM     27  O   UNL     1       5.612   5.432  19.254  0.00  0.00    +0.000 OA
ATOM     28  C   UNL     1       5.056   5.812  18.229  0.00  0.00    +0.000 C 
ATOM     29  N   UNL     1       3.911   6.580  18.229  0.00  0.00    +0.000 N 
ATOM     30  H   UNL     1       3.440   6.797  17.367  0.00  0.00    +0.000 HD
BRANCH  28  31
ATOM     31  C   UNL     1       5.602   5.434  16.901  0.00  0.00    +0.000 A 
ATOM     32  C   UNL     1       4.882   4.703  15.954  0.00  0.00    +0.000 A 
ATOM     33  C   UNL     1       5.481   4.377  14.738  0.00  0.00    +0.000 A 
ATOM     34  C   UNL     1       6.781   4.802  14.502  0.00  0.00    +0.000 A 
ATOM     35  N   UNL     1       7.495   5.530  15.393  0.00  0.00    +0.000 NA
ATOM     36  C   UNL     1       6.888   5.838  16.574  0.00  0.00    +0.000 A 
ENDBRANCH  28  31
ENDBRANCH  26  29
ENDBRANCH  20  26
ENDBRANCH   1  23
TORSDOF 4
ENDMDL
MODEL 2
REMARK VINA RESULT:      -8.2      2.546      3.501
REMARK  Name = 
REMARK  4 active torsions:
REMARK  status: ('A' for Active; 'I' for Inactive)
REMARK    1  A    between atoms: C_2  and  C_29
REMARK    2  A    between atoms: N_3  and  C_4
REMARK    3  A    between atoms: C_4  and  C_5
REMARK    4  A    between atoms: C_8  and  C_9
REMARK                            x       y       z     vdW  Elec       q    Type
REMARK                         _______ _______ _______ _____ _____    ______ ____
ROOT
ATOM      1  C   UNL     1      -1.732  12.260  19.958  0.00  0.00    +0.000 A 
ATOM      2  N   UNL     1      -3.040  12.118  19.875  0.00  0.00    +0.000 NA
ATOM      3  N   UNL     1      -3.604  13.003  20.760  0.00  0.00    +0.000 NA
ATOM      4  C   UNL     1      -2.633  13.685  21.356  0.00  0.00    +0.000 A 
ATOM      5  N   UNL     1      -1.491  13.479  20.610  0.00  0.00    +0.000 N 
ATOM      6  C   UNL     1      -0.248  14.137  20.640  0.00  0.00    +0.000 A 
ATOM      7  C   UNL     1       0.552  14.064  19.489  0.00  0.00    +0.000 A 
ATOM      8  C   UNL     1       1.919  13.937  19.641  0.00  0.00    +0.000 A 
ATOM      9  C   UNL     1       2.412  13.966  20.929  0.00  0.00    +0.000 A 
ATOM     10  N   UNL     1       1.664  14.297  22.012  0.00  0.00    +0.000 NA
ATOM     11  C   UNL     1       0.327  14.429  21.860  0.00  0.00    +0.000 A 
ATOM     12  N   UNL     1      -0.353  14.815  22.999  0.00  0.00    +0.000 N 
ATOM     13  C   UNL     1      -1.706  14.981  23.326  0.00  0.00    +0.000 A 
ATOM     14  C   UNL     1      -1.986  15.712  24.504  0.00  0.00    +0.000 A 
ATOM     15  C   UNL     1      -3.285  15.854  24.992  0.00  0.00    +0.000 A 
ATOM     16  C   UNL     1      -4.339  15.286  24.298  0.00  0.00    +0.000 A 
ATOM     17  C   UNL     1      -4.091  14.625  23.095  0.00  0.00    +0.000 A 
ATOM     18  C   UNL     1      -2.784  14.481  22.577  0.00  0.00    +0.000 A 
ATOM     19  H   UNL     1       0.313  15.003  23.741  0.00  0.00    +0.000 HD
ENDROOT
BRANCH   1  23
ATOM     20  C   UNL     1       1.231   9.291  18.886  0.00  0.00    +0.000 A 
ATOM     21  C   UNL     1       1.042   9.671  20.224  0.00  0.00    +0.000 A 
ATOM     22  C   UNL     1       0.074  10.631  20.576  0.00  0.00    +0.000 A 
ATOM     23  C   UNL     1      -0.721  11.240  19.601  0.00  0.00    +0.000 A 
ATOM     24  C   UNL     1      -0.476  10.891  18.260  0.00  0.00    +0.000 A 
ATOM     25  C   UNL     1       0.444   9.898  17.909  0.00  0.00    +0.000 A 
BRANCH  20  26
ATOM     26  C   UNL     1       2.273   8.282  18.477  0.00  0.00    +0.000 C 
BRANCH  26  29
ATOM     27  O   UNL     1       3.305   5.758  17.715  0.00  0.00    +0.000 OA
ATOM     28  C   UNL     1       2.735   5.872  18.794  0.00  0.00    +0.000 C 
ATOM     29  N   UNL     1       2.178   7.054  19.235  0.00  0.00    +0.000 N 
ATOM     30  H   UNL     1       1.796   7.124  20.163  0.00  0.00    +0.000 HD
BRANCH  28  31
ATOM     31  C   UNL     1       2.631   4.707  19.709  0.00  0.00    +0.000 A 
ATOM     32  C   UNL     1       1.588   4.538  20.622  0.00  0.00    +0.000 A 
ATOM     33  C   UNL     1       1.580   3.422  21.457  0.00  0.00    +0.000 A 
ATOM     34  C   UNL     1       2.613   2.501  21.345  0.00  0.00    +0.000 A 
ATOM     35  N   UNL     1       3.625   2.628  20.455  0.00  0.00    +0.000 NA
ATOM     36  C   UNL     1       3.610   3.727  19.648  0.00  0.00    +0.000 A 
ENDBRANCH  28  31
ENDBRANCH  26  29
ENDBRANCH  20  26
ENDBRANCH   1  23
TORSDOF 4
ENDMDL
MODEL 3
REMARK VINA RESULT:      -8.1      2.551      3.301
REMARK  Name = 
REMARK  4 active torsions:
REMARK  status: ('A' for Active; 'I' for Inactive)
REMARK    1  A    between atoms: C_2  and  C_29
REMARK    2  A    between atoms: N_3  and  C_4
REMARK    3  A    between atoms: C_4  and  C_5
REMARK    4  A    between atoms: C_8  and  C_9
REMARK                            x       y       z     vdW  Elec       q    Type
REMARK                         _______ _______ _______ _____ _____    ______ ____
ROOT
ATOM      1  C   UNL     1      -1.709  11.637  19.454  0.00  0.00    +0.000 A 
ATOM      2  N   UNL     1      -2.991  11.427  19.232  0.00  0.00    +0.000 NA
ATOM      3  N   UNL     1      -3.692  12.265  20.064  0.00  0.00    +0.000 NA
ATOM      4  C   UNL     1      -2.827  12.987  20.767  0.00  0.00    +0.000 A 
ATOM      5  N   UNL     1      -1.604  12.855  20.143  0.00  0.00    +0.000 N 
ATOM      6  C   UNL     1      -0.409  13.577  20.312  0.00  0.00    +0.000 A 
ATOM      7  C   UNL     1       0.510  13.567  19.250  0.00  0.00    +0.000 A 
ATOM      8  C   UNL     1       1.859  13.510  19.544  0.00  0.00    +0.000 A 
ATOM      9  C   UNL     1       2.212  13.542  20.877  0.00  0.00    +0.000 A 
ATOM     10  N   UNL     1       1.339  13.814  21.879  0.00  0.00    +0.000 NA
ATOM     11  C   UNL     1       0.019  13.877  21.589  0.00  0.00    +0.000 A 
ATOM     12  N   UNL     1      -0.797  14.207  22.655  0.00  0.00    +0.000 N 
ATOM     13  C   UNL     1      -2.182  14.295  22.840  0.00  0.00    +0.000 A 
ATOM     14  C   UNL     1      -2.623  14.989  23.990  0.00  0.00    +0.000 A 
ATOM     15  C   UNL     1      -3.972  15.053  24.341  0.00  0.00    +0.000 A 
ATOM     16  C   UNL     1      -4.916  14.443  23.532  0.00  0.00    +0.000 A 
ATOM     17  C   UNL     1      -4.507  13.817  22.355  0.00  0.00    +0.000 A 
ATOM     18  C   UNL     1      -3.148  13.752  21.975  0.00  0.00    +0.000 A 
ATOM     19  H   UNL     1      -0.223  14.416  23.465  0.00  0.00    +0.000 HD
ENDROOT
BRANCH   1  23
ATOM     20  C   UNL     1       1.491   8.815  18.716  0.00  0.00    +0.000 A 
ATOM     21  C   UNL     1       0.805   9.422  17.653  0.00  0.00    +0.000 A 
ATOM     22  C   UNL     1      -0.232  10.345  17.890  0.00  0.00    +0.000 A 
ATOM     23  C   UNL     1      -0.612  10.678  19.193  0.00  0.00    +0.000 A 
ATOM     24  C   UNL     1       0.046  10.015  20.246  0.00  0.00    +0.000 A 
ATOM     25  C   UNL     1       1.112   9.140  20.018  0.00  0.00    +0.000 A 
BRANCH  20  26
ATOM     26  C   UNL     1       2.590   7.808  18.493  0.00  0.00    +0.000 C 
BRANCH  26  29
ATOM     27  O   UNL     1       2.146   5.140  17.657  0.00  0.00    +0.000 OA
ATOM     28  C   UNL     1       2.268   5.381  18.853  0.00  0.00    +0.000 C 
ATOM     29  N   UNL     1       2.459   6.652  19.353  0.00  0.00    +0.000 N 
ATOM     30  H   UNL     1       2.640   6.794  20.332  0.00  0.00    +0.000 HD
BRANCH  28  31
ATOM     31  C   UNL     1       2.230   4.276  19.844  0.00  0.00    +0.000 A 
ATOM     32  C   UNL     1       1.114   3.989  20.632  0.00  0.00    +0.000 A 
ATOM     33  C   UNL     1       1.173   2.943  21.552  0.00  0.00    +0.000 A 
ATOM     34  C   UNL     1       2.347   2.209  21.648  0.00  0.00    +0.000 A 
ATOM     35  N   UNL     1       3.438   2.451  20.883  0.00  0.00    +0.000 NA
ATOM     36  C   UNL     1       3.355   3.477  19.990  0.00  0.00    +0.000 A 
ENDBRANCH  28  31
ENDBRANCH  26  29
ENDBRANCH  20  26
ENDBRANCH   1  23
TORSDOF 4
ENDMDL
MODEL 4
REMARK VINA RESULT:      -8.1      2.519      4.250
REMARK  Name = 
REMARK  4 active torsions:
REMARK  status: ('A' for Active; 'I' for Inactive)
REMARK    1  A    between atoms: C_2  and  C_29
REMARK    2  A    between atoms: N_3  and  C_4
REMARK    3  A    between atoms: C_4  and  C_5
REMARK    4  A    between atoms: C_8  and  C_9
REMARK                            x       y       z     vdW  Elec       q    Type
REMARK                         _______ _______ _______ _____ _____    ______ ____
ROOT
ATOM      1  C   UNL     1      -0.611  12.764  22.253  0.00  0.00    +0.000 A 
ATOM      2  N   UNL     1      -0.472  13.428  23.384  0.00  0.00    +0.000 NA
ATOM      3  N   UNL     1      -0.394  14.762  23.067  0.00  0.00    +0.000 NA
ATOM      4  C   UNL     1      -0.505  14.893  21.750  0.00  0.00    +0.000 A 
ATOM      5  N   UNL     1      -0.993  13.693  21.274  0.00  0.00    +0.000 N 
ATOM      6  C   UNL     1      -1.518  13.356  20.013  0.00  0.00    +0.000 A 
ATOM      7  C   UNL     1      -2.364  12.237  19.943  0.00  0.00    +0.000 A 
ATOM      8  C   UNL     1      -2.273  11.409  18.840  0.00  0.00    +0.000 A 
ATOM      9  C   UNL     1      -1.399  11.787  17.843  0.00  0.00    +0.000 A 
ATOM     10  N   UNL     1      -0.784  12.996  17.801  0.00  0.00    +0.000 NA
ATOM     11  C   UNL     1      -0.880  13.809  18.877  0.00  0.00    +0.000 A 
ATOM     12  N   UNL     1      -0.268  15.040  18.734  0.00  0.00    +0.000 N 
ATOM     13  C   UNL     1      -0.040  16.128  19.587  0.00  0.00    +0.000 A 
ATOM     14  C   UNL     1       0.334  17.345  18.971  0.00  0.00    +0.000 A 
ATOM     15  C   UNL     1       0.690  18.469  19.717  0.00  0.00    +0.000 A 
ATOM     16  C   UNL     1       0.659  18.407  21.100  0.00  0.00    +0.000 A 
ATOM     17  C   UNL     1       0.223  17.238  21.724  0.00  0.00    +0.000 A 
ATOM     18  C   UNL     1      -0.156  16.093  20.987  0.00  0.00    +0.000 A 
ATOM     19  H   UNL     1       0.089  15.129  17.789  0.00  0.00    +0.000 HD
ENDROOT
BRANCH   1  23
ATOM     20  C   UNL     1       0.479   8.628  21.580  0.00  0.00    +0.000 A 
ATOM     21  C   UNL     1      -0.419   8.981  22.599  0.00  0.00    +0.000 A 
ATOM     22  C   UNL     1      -0.781  10.324  22.816  0.00  0.00    +0.000 A 
ATOM     23  C   UNL     1      -0.248  11.347  22.026  0.00  0.00    +0.000 A 
ATOM     24  C   UNL     1       0.696  10.981  21.049  0.00  0.00    +0.000 A 
ATOM     25  C   UNL     1       1.017   9.645  20.792  0.00  0.00    +0.000 A 
BRANCH  20  26
ATOM     26  C   UNL     1       0.901   7.202  21.338  0.00  0.00    +0.000 C 
BRANCH  26  29
ATOM     27  O   UNL     1       1.801   4.884  19.984  0.00  0.00    +0.000 OA
ATOM     28  C   UNL     1       2.410   5.938  19.839  0.00  0.00    +0.000 C 
ATOM     29  N   UNL     1       2.061   7.109  20.479  0.00  0.00    +0.000 N 
ATOM     30  H   UNL     1       2.535   7.969  20.264  0.00  0.00    +0.000 HD
BRANCH  28  31
ATOM     31  C   UNL     1       3.578   6.004  18.924  0.00  0.00    +0.000 A 
ATOM     32  C   UNL     1       3.593   6.763  17.752  0.00  0.00    +0.000 A 
ATOM     33  C   UNL     1       4.728   6.752  16.942  0.00  0.00    +0.000 A 
ATOM     34  C   UNL     1       5.818   5.989  17.336  0.00  0.00    +0.000 A 
ATOM     35  N   UNL     1       5.839   5.260  18.477  0.00  0.00    +0.000 NA
ATOM     36  C   UNL     1       4.719   5.288  19.254  0.00  0.00    +0.000 A 
ENDBRANCH  28  31
ENDBRANCH  26  29
ENDBRANCH  20  26
ENDBRANCH   1  23
TORSDOF 4
ENDMDL
MODEL 5
REMARK VINA RESULT:      -8.1      2.655     10.639
REMARK  Name = 
REMARK  4 active torsions:
REMARK  status: ('A' for Active; 'I' for Inactive)
REMARK    1  A    between atoms: C_2  and  C_29
REMARK    2  A    between atoms: N_3  and  C_4
REMARK    3  A    between atoms: C_4  and  C_5
REMARK    4  A    between atoms: C_8  and  C_9
REMARK                            x       y       z     vdW  Elec       q    Type
REMARK                         _______ _______ _______ _____ _____    ______ ____
ROOT
ATOM      1  C   UNL     1       3.868   4.366  17.116  0.00  0.00    +0.000 A 
ATOM      2  N   UNL     1       3.160   3.467  16.460  0.00  0.00    +0.000 NA
ATOM      3  N   UNL     1       3.883   3.109  15.349  0.00  0.00    +0.000 NA
ATOM      4  C   UNL     1       5.028   3.781  15.353  0.00  0.00    +0.000 A 
ATOM      5  N   UNL     1       5.180   4.295  16.625  0.00  0.00    +0.000 N 
ATOM      6  C   UNL     1       6.300   4.874  17.249  0.00  0.00    +0.000 A 
ATOM      7  C   UNL     1       6.332   4.871  18.653  0.00  0.00    +0.000 A 
ATOM      8  C   UNL     1       6.844   5.976  19.305  0.00  0.00    +0.000 A 
ATOM      9  C   UNL     1       7.361   6.984  18.518  0.00  0.00    +0.000 A 
ATOM     10  N   UNL     1       7.562   6.865  17.181  0.00  0.00    +0.000 NA
ATOM     11  C   UNL     1       7.067   5.779  16.546  0.00  0.00    +0.000 A 
ATOM     12  N   UNL     1       7.358   5.710  15.196  0.00  0.00    +0.000 N 
ATOM     13  C   UNL     1       6.990   4.848  14.155  0.00  0.00    +0.000 A 
ATOM     14  C   UNL     1       7.764   4.918  12.974  0.00  0.00    +0.000 A 
ATOM     15  C   UNL     1       7.433   4.189  11.831  0.00  0.00    +0.000 A 
ATOM     16  C   UNL     1       6.330   3.353  11.853  0.00  0.00    +0.000 A 
ATOM     17  C   UNL     1       5.598   3.215  13.032  0.00  0.00    +0.000 A 
ATOM     18  C   UNL     1       5.924   3.934  14.204  0.00  0.00    +0.000 A 
ATOM     19  H   UNL     1       7.971   6.479  14.945  0.00  0.00    +0.000 HD
ENDROOT
BRANCH   1  23
ATOM     20  C   UNL     1       2.294   7.347  19.832  0.00  0.00    +0.000 A 
ATOM     21  C   UNL     1       2.303   5.988  20.180  0.00  0.00    +0.000 A 
ATOM     22  C   UNL     1       2.820   5.017  19.302  0.00  0.00    +0.000 A 
ATOM     23  C   UNL     1       3.334   5.379  18.053  0.00  0.00    +0.000 A 
ATOM     24  C   UNL     1       3.262   6.739  17.697  0.00  0.00    +0.000 A 
ATOM     25  C   UNL     1       2.800   7.714  18.586  0.00  0.00    +0.000 A 
BRANCH  20  26
ATOM     26  C   UNL     1       1.728   8.407  20.743  0.00  0.00    +0.000 C 
BRANCH  26  29
ATOM     27  O   UNL     1       1.479  10.866  19.362  0.00  0.00    +0.000 OA
ATOM     28  C   UNL     1       0.482  10.176  19.542  0.00  0.00    +0.000 C 
ATOM     29  N   UNL     1       0.504   8.979  20.227  0.00  0.00    +0.000 N 
ATOM     30  H   UNL     1      -0.320   8.404  20.277  0.00  0.00    +0.000 HD
BRANCH  28  31
ATOM     31  C   UNL     1      -0.831  10.607  19.000  0.00  0.00    +0.000 A 
ATOM     32  C   UNL     1      -1.395  10.073  17.839  0.00  0.00    +0.000 A 
ATOM     33  C   UNL     1      -2.626  10.551  17.391  0.00  0.00    +0.000 A 
ATOM     34  C   UNL     1      -3.260  11.543  18.126  0.00  0.00    +0.000 A 
ATOM     35  N   UNL     1      -2.748  12.064  19.265  0.00  0.00    +0.000 NA
ATOM     36  C   UNL     1      -1.544  11.580  19.684  0.00  0.00    +0.000 A 
ENDBRANCH  28  31
ENDBRANCH  26  29
ENDBRANCH  20  26
ENDBRANCH   1  23
TORSDOF 4
ENDMDL
MODEL 6
REMARK VINA RESULT:      -8.0      2.807      3.569
REMARK  Name = 
REMARK  4 active torsions:
REMARK  status: ('A' for Active; 'I' for Inactive)
REMARK    1  A    between atoms: C_2  and  C_29
REMARK    2  A    between atoms: N_3  and  C_4
REMARK    3  A    between atoms: C_4  and  C_5
REMARK    4  A    between atoms: C_8  and  C_9
REMARK                            x       y       z     vdW  Elec       q    Type
REMARK                         _______ _______ _______ _____ _____    ______ ____
ROOT
ATOM      1  C   UNL     1      -2.618  11.351  18.784  0.00  0.00    +0.000 A 
ATOM      2  N   UNL     1      -3.640  11.032  18.014  0.00  0.00    +0.000 NA
ATOM      3  N   UNL     1      -4.766  11.573  18.586  0.00  0.00    +0.000 NA
ATOM      4  C   UNL     1      -4.411  12.228  19.686  0.00  0.00    +0.000 A 
ATOM      5  N   UNL     1      -3.042  12.392  19.623  0.00  0.00    +0.000 N 
ATOM      6  C   UNL     1      -2.184  13.206  20.384  0.00  0.00    +0.000 A 
ATOM      7  C   UNL     1      -0.944  13.545  19.819  0.00  0.00    +0.000 A 
ATOM      8  C   UNL     1       0.166  13.598  20.642  0.00  0.00    +0.000 A 
ATOM      9  C   UNL     1      -0.042  13.383  21.988  0.00  0.00    +0.000 A 
ATOM     10  N   UNL     1      -1.273  13.316  22.557  0.00  0.00    +0.000 NA
ATOM     11  C   UNL     1      -2.358  13.272  21.751  0.00  0.00    +0.000 A 
ATOM     12  N   UNL     1      -3.573  13.255  22.409  0.00  0.00    +0.000 N 
ATOM     13  C   UNL     1      -4.907  13.124  22.004  0.00  0.00    +0.000 A 
ATOM     14  C   UNL     1      -5.894  13.488  22.950  0.00  0.00    +0.000 A 
ATOM     15  C   UNL     1      -7.254  13.303  22.705  0.00  0.00    +0.000 A 
ATOM     16  C   UNL     1      -7.661  12.768  21.494  0.00  0.00    +0.000 A 
ATOM     17  C   UNL     1      -6.708  12.471  20.520  0.00  0.00    +0.000 A 
ATOM     18  C   UNL     1      -5.326  12.664  20.744  0.00  0.00    +0.000 A 
ATOM     19  H   UNL     1      -3.416  13.355  23.407  0.00  0.00    +0.000 HD
ENDROOT
BRANCH   1  23
ATOM     20  C   UNL     1       1.125   9.194  19.065  0.00  0.00    +0.000 A 
ATOM     21  C   UNL     1       0.640   9.637  17.826  0.00  0.00    +0.000 A 
ATOM     22  C   UNL     1      -0.574  10.345  17.732  0.00  0.00    +0.000 A 
ATOM     23  C   UNL     1      -1.334  10.619  18.872  0.00  0.00    +0.000 A 
ATOM     24  C   UNL     1      -0.862  10.115  20.098  0.00  0.00    +0.000 A 
ATOM     25  C   UNL     1       0.368   9.460  20.205  0.00  0.00    +0.000 A 
BRANCH  20  26
ATOM     26  C   UNL     1       2.410   8.416  19.194  0.00  0.00    +0.000 C 
BRANCH  26  29
ATOM     27  O   UNL     1       2.310   5.940  17.825  0.00  0.00    +0.000 OA
ATOM     28  C   UNL     1       2.198   5.955  19.045  0.00  0.00    +0.000 C 
ATOM     29  N   UNL     1       2.208   7.115  19.792  0.00  0.00    +0.000 N 
ATOM     30  H   UNL     1       2.200   7.075  20.797  0.00  0.00    +0.000 HD
BRANCH  28  31
ATOM     31  C   UNL     1       2.060   4.683  19.797  0.00  0.00    +0.000 A 
ATOM     32  C   UNL     1       1.689   3.475  19.202  0.00  0.00    +0.000 A 
ATOM     33  C   UNL     1       1.565   2.331  19.989  0.00  0.00    +0.000 A 
ATOM     34  C   UNL     1       1.827   2.428  21.349  0.00  0.00    +0.000 A 
ATOM     35  N   UNL     1       2.208   3.580  21.950  0.00  0.00    +0.000 NA
ATOM     36  C   UNL     1       2.325   4.685  21.159  0.00  0.00    +0.000 A 
ENDBRANCH  28  31
ENDBRANCH  26  29
ENDBRANCH  20  26
ENDBRANCH   1  23
TORSDOF 4
ENDMDL
MODEL 7
REMARK VINA RESULT:      -8.0      2.391      3.201
REMARK  Name = 
REMARK  4 active torsions:
REMARK  status: ('A' for Active; 'I' for Inactive)
REMARK    1  A    between atoms: C_2  and  C_29
REMARK    2  A    between atoms: N_3  and  C_4
REMARK    3  A    between atoms: C_4  and  C_5
REMARK    4  A    between atoms: C_8  and  C_9
REMARK                            x       y       z     vdW  Elec       q    Type
REMARK                         _______ _______ _______ _____ _____    ______ ____
ROOT
ATOM      1  C   UNL     1      -1.709  12.173  19.816  0.00  0.00    +0.000 A 
ATOM      2  N   UNL     1      -3.009  11.978  19.714  0.00  0.00    +0.000 NA
ATOM      3  N   UNL     1      -3.618  12.814  20.618  0.00  0.00    +0.000 NA
ATOM      4  C   UNL     1      -2.683  13.518  21.244  0.00  0.00    +0.000 A 
ATOM      5  N   UNL     1      -1.525  13.381  20.504  0.00  0.00    +0.000 N 
ATOM      6  C   UNL     1      -0.312  14.089  20.567  0.00  0.00    +0.000 A 
ATOM      7  C   UNL     1       0.502  14.082  19.423  0.00  0.00    +0.000 A 
ATOM      8  C   UNL     1       1.872  14.009  19.586  0.00  0.00    +0.000 A 
ATOM      9  C   UNL     1       2.351  14.021  20.879  0.00  0.00    +0.000 A 
ATOM     10  N   UNL     1       1.579  14.289  21.963  0.00  0.00    +0.000 NA
ATOM     11  C   UNL     1       0.239  14.369  21.801  0.00  0.00    +0.000 A 
ATOM     12  N   UNL     1      -0.468  14.695  22.942  0.00  0.00    +0.000 N 
ATOM     13  C   UNL     1      -1.829  14.795  23.260  0.00  0.00    +0.000 A 
ATOM     14  C   UNL     1      -2.151  15.479  24.455  0.00  0.00    +0.000 A 
ATOM     15  C   UNL     1      -3.459  15.553  24.932  0.00  0.00    +0.000 A 
ATOM     16  C   UNL     1      -4.482  14.961  24.210  0.00  0.00    +0.000 A 
ATOM     17  C   UNL     1      -4.195  14.346  22.993  0.00  0.00    +0.000 A 
ATOM     18  C   UNL     1      -2.878  14.272  22.484  0.00  0.00    +0.000 A 
ATOM     19  H   UNL     1       0.182  14.889  23.696  0.00  0.00    +0.000 HD
ENDROOT
BRANCH   1  23
ATOM     20  C   UNL     1       1.376   9.330  18.747  0.00  0.00    +0.000 A 
ATOM     21  C   UNL     1       0.525   9.871  17.771  0.00  0.00    +0.000 A 
ATOM     22  C   UNL     1      -0.475  10.801  18.115  0.00  0.00    +0.000 A 
ATOM     23  C   UNL     1      -0.652  11.206  19.441  0.00  0.00    +0.000 A 
ATOM     24  C   UNL     1       0.170  10.607  20.413  0.00  0.00    +0.000 A 
ATOM     25  C   UNL     1       1.200   9.726  20.072  0.00  0.00    +0.000 A 
BRANCH  20  26
ATOM     26  C   UNL     1       2.441   8.316  18.412  0.00  0.00    +0.000 C 
BRANCH  26  29
ATOM     27  O   UNL     1       3.728   5.974  17.478  0.00  0.00    +0.000 OA
ATOM     28  C   UNL     1       2.694   5.872  18.128  0.00  0.00    +0.000 C 
ATOM     29  N   UNL     1       1.986   6.957  18.601  0.00  0.00    +0.000 N 
ATOM     30  H   UNL     1       1.191   6.825  19.203  0.00  0.00    +0.000 HD
BRANCH  28  31
ATOM     31  C   UNL     1       2.153   4.530  18.460  0.00  0.00    +0.000 A 
ATOM     32  C   UNL     1       1.411   4.264  19.614  0.00  0.00    +0.000 A 
ATOM     33  C   UNL     1       0.957   2.969  19.855  0.00  0.00    +0.000 A 
ATOM     34  C   UNL     1       1.250   1.978  18.928  0.00  0.00    +0.000 A 
ATOM     35  N   UNL     1       1.949   2.210  17.791  0.00  0.00    +0.000 NA
ATOM     36  C   UNL     1       2.381   3.486  17.576  0.00  0.00    +0.000 A 
ENDBRANCH  28  31
ENDBRANCH  26  29
ENDBRANCH  20  26
ENDBRANCH   1  23
TORSDOF 4
ENDMDL
MODEL 8
REMARK VINA RESULT:      -8.0      2.337      3.069
REMARK  Name = 
REMARK  4 active torsions:
REMARK  status: ('A' for Active; 'I' for Inactive)
REMARK    1  A    between atoms: C_2  and  C_29
REMARK    2  A    between atoms: N_3  and  C_4
REMARK    3  A    between atoms: C_4  and  C_5
REMARK    4  A    between atoms: C_8  and  C_9
REMARK                            x       y       z     vdW  Elec       q    Type
REMARK                         _______ _______ _______ _____ _____    ______ ____
ROOT
ATOM      1  C   UNL     1      -2.084  11.150  18.588  0.00  0.00    +0.000 A 
ATOM      2  N   UNL     1      -2.746  10.985  17.460  0.00  0.00    +0.000 NA
ATOM      3  N   UNL     1      -3.984  11.557  17.626  0.00  0.00    +0.000 NA
ATOM      4  C   UNL     1      -4.052  12.077  18.845  0.00  0.00    +0.000 A 
ATOM      5  N   UNL     1      -2.757  12.139  19.320  0.00  0.00    +0.000 N 
ATOM      6  C   UNL     1      -2.224  12.810  20.435  0.00  0.00    +0.000 A 
ATOM      7  C   UNL     1      -0.851  13.102  20.420  0.00  0.00    +0.000 A 
ATOM      8  C   UNL     1      -0.138  12.992  21.599  0.00  0.00    +0.000 A 
ATOM      9  C   UNL     1      -0.852  12.671  22.735  0.00  0.00    +0.000 A 
ATOM     10  N   UNL     1      -2.208  12.648  22.788  0.00  0.00    +0.000 NA
ATOM     11  C   UNL     1      -2.904  12.764  21.635  0.00  0.00    +0.000 A 
ATOM     12  N   UNL     1      -4.278  12.781  21.782  0.00  0.00    +0.000 N 
ATOM     13  C   UNL     1      -5.361  12.792  20.894  0.00  0.00    +0.000 A 
ATOM     14  C   UNL     1      -6.619  13.144  21.435  0.00  0.00    +0.000 A 
ATOM     15  C   UNL     1      -7.789  13.088  20.678  0.00  0.00    +0.000 A 
ATOM     16  C   UNL     1      -7.723  12.700  19.350  0.00  0.00    +0.000 A 
ATOM     17  C   UNL     1      -6.482  12.421  18.779  0.00  0.00    +0.000 A 
ATOM     18  C   UNL     1      -5.284  12.485  19.525  0.00  0.00    +0.000 A 
ATOM     19  H   UNL     1      -4.510  12.775  22.770  0.00  0.00    +0.000 HD
ENDROOT
BRANCH   1  23
ATOM     20  C   UNL     1       1.186   8.690  20.003  0.00  0.00    +0.000 A 
ATOM     21  C   UNL     1       1.232   9.292  18.736  0.00  0.00    +0.000 A 
ATOM     22  C   UNL     1       0.173  10.098  18.276  0.00  0.00    +0.000 A 
ATOM     23  C   UNL     1      -0.959  10.315  19.067  0.00  0.00    +0.000 A 
ATOM     24  C   UNL     1      -1.014   9.655  20.308  0.00  0.00    +0.000 A 
ATOM     25  C   UNL     1       0.057   8.899  20.794  0.00  0.00    +0.000 A 
BRANCH  20  26
ATOM     26  C   UNL     1       2.294   7.805  20.514  0.00  0.00    +0.000 C 
BRANCH  26  29
ATOM     27  O   UNL     1       3.630   6.668  18.292  0.00  0.00    +0.000 OA
ATOM     28  C   UNL     1       2.882   5.968  18.965  0.00  0.00    +0.000 C 
ATOM     29  N   UNL     1       2.170   6.442  20.046  0.00  0.00    +0.000 N 
ATOM     30  H   UNL     1       1.635   5.814  20.622  0.00  0.00    +0.000 HD
BRANCH  28  31
ATOM     31  C   UNL     1       2.718   4.528  18.642  0.00  0.00    +0.000 A 
ATOM     32  C   UNL     1       1.544   3.814  18.889  0.00  0.00    +0.000 A 
ATOM     33  C   UNL     1       1.485   2.458  18.571  0.00  0.00    +0.000 A 
ATOM     34  C   UNL     1       2.601   1.859  18.005  0.00  0.00    +0.000 A 
ATOM     35  N   UNL     1       3.746   2.530  17.735  0.00  0.00    +0.000 NA
ATOM     36  C   UNL     1       3.779   3.856  18.053  0.00  0.00    +0.000 A 
ENDBRANCH  28  31
ENDBRANCH  26  29
ENDBRANCH  20  26
ENDBRANCH   1  23
TORSDOF 4
ENDMDL
MODEL 9
REMARK VINA RESULT:      -8.0      2.676      3.357
REMARK  Name = 
REMARK  4 active torsions:
REMARK  status: ('A' for Active; 'I' for Inactive)
REMARK    1  A    between atoms: C_2  and  C_29
REMARK    2  A    between atoms: N_3  and  C_4
REMARK    3  A    between atoms: C_4  and  C_5
REMARK    4  A    between atoms: C_8  and  C_9
REMARK                            x       y       z     vdW  Elec       q    Type
REMARK                         _______ _______ _______ _____ _____    ______ ____
ROOT
ATOM      1  C   UNL     1      -2.700  11.265  18.720  0.00  0.00    +0.000 A 
ATOM      2  N   UNL     1      -3.716  10.923  17.952  0.00  0.00    +0.000 NA
ATOM      3  N   UNL     1      -4.854  11.423  18.535  0.00  0.00    +0.000 NA
ATOM      4  C   UNL     1      -4.514  12.077  19.639  0.00  0.00    +0.000 A 
ATOM      5  N   UNL     1      -3.152  12.284  19.571  0.00  0.00    +0.000 N 
ATOM      6  C   UNL     1      -2.315  13.117  20.336  0.00  0.00    +0.000 A 
ATOM      7  C   UNL     1      -1.089  13.500  19.768  0.00  0.00    +0.000 A 
ATOM      8  C   UNL     1       0.023  13.579  20.586  0.00  0.00    +0.000 A 
ATOM      9  C   UNL     1      -0.172  13.344  21.932  0.00  0.00    +0.000 A 
ATOM     10  N   UNL     1      -1.396  13.233  22.506  0.00  0.00    +0.000 NA
ATOM     11  C   UNL     1      -2.484  13.164  21.705  0.00  0.00    +0.000 A 
ATOM     12  N   UNL     1      -3.694  13.103  22.369  0.00  0.00    +0.000 N 
ATOM     13  C   UNL     1      -5.026  12.934  21.969  0.00  0.00    +0.000 A 
ATOM     14  C   UNL     1      -6.018  13.258  22.923  0.00  0.00    +0.000 A 
ATOM     15  C   UNL     1      -7.374  13.033  22.683  0.00  0.00    +0.000 A 
ATOM     16  C   UNL     1      -7.770  12.498  21.468  0.00  0.00    +0.000 A 
ATOM     17  C   UNL     1      -6.813  12.241  20.487  0.00  0.00    +0.000 A 
ATOM     18  C   UNL     1      -5.437  12.474  20.706  0.00  0.00    +0.000 A 
ATOM     19  H   UNL     1      -3.535  13.197  23.366  0.00  0.00    +0.000 HD
ENDROOT
BRANCH   1  23
ATOM     20  C   UNL     1       1.111   9.225  18.962  0.00  0.00    +0.000 A 
ATOM     21  C   UNL     1       0.554   9.566  17.720  0.00  0.00    +0.000 A 
ATOM     22  C   UNL     1      -0.682  10.236  17.639  0.00  0.00    +0.000 A 
ATOM     23  C   UNL     1      -1.393  10.573  18.794  0.00  0.00    +0.000 A 
ATOM     24  C   UNL     1      -0.849  10.169  20.027  0.00  0.00    +0.000 A 
ATOM     25  C   UNL     1       0.403   9.554  20.118  0.00  0.00    +0.000 A 
BRANCH  20  26
ATOM     26  C   UNL     1       2.421   8.489  19.080  0.00  0.00    +0.000 C 
BRANCH  26  29
ATOM     27  O   UNL     1       1.827   6.470  20.973  0.00  0.00    +0.000 OA
ATOM     28  C   UNL     1       1.968   6.164  19.795  0.00  0.00    +0.000 C 
ATOM     29  N   UNL     1       2.285   7.075  18.809  0.00  0.00    +0.000 N 
ATOM     30  H   UNL     1       2.307   6.796  17.843  0.00  0.00    +0.000 HD
BRANCH  28  31
ATOM     31  C   UNL     1       1.782   4.756  19.362  0.00  0.00    +0.000 A 
ATOM     32  C   UNL     1       1.345   3.741  20.215  0.00  0.00    +0.000 A 
ATOM     33  C   UNL     1       1.216   2.442  19.728  0.00  0.00    +0.000 A 
ATOM     34  C   UNL     1       1.519   2.199  18.395  0.00  0.00    +0.000 A 
ATOM     35  N   UNL     1       1.925   3.166  17.540  0.00  0.00    +0.000 NA
ATOM     36  C   UNL     1       2.042   4.429  18.039  0.00  0.00    +0.000 A 
ENDBRANCH  28  31
ENDBRANCH  26  29
ENDBRANCH  20  26
ENDBRANCH   1  23
TORSDOF 4
ENDMDL
