MODEL 1
REMARK VINA RESULT:      -7.2      0.000      0.000
REMARK  Name = 
REMARK  8 active torsions:
REMARK  status: ('A' for Active; 'I' for Inactive)
REMARK    1  A    between atoms: C_1  and  C_2
REMARK    2  A    between atoms: N_4  and  C_5
REMARK    3  A    between atoms: C_8  and  O_9
REMARK    4  A    between atoms: O_9  and  C_10
REMARK    5  A    between atoms: C_10  and  C_11
REMARK    6  A    between atoms: N_13  and  C_14
REMARK    7  A    between atoms: C_14  and  C_15
REMARK    8  A    between atoms: C_14  and  C_16
REMARK                            x       y       z     vdW  Elec       q    Type
REMARK                         _______ _______ _______ _____ _____    ______ ____
ROOT
ATOM      1  C   UNL     1       1.510   9.222  18.272  0.00  0.00    +0.000 C 
ENDROOT
BRANCH   1   2
ATOM      2  C   UNL     1       2.099   7.911  18.803  0.00  0.00    +0.000 C 
ATOM      3  O   UNL     1       2.057   7.623  19.999  0.00  0.00    +0.000 OA
ATOM      4  N   UNL     1       2.625   7.079  17.840  0.00  0.00    +0.000 N 
ATOM      5  H   UNL     1       2.721   7.461  16.905  0.00  0.00    +0.000 HD
BRANCH   4   6
ATOM      6  C   UNL     1       3.167   5.767  18.144  0.00  0.00    +0.000 C 
ATOM      7  C   UNL     1       2.044   4.735  18.253  0.00  0.00    +0.000 C 
BRANCH   6   8
ATOM      8  C   UNL     1       4.217   5.343  17.132  0.00  0.00    +0.000 A 
ATOM      9  C   UNL     1       4.915   6.328  16.409  0.00  0.00    +0.000 A 
ATOM     10  C   UNL     1       5.907   5.974  15.494  0.00  0.00    +0.000 A 
ATOM     11  C   UNL     1       6.202   4.634  15.291  0.00  0.00    +0.000 A 
ATOM     12  F   UNL     1       7.154   4.294  14.412  0.00  0.00    +0.000 F 
ATOM     13  C   UNL     1       5.524   3.639  15.986  0.00  0.00    +0.000 A 
ATOM     14  C   UNL     1       4.532   3.992  16.905  0.00  0.00    +0.000 A 
ENDBRANCH   6   8
ENDBRANCH   4   6
ENDBRANCH   1   2
BRANCH   1  15
ATOM     15  O   UNL     1       0.652   9.815  19.241  0.00  0.00    +0.000 OA
BRANCH  15  19
ATOM     16  C   UNL     1      -2.948  11.564  18.028  0.00  0.00    +0.000 A 
ATOM     17  C   UNL     1      -2.281  11.935  19.195  0.00  0.00    +0.000 A 
ATOM     18  C   UNL     1      -1.085  11.316  19.565  0.00  0.00    +0.000 A 
ATOM     19  C   UNL     1      -0.540  10.297  18.787  0.00  0.00    +0.000 A 
ATOM     20  C   UNL     1      -1.200   9.905  17.622  0.00  0.00    +0.000 A 
ATOM     21  C   UNL     1      -2.406  10.527  17.250  0.00  0.00    +0.000 A 
BRANCH  16  25
ATOM     22  C   UNL     1      -6.489  12.507  17.138  0.00  0.00    +0.000 C 
ATOM     23  C   UNL     1      -5.427  11.687  17.821  0.00  0.00    +0.000 C 
ATOM     24  O   UNL     1      -5.736  10.704  18.486  0.00  0.00    +0.000 OA
ATOM     25  N   UNL     1      -4.146  12.172  17.600  0.00  0.00    +0.000 N 
ATOM     26  H   UNL     1      -4.064  13.085  17.167  0.00  0.00    +0.000 HD
ENDBRANCH  16  25
ENDBRANCH  15  19
ENDBRANCH   1  15
TORSDOF 6
ENDMDL
MODEL 2
REMARK VINA RESULT:      -7.2      3.767      9.032
REMARK  Name = 
REMARK  8 active torsions:
REMARK  status: ('A' for Active; 'I' for Inactive)
REMARK    1  A    between atoms: C_1  and  C_2
REMARK    2  A    between atoms: N_4  and  C_5
REMARK    3  A    between atoms: C_8  and  O_9
REMARK    4  A    between atoms: O_9  and  C_10
REMARK    5  A    between atoms: C_10  and  C_11
REMARK    6  A    between atoms: N_13  and  C_14
REMARK    7  A    between atoms: C_14  and  C_15
REMARK    8  A    between atoms: C_14  and  C_16
REMARK                            x       y       z     vdW  Elec       q    Type
REMARK                         _______ _______ _______ _____ _____    ______ ____
ROOT
ATOM      1  C   UNL     1       1.171   8.824  21.395  0.00  0.00    +0.000 C 
ENDROOT
BRANCH   1   2
ATOM      2  C   UNL     1      -0.030   9.774  21.356  0.00  0.00    +0.000 C 
ATOM      3  O   UNL     1      -0.700  10.009  22.362  0.00  0.00    +0.000 OA
ATOM      4  N   UNL     1      -0.262  10.366  20.135  0.00  0.00    +0.000 N 
ATOM      5  H   UNL     1       0.269  10.014  19.345  0.00  0.00    +0.000 HD
BRANCH   4   6
ATOM      6  C   UNL     1      -1.312  11.345  19.921  0.00  0.00    +0.000 C 
ATOM      7  C   UNL     1      -0.742  12.763  19.960  0.00  0.00    +0.000 C 
BRANCH   6   8
ATOM      8  C   UNL     1      -2.071  11.085  18.631  0.00  0.00    +0.000 A 
ATOM      9  C   UNL     1      -1.527  10.203  17.678  0.00  0.00    +0.000 A 
ATOM     10  C   UNL     1      -2.211   9.920  16.495  0.00  0.00    +0.000 A 
ATOM     11  C   UNL     1      -3.438  10.521  16.255  0.00  0.00    +0.000 A 
ATOM     12  F   UNL     1      -4.095  10.249  15.119  0.00  0.00    +0.000 F 
ATOM     13  C   UNL     1      -3.996  11.401  17.176  0.00  0.00    +0.000 A 
ATOM     14  C   UNL     1      -3.314  11.684  18.361  0.00  0.00    +0.000 A 
ENDBRANCH   6   8
ENDBRANCH   4   6
ENDBRANCH   1   2
BRANCH   1  15
ATOM     15  O   UNL     1       1.728   8.665  20.094  0.00  0.00    +0.000 OA
BRANCH  15  19
ATOM     16  C   UNL     1       2.472   4.658  19.158  0.00  0.00    +0.000 A 
ATOM     17  C   UNL     1       1.928   5.063  20.376  0.00  0.00    +0.000 A 
ATOM     18  C   UNL     1       1.706   6.415  20.648  0.00  0.00    +0.000 A 
ATOM     19  C   UNL     1       2.042   7.393  19.716  0.00  0.00    +0.000 A 
ATOM     20  C   UNL     1       2.597   7.007  18.496  0.00  0.00    +0.000 A 
ATOM     21  C   UNL     1       2.823   5.646  18.222  0.00  0.00    +0.000 A 
BRANCH  16  25
ATOM     22  C   UNL     1       3.827   1.202  18.492  0.00  0.00    +0.000 C 
ATOM     23  C   UNL     1       3.862   2.593  19.068  0.00  0.00    +0.000 C 
ATOM     24  O   UNL     1       4.852   2.988  19.674  0.00  0.00    +0.000 OA
ATOM     25  N   UNL     1       2.696   3.305  18.827  0.00  0.00    +0.000 N 
ATOM     26  H   UNL     1       1.905   2.790  18.457  0.00  0.00    +0.000 HD
ENDBRANCH  16  25
ENDBRANCH  15  19
ENDBRANCH   1  15
TORSDOF 6
ENDMDL
MODEL 3
REMARK VINA RESULT:      -7.1      6.625      9.542
REMARK  Name = 
REMARK  8 active torsions:
REMARK  status: ('A' for Active; 'I' for Inactive)
REMARK    1  A    between atoms: C_1  and  C_2
REMARK    2  A    between atoms: N_4  and  C_5
REMARK    3  A    between atoms: C_8  and  O_9
REMARK    4  A    between atoms: O_9  and  C_10
REMARK    5  A    between atoms: C_10  and  C_11
REMARK    6  A    between atoms: N_13  and  C_14
REMARK    7  A    between atoms: C_14  and  C_15
REMARK    8  A    between atoms: C_14  and  C_16
REMARK                            x       y       z     vdW  Elec       q    Type
REMARK                         _______ _______ _______ _____ _____    ______ ____
ROOT
ATOM      1  C   UNL     1       8.069   8.837  17.870  0.00  0.00    +0.000 C 
ENDROOT
BRANCH   1   2
ATOM      2  C   UNL     1       7.653   7.366  17.769  0.00  0.00    +0.000 C 
ATOM      3  O   UNL     1       7.878   6.568  18.678  0.00  0.00    +0.000 OA
ATOM      4  N   UNL     1       6.978   7.032  16.616  0.00  0.00    +0.000 N 
ATOM      5  H   UNL     1       6.951   7.730  15.880  0.00  0.00    +0.000 HD
BRANCH   4   6
ATOM      6  C   UNL     1       6.447   5.704  16.371  0.00  0.00    +0.000 C 
ATOM      7  C   UNL     1       7.472   4.636  16.757  0.00  0.00    +0.000 C 
BRANCH   6   8
ATOM      8  C   UNL     1       5.122   5.485  17.080  0.00  0.00    +0.000 A 
ATOM      9  C   UNL     1       4.301   6.593  17.363  0.00  0.00    +0.000 A 
ATOM     10  C   UNL     1       3.065   6.426  17.987  0.00  0.00    +0.000 A 
ATOM     11  C   UNL     1       2.645   5.151  18.338  0.00  0.00    +0.000 A 
ATOM     12  F   UNL     1       1.457   4.989  18.937  0.00  0.00    +0.000 F 
ATOM     13  C   UNL     1       3.438   4.039  18.077  0.00  0.00    +0.000 A 
ATOM     14  C   UNL     1       4.675   4.205  17.450  0.00  0.00    +0.000 A 
ENDBRANCH   6   8
ENDBRANCH   4   6
ENDBRANCH   1   2
BRANCH   1  15
ATOM     15  O   UNL     1       8.891   9.047  19.014  0.00  0.00    +0.000 OA
BRANCH  15  19
ATOM     16  C   UNL     1      10.155  13.021  19.340  0.00  0.00    +0.000 A 
ATOM     17  C   UNL     1      10.013  12.369  18.115  0.00  0.00    +0.000 A 
ATOM     18  C   UNL     1       9.597  11.037  18.056  0.00  0.00    +0.000 A 
ATOM     19  C   UNL     1       9.334  10.321  19.222  0.00  0.00    +0.000 A 
ATOM     20  C   UNL     1       9.481  10.954  20.456  0.00  0.00    +0.000 A 
ATOM     21  C   UNL     1       9.902  12.295  20.516  0.00  0.00    +0.000 A 
BRANCH  16  25
ATOM     22  C   UNL     1      10.454  16.779  19.432  0.00  0.00    +0.000 C 
ATOM     23  C   UNL     1       9.710  15.471  19.394  0.00  0.00    +0.000 C 
ATOM     24  O   UNL     1       8.486  15.457  19.316  0.00  0.00    +0.000 OA
ATOM     25  N   UNL     1      10.551  14.369  19.452  0.00  0.00    +0.000 N 
ATOM     26  H   UNL     1      11.524  14.541  19.680  0.00  0.00    +0.000 HD
ENDBRANCH  16  25
ENDBRANCH  15  19
ENDBRANCH   1  15
TORSDOF 6
ENDMDL
MODEL 4
REMARK VINA RESULT:      -7.1      3.466      5.198
REMARK  Name = 
REMARK  8 active torsions:
REMARK  status: ('A' for Active; 'I' for Inactive)
REMARK    1  A    between atoms: C_1  and  C_2
REMARK    2  A    between atoms: N_4  and  C_5
REMARK    3  A    between atoms: C_8  and  O_9
REMARK    4  A    between atoms: O_9  and  C_10
REMARK    5  A    between atoms: C_10  and  C_11
REMARK    6  A    between atoms: N_13  and  C_14
REMARK    7  A    between atoms: C_14  and  C_15
REMARK    8  A    between atoms: C_14  and  C_16
REMARK                            x       y       z     vdW  Elec       q    Type
REMARK                         _______ _______ _______ _____ _____    ______ ____
ROOT
ATOM      1  C   UNL     1       2.554   3.446  18.506  0.00  0.00    +0.000 C 
ENDROOT
BRANCH   1   2
ATOM      2  C   UNL     1       4.073   3.439  18.297  0.00  0.00    +0.000 C 
ATOM      3  O   UNL     1       4.834   2.934  19.122  0.00  0.00    +0.000 OA
ATOM      4  N   UNL     1       4.498   3.992  17.111  0.00  0.00    +0.000 N 
ATOM      5  H   UNL     1       3.805   4.488  16.560  0.00  0.00    +0.000 HD
BRANCH   4   6
ATOM      6  C   UNL     1       5.892   4.016  16.708  0.00  0.00    +0.000 C 
ATOM      7  C   UNL     1       6.012   3.943  15.185  0.00  0.00    +0.000 C 
BRANCH   6   8
ATOM      8  C   UNL     1       6.621   5.225  17.267  0.00  0.00    +0.000 A 
ATOM      9  C   UNL     1       7.480   5.062  18.371  0.00  0.00    +0.000 A 
ATOM     10  C   UNL     1       8.187   6.146  18.891  0.00  0.00    +0.000 A 
ATOM     11  C   UNL     1       8.035   7.400  18.317  0.00  0.00    +0.000 A 
ATOM     12  F   UNL     1       8.715   8.441  18.816  0.00  0.00    +0.000 F 
ATOM     13  C   UNL     1       7.189   7.591  17.230  0.00  0.00    +0.000 A 
ATOM     14  C   UNL     1       6.482   6.506  16.706  0.00  0.00    +0.000 A 
ENDBRANCH   6   8
ENDBRANCH   4   6
ENDBRANCH   1   2
BRANCH   1  15
ATOM     15  O   UNL     1       2.208   4.243  19.635  0.00  0.00    +0.000 OA
BRANCH  15  19
ATOM     16  C   UNL     1       1.799   8.390  19.283  0.00  0.00    +0.000 A 
ATOM     17  C   UNL     1       1.603   7.708  20.483  0.00  0.00    +0.000 A 
ATOM     18  C   UNL     1       1.741   6.321  20.551  0.00  0.00    +0.000 A 
ATOM     19  C   UNL     1       2.058   5.580  19.414  0.00  0.00    +0.000 A 
ATOM     20  C   UNL     1       2.247   6.244  18.202  0.00  0.00    +0.000 A 
ATOM     21  C   UNL     1       2.106   7.642  18.133  0.00  0.00    +0.000 A 
BRANCH  16  25
ATOM     22  C   UNL     1       0.732  11.982  18.854  0.00  0.00    +0.000 C 
ATOM     23  C   UNL     1       0.508  10.512  19.087  0.00  0.00    +0.000 C 
ATOM     24  O   UNL     1      -0.631  10.066  19.183  0.00  0.00    +0.000 OA
ATOM     25  N   UNL     1       1.691   9.791  19.166  0.00  0.00    +0.000 N 
ATOM     26  H   UNL     1       2.553  10.321  19.232  0.00  0.00    +0.000 HD
ENDBRANCH  16  25
ENDBRANCH  15  19
ENDBRANCH   1  15
TORSDOF 6
ENDMDL
MODEL 5
REMARK VINA RESULT:      -7.1      3.884      9.788
REMARK  Name = 
REMARK  8 active torsions:
REMARK  status: ('A' for Active; 'I' for Inactive)
REMARK    1  A    between atoms: C_1  and  C_2
REMARK    2  A    between atoms: N_4  and  C_5
REMARK    3  A    between atoms: C_8  and  O_9
REMARK    4  A    between atoms: O_9  and  C_10
REMARK    5  A    between atoms: C_10  and  C_11
REMARK    6  A    between atoms: N_13  and  C_14
REMARK    7  A    between atoms: C_14  and  C_15
REMARK    8  A    between atoms: C_14  and  C_16
REMARK                            x       y       z     vdW  Elec       q    Type
REMARK                         _______ _______ _______ _____ _____    ______ ____
ROOT
ATOM      1  C   UNL     1       3.157   7.738  17.814  0.00  0.00    +0.000 C 
ENDROOT
BRANCH   1   2
ATOM      2  C   UNL     1       2.124   8.142  18.871  0.00  0.00    +0.000 C 
ATOM      3  O   UNL     1       2.020   7.535  19.936  0.00  0.00    +0.000 OA
ATOM      4  N   UNL     1       1.371   9.250  18.552  0.00  0.00    +0.000 N 
ATOM      5  H   UNL     1       1.449   9.601  17.603  0.00  0.00    +0.000 HD
BRANCH   4   6
ATOM      6  C   UNL     1       0.389   9.821  19.455  0.00  0.00    +0.000 C 
ATOM      7  C   UNL     1       1.015  10.935  20.294  0.00  0.00    +0.000 C 
BRANCH   6   8
ATOM      8  C   UNL     1      -0.844  10.308  18.714  0.00  0.00    +0.000 A 
ATOM      9  C   UNL     1      -1.648  11.306  19.297  0.00  0.00    +0.000 A 
ATOM     10  C   UNL     1      -2.771  11.797  18.631  0.00  0.00    +0.000 A 
ATOM     11  C   UNL     1      -3.101  11.290  17.382  0.00  0.00    +0.000 A 
ATOM     12  F   UNL     1      -4.179  11.762  16.742  0.00  0.00    +0.000 F 
ATOM     13  C   UNL     1      -2.328  10.301  16.785  0.00  0.00    +0.000 A 
ATOM     14  C   UNL     1      -1.202   9.809  17.449  0.00  0.00    +0.000 A 
ENDBRANCH   6   8
ENDBRANCH   4   6
ENDBRANCH   1   2
BRANCH   1  15
ATOM     15  O   UNL     1       3.637   6.420  18.061  0.00  0.00    +0.000 OA
BRANCH  15  19
ATOM     16  C   UNL     1       5.642   4.363  15.022  0.00  0.00    +0.000 A 
ATOM     17  C   UNL     1       4.883   3.720  15.999  0.00  0.00    +0.000 A 
ATOM     18  C   UNL     1       4.239   4.448  17.001  0.00  0.00    +0.000 A 
ATOM     19  C   UNL     1       4.356   5.835  17.061  0.00  0.00    +0.000 A 
ATOM     20  C   UNL     1       5.120   6.494  16.098  0.00  0.00    +0.000 A 
ATOM     21  C   UNL     1       5.771   5.760  15.089  0.00  0.00    +0.000 A 
BRANCH  16  25
ATOM     22  C   UNL     1       6.664   2.545  11.880  0.00  0.00    +0.000 C 
ATOM     23  C   UNL     1       5.757   3.394  12.730  0.00  0.00    +0.000 C 
ATOM     24  O   UNL     1       4.668   3.759  12.300  0.00  0.00    +0.000 OA
ATOM     25  N   UNL     1       6.294   3.675  13.978  0.00  0.00    +0.000 N 
ATOM     26  H   UNL     1       7.270   3.442  14.125  0.00  0.00    +0.000 HD
ENDBRANCH  16  25
ENDBRANCH  15  19
ENDBRANCH   1  15
TORSDOF 6
ENDMDL
MODEL 6
REMARK VINA RESULT:      -7.1      3.542      5.235
REMARK  Name = 
REMARK  8 active torsions:
REMARK  status: ('A' for Active; 'I' for Inactive)
REMARK    1  A    between atoms: C_1  and  C_2
REMARK    2  A    between atoms: N_4  and  C_5
REMARK    3  A    between atoms: C_8  and  O_9
REMARK    4  A    between atoms: O_9  and  C_10
REMARK    5  A    between atoms: C_10  and  C_11
REMARK    6  A    between atoms: N_13  and  C_14
REMARK    7  A    between atoms: C_14  and  C_15
REMARK    8  A    between atoms: C_14  and  C_16
REMARK                            x       y       z     vdW  Elec       q    Type
REMARK                         _______ _______ _______ _____ _____    ______ ____
ROOT
ATOM      1  C   UNL     1       2.705   3.390  18.577  0.00  0.00    +0.000 C 
ENDROOT
BRANCH   1   2
ATOM      2  C   UNL     1       4.217   3.437  18.330  0.00  0.00    +0.000 C 
ATOM      3  O   UNL     1       5.020   3.044  19.175  0.00  0.00    +0.000 OA
ATOM      4  N   UNL     1       4.588   3.903  17.089  0.00  0.00    +0.000 N 
ATOM      5  H   UNL     1       3.858   4.314  16.516  0.00  0.00    +0.000 HD
BRANCH   4   6
ATOM      6  C   UNL     1       5.969   3.957  16.649  0.00  0.00    +0.000 C 
ATOM      7  C   UNL     1       6.050   3.911  15.123  0.00  0.00    +0.000 C 
BRANCH   6   8
ATOM      8  C   UNL     1       6.692   5.171  17.208  0.00  0.00    +0.000 A 
ATOM      9  C   UNL     1       6.519   6.422  16.587  0.00  0.00    +0.000 A 
ATOM     10  C   UNL     1       7.145   7.562  17.091  0.00  0.00    +0.000 A 
ATOM     11  C   UNL     1       7.953   7.458  18.214  0.00  0.00    +0.000 A 
ATOM     12  F   UNL     1       8.554   8.552  18.699  0.00  0.00    +0.000 F 
ATOM     13  C   UNL     1       8.147   6.233  18.844  0.00  0.00    +0.000 A 
ATOM     14  C   UNL     1       7.519   5.091  18.342  0.00  0.00    +0.000 A 
ENDBRANCH   6   8
ENDBRANCH   4   6
ENDBRANCH   1   2
BRANCH   1  15
ATOM     15  O   UNL     1       2.366   4.129  19.747  0.00  0.00    +0.000 OA
BRANCH  15  19
ATOM     16  C   UNL     1       1.760   8.263  19.583  0.00  0.00    +0.000 A 
ATOM     17  C   UNL     1       1.449   7.496  20.705  0.00  0.00    +0.000 A 
ATOM     18  C   UNL     1       1.660   6.115  20.710  0.00  0.00    +0.000 A 
ATOM     19  C   UNL     1       2.167   5.468  19.586  0.00  0.00    +0.000 A 
ATOM     20  C   UNL     1       2.473   6.219  18.450  0.00  0.00    +0.000 A 
ATOM     21  C   UNL     1       2.259   7.609  18.444  0.00  0.00    +0.000 A 
BRANCH  16  25
ATOM     22  C   UNL     1       0.819  11.836  18.827  0.00  0.00    +0.000 C 
ATOM     23  C   UNL     1       0.681  10.340  18.730  0.00  0.00    +0.000 C 
ATOM     24  O   UNL     1      -0.163   9.843  17.992  0.00  0.00    +0.000 OA
ATOM     25  N   UNL     1       1.585   9.662  19.535  0.00  0.00    +0.000 N 
ATOM     26  H   UNL     1       2.107  10.210  20.209  0.00  0.00    +0.000 HD
ENDBRANCH  16  25
ENDBRANCH  15  19
ENDBRANCH   1  15
TORSDOF 6
ENDMDL
MODEL 7
REMARK VINA RESULT:      -7.1      6.567      9.728
REMARK  Name = 
REMARK  8 active torsions:
REMARK  status: ('A' for Active; 'I' for Inactive)
REMARK    1  A    between atoms: C_1  and  C_2
REMARK    2  A    between atoms: N_4  and  C_5
REMARK    3  A    between atoms: C_8  and  O_9
REMARK    4  A    between atoms: O_9  and  C_10
REMARK    5  A    between atoms: C_10  and  C_11
REMARK    6  A    between atoms: N_13  and  C_14
REMARK    7  A    between atoms: C_14  and  C_15
REMARK    8  A    between atoms: C_14  and  C_16
REMARK                            x       y       z     vdW  Elec       q    Type
REMARK                         _______ _______ _______ _____ _____    ______ ____
ROOT
ATOM      1  C   UNL     1       8.281   7.703  18.550  0.00  0.00    +0.000 C 
ENDROOT
BRANCH   1   2
ATOM      2  C   UNL     1       7.545   6.554  17.853  0.00  0.00    +0.000 C 
ATOM      3  O   UNL     1       7.596   5.402  18.283  0.00  0.00    +0.000 OA
ATOM      4  N   UNL     1       6.802   6.922  16.755  0.00  0.00    +0.000 N 
ATOM      5  H   UNL     1       6.925   7.870  16.413  0.00  0.00    +0.000 HD
BRANCH   4   6
ATOM      6  C   UNL     1       5.985   5.985  16.006  0.00  0.00    +0.000 C 
ATOM      7  C   UNL     1       6.802   4.752  15.618  0.00  0.00    +0.000 C 
BRANCH   6   8
ATOM      8  C   UNL     1       4.726   5.602  16.764  0.00  0.00    +0.000 A 
ATOM      9  C   UNL     1       4.330   4.252  16.804  0.00  0.00    +0.000 A 
ATOM     10  C   UNL     1       3.195   3.862  17.515  0.00  0.00    +0.000 A 
ATOM     11  C   UNL     1       2.445   4.819  18.184  0.00  0.00    +0.000 A 
ATOM     12  F   UNL     1       1.356   4.444  18.868  0.00  0.00    +0.000 F 
ATOM     13  C   UNL     1       2.810   6.160  18.156  0.00  0.00    +0.000 A 
ATOM     14  C   UNL     1       3.947   6.553  17.446  0.00  0.00    +0.000 A 
ENDBRANCH   6   8
ENDBRANCH   4   6
ENDBRANCH   1   2
BRANCH   1  15
ATOM     15  O   UNL     1       8.185   8.899  17.782  0.00  0.00    +0.000 OA
BRANCH  15  19
ATOM     16  C   UNL     1       9.564  12.534  19.322  0.00  0.00    +0.000 A 
ATOM     17  C   UNL     1       8.889  12.434  18.106  0.00  0.00    +0.000 A 
ATOM     18  C   UNL     1       8.455  11.196  17.627  0.00  0.00    +0.000 A 
ATOM     19  C   UNL     1       8.705  10.027  18.343  0.00  0.00    +0.000 A 
ATOM     20  C   UNL     1       9.389  10.108  19.557  0.00  0.00    +0.000 A 
ATOM     21  C   UNL     1       9.827  11.354  20.039  0.00  0.00    +0.000 A 
BRANCH  16  25
ATOM     22  C   UNL     1      11.452  15.596  20.456  0.00  0.00    +0.000 C 
ATOM     23  C   UNL     1      11.248  14.340  19.652  0.00  0.00    +0.000 C 
ATOM     24  O   UNL     1      12.136  13.927  18.912  0.00  0.00    +0.000 OA
ATOM     25  N   UNL     1      10.004  13.761  19.860  0.00  0.00    +0.000 N 
ATOM     26  H   UNL     1       9.320  14.306  20.372  0.00  0.00    +0.000 HD
ENDBRANCH  16  25
ENDBRANCH  15  19
ENDBRANCH   1  15
TORSDOF 6
ENDMDL
MODEL 8
REMARK VINA RESULT:      -7.1      0.885      1.356
REMARK  Name = 
REMARK  8 active torsions:
REMARK  status: ('A' for Active; 'I' for Inactive)
REMARK    1  A    between atoms: C_1  and  C_2
REMARK    2  A    between atoms: N_4  and  C_5
REMARK    3  A    between atoms: C_8  and  O_9
REMARK    4  A    between atoms: O_9  and  C_10
REMARK    5  A    between atoms: C_10  and  C_11
REMARK    6  A    between atoms: N_13  and  C_14
REMARK    7  A    between atoms: C_14  and  C_15
REMARK    8  A    between atoms: C_14  and  C_16
REMARK                            x       y       z     vdW  Elec       q    Type
REMARK                         _______ _______ _______ _____ _____    ______ ____
ROOT
ATOM      1  C   UNL     1       1.078   9.766  19.067  0.00  0.00    +0.000 C 
ENDROOT
BRANCH   1   2
ATOM      2  C   UNL     1       1.715   8.477  19.599  0.00  0.00    +0.000 C 
ATOM      3  O   UNL     1       1.645   8.167  20.787  0.00  0.00    +0.000 OA
ATOM      4  N   UNL     1       2.320   7.692  18.643  0.00  0.00    +0.000 N 
ATOM      5  H   UNL     1       2.429   8.096  17.718  0.00  0.00    +0.000 HD
BRANCH   4   6
ATOM      6  C   UNL     1       2.919   6.406  18.945  0.00  0.00    +0.000 C 
ATOM      7  C   UNL     1       1.845   5.394  19.346  0.00  0.00    +0.000 C 
BRANCH   6   8
ATOM      8  C   UNL     1       3.765   5.892  17.793  0.00  0.00    +0.000 A 
ATOM      9  C   UNL     1       4.499   6.808  17.016  0.00  0.00    +0.000 A 
ATOM     10  C   UNL     1       5.308   6.368  15.968  0.00  0.00    +0.000 A 
ATOM     11  C   UNL     1       5.384   5.011  15.687  0.00  0.00    +0.000 A 
ATOM     12  F   UNL     1       6.162   4.588  14.682  0.00  0.00    +0.000 F 
ATOM     13  C   UNL     1       4.665   4.085  16.434  0.00  0.00    +0.000 A 
ATOM     14  C   UNL     1       3.855   4.523  17.485  0.00  0.00    +0.000 A 
ENDBRANCH   6   8
ENDBRANCH   4   6
ENDBRANCH   1   2
BRANCH   1  15
ATOM     15  O   UNL     1       0.172   9.476  18.007  0.00  0.00    +0.000 OA
BRANCH  15  19
ATOM     16  C   UNL     1      -3.504  11.452  17.738  0.00  0.00    +0.000 A 
ATOM     17  C   UNL     1      -3.107  10.464  16.838  0.00  0.00    +0.000 A 
ATOM     18  C   UNL     1      -1.865   9.838  16.961  0.00  0.00    +0.000 A 
ATOM     19  C   UNL     1      -0.983  10.201  17.977  0.00  0.00    +0.000 A 
ATOM     20  C   UNL     1      -1.359  11.195  18.880  0.00  0.00    +0.000 A 
ATOM     21  C   UNL     1      -2.610  11.827  18.755  0.00  0.00    +0.000 A 
BRANCH  16  25
ATOM     22  C   UNL     1      -7.139  12.456  17.739  0.00  0.00    +0.000 C 
ATOM     23  C   UNL     1      -5.975  11.552  18.042  0.00  0.00    +0.000 C 
ATOM     24  O   UNL     1      -6.160  10.456  18.562  0.00  0.00    +0.000 OA
ATOM     25  N   UNL     1      -4.756  12.099  17.669  0.00  0.00    +0.000 N 
ATOM     26  H   UNL     1      -4.748  13.077  17.403  0.00  0.00    +0.000 HD
ENDBRANCH  16  25
ENDBRANCH  15  19
ENDBRANCH   1  15
TORSDOF 6
ENDMDL
MODEL 9
REMARK VINA RESULT:      -7.0      6.870      9.431
REMARK  Name = 
REMARK  8 active torsions:
REMARK  status: ('A' for Active; 'I' for Inactive)
REMARK    1  A    between atoms: C_1  and  C_2
REMARK    2  A    between atoms: N_4  and  C_5
REMARK    3  A    between atoms: C_8  and  O_9
REMARK    4  A    between atoms: O_9  and  C_10
REMARK    5  A    between atoms: C_10  and  C_11
REMARK    6  A    between atoms: N_13  and  C_14
REMARK    7  A    between atoms: C_14  and  C_15
REMARK    8  A    between atoms: C_14  and  C_16
REMARK                            x       y       z     vdW  Elec       q    Type
REMARK                         _______ _______ _______ _____ _____    ______ ____
ROOT
ATOM      1  C   UNL     1       7.962   7.726  18.136  0.00  0.00    +0.000 C 
ENDROOT
BRANCH   1   2
ATOM      2  C   UNL     1       7.120   6.792  17.261  0.00  0.00    +0.000 C 
ATOM      3  O   UNL     1       7.485   6.461  16.134  0.00  0.00    +0.000 OA
ATOM      4  N   UNL     1       5.966   6.328  17.852  0.00  0.00    +0.000 N 
ATOM      5  H   UNL     1       5.696   6.755  18.732  0.00  0.00    +0.000 HD
BRANCH   4   6
ATOM      6  C   UNL     1       5.075   5.383  17.205  0.00  0.00    +0.000 C 
ATOM      7  C   UNL     1       5.824   4.100  16.843  0.00  0.00    +0.000 C 
BRANCH   6   8
ATOM      8  C   UNL     1       3.849   5.091  18.052  0.00  0.00    +0.000 A 
ATOM      9  C   UNL     1       2.839   4.256  17.537  0.00  0.00    +0.000 A 
ATOM     10  C   UNL     1       1.713   3.944  18.300  0.00  0.00    +0.000 A 
ATOM     11  C   UNL     1       1.586   4.470  19.578  0.00  0.00    +0.000 A 
ATOM     12  F   UNL     1       0.506   4.170  20.310  0.00  0.00    +0.000 F 
ATOM     13  C   UNL     1       2.565   5.303  20.109  0.00  0.00    +0.000 A 
ATOM     14  C   UNL     1       3.694   5.614  19.348  0.00  0.00    +0.000 A 
ENDBRANCH   6   8
ENDBRANCH   4   6
ENDBRANCH   1   2
BRANCH   1  15
ATOM     15  O   UNL     1       8.085   9.008  17.527  0.00  0.00    +0.000 OA
BRANCH  15  19
ATOM     16  C   UNL     1       9.677  12.231  19.664  0.00  0.00    +0.000 A 
ATOM     17  C   UNL     1       9.098  12.370  18.403  0.00  0.00    +0.000 A 
ATOM     18  C   UNL     1       8.587  11.263  17.723  0.00  0.00    +0.000 A 
ATOM     19  C   UNL     1       8.664   9.988  18.279  0.00  0.00    +0.000 A 
ATOM     20  C   UNL     1       9.250   9.828  19.535  0.00  0.00    +0.000 A 
ATOM     21  C   UNL     1       9.766  10.943  20.220  0.00  0.00    +0.000 A 
BRANCH  16  25
ATOM     22  C   UNL     1      10.273  15.262  21.827  0.00  0.00    +0.000 C 
ATOM     23  C   UNL     1       9.470  14.109  21.288  0.00  0.00    +0.000 C 
ATOM     24  O   UNL     1       8.305  13.947  21.638  0.00  0.00    +0.000 OA
ATOM     25  N   UNL     1      10.188  13.320  20.401  0.00  0.00    +0.000 N 
ATOM     26  H   UNL     1      11.186  13.484  20.338  0.00  0.00    +0.000 HD
ENDBRANCH  16  25
ENDBRANCH  15  19
ENDBRANCH   1  15
TORSDOF 6
ENDMDL
