MODEL 1
REMARK VINA RESULT:      -7.7      0.000      0.000
REMARK  Name = 
REMARK  4 active torsions:
REMARK  status: ('A' for Active; 'I' for Inactive)
REMARK    1  A    between atoms: C_1  and  N_2
REMARK    2  A    between atoms: C_3  and  C_4
REMARK    3  A    between atoms: C_4  and  N_5
REMARK    4  A    between atoms: C_8  and  C_9
REMARK                            x       y       z     vdW  Elec       q    Type
REMARK                         _______ _______ _______ _____ _____    ______ ____
ROOT
ATOM      1  N   UNL     1       3.160   6.196  18.679  0.00  0.00    +0.000 NA
ATOM      2  C   UNL     1       2.685   5.108  17.831  0.00  0.00    +0.000 C 
ATOM      3  C   UNL     1       3.407   3.764  17.977  0.00  0.00    +0.000 C 
ATOM      4  C   UNL     1       4.929   3.871  18.100  0.00  0.00    +0.000 C 
ATOM      5  C   UNL     1       5.287   4.932  19.136  0.00  0.00    +0.000 C 
ATOM      6  C   UNL     1       4.606   6.278  18.891  0.00  0.00    +0.000 C 
ENDROOT
BRANCH   4   7
ATOM      7  C   UNL     1       5.681   3.993  16.786  0.00  0.00    +0.000 A 
ATOM      8  N   UNL     1       5.286   3.409  15.673  0.00  0.00    +0.000 NA
ATOM      9  C   UNL     1       6.032   3.869  14.591  0.00  0.00    +0.000 A 
ATOM     10  C   UNL     1       5.858   3.516  13.232  0.00  0.00    +0.000 A 
ATOM     11  C   UNL     1       6.639   4.137  12.245  0.00  0.00    +0.000 A 
ATOM     12  C   UNL     1       7.584   5.099  12.595  0.00  0.00    +0.000 A 
ATOM     13  C   UNL     1       7.797   5.433  13.932  0.00  0.00    +0.000 A 
ATOM     14  C   UNL     1       7.018   4.794  14.909  0.00  0.00    +0.000 A 
ATOM     15  S   UNL     1       7.080   4.979  16.610  0.00  0.00    +0.000 S 
ENDBRANCH   4   7
BRANCH   1  16
ATOM     16  C   UNL     1       2.591   7.525  18.322  0.00  0.00    +0.000 C 
BRANCH  16  19
ATOM     17  C   UNL     1       1.284  10.364  18.077  0.00  0.00    +0.000 C 
ATOM     18  N   UNL     1       1.262   9.515  19.246  0.00  0.00    +0.000 N 
ATOM     19  C   UNL     1       1.802   8.252  19.399  0.00  0.00    +0.000 A 
ATOM     20  N   UNL     1       1.486   7.769  20.591  0.00  0.00    +0.000 NA
ATOM     21  C   UNL     1       0.792   8.766  21.242  0.00  0.00    +0.000 A 
ATOM     22  C   UNL     1       0.228   8.799  22.528  0.00  0.00    +0.000 A 
ATOM     23  C   UNL     1      -0.395   9.974  22.973  0.00  0.00    +0.000 A 
ATOM     24  C   UNL     1      -0.479  11.098  22.145  0.00  0.00    +0.000 A 
ATOM     25  C   UNL     1       0.049  11.072  20.851  0.00  0.00    +0.000 A 
ATOM     26  C   UNL     1       0.674   9.889  20.429  0.00  0.00    +0.000 A 
ENDBRANCH  16  19
ENDBRANCH   1  16
TORSDOF 3
ENDMDL
MODEL 2
REMARK VINA RESULT:      -7.4      5.643      7.832
REMARK  Name = 
REMARK  4 active torsions:
REMARK  status: ('A' for Active; 'I' for Inactive)
REMARK    1  A    between atoms: C_1  and  N_2
REMARK    2  A    between atoms: C_3  and  C_4
REMARK    3  A    between atoms: C_4  and  N_5
REMARK    4  A    between atoms: C_8  and  C_9
REMARK                            x       y       z     vdW  Elec       q    Type
REMARK                         _______ _______ _______ _____ _____    ______ ____
ROOT
ATOM      1  N   UNL     1       7.890   7.894  17.713  0.00  0.00    +0.000 NA
ATOM      2  C   UNL     1       7.991   7.238  19.013  0.00  0.00    +0.000 C 
ATOM      3  C   UNL     1       8.101   5.710  18.999  0.00  0.00    +0.000 C 
ATOM      4  C   UNL     1       7.178   5.015  17.994  0.00  0.00    +0.000 C 
ATOM      5  C   UNL     1       7.291   5.700  16.636  0.00  0.00    +0.000 C 
ATOM      6  C   UNL     1       7.085   7.214  16.697  0.00  0.00    +0.000 C 
ENDROOT
BRANCH   4   7
ATOM      7  C   UNL     1       5.754   4.786  18.470  0.00  0.00    +0.000 A 
ATOM      8  N   UNL     1       5.373   3.697  19.108  0.00  0.00    +0.000 NA
ATOM      9  C   UNL     1       4.085   3.854  19.612  0.00  0.00    +0.000 A 
ATOM     10  C   UNL     1       3.367   2.925  20.400  0.00  0.00    +0.000 A 
ATOM     11  C   UNL     1       2.104   3.270  20.906  0.00  0.00    +0.000 A 
ATOM     12  C   UNL     1       1.555   4.521  20.639  0.00  0.00    +0.000 A 
ATOM     13  C   UNL     1       2.231   5.437  19.834  0.00  0.00    +0.000 A 
ATOM     14  C   UNL     1       3.486   5.073  19.323  0.00  0.00    +0.000 A 
ATOM     15  S   UNL     1       4.518   5.970  18.293  0.00  0.00    +0.000 S 
ENDBRANCH   4   7
BRANCH   1  16
ATOM     16  C   UNL     1       7.542   9.339  17.797  0.00  0.00    +0.000 C 
BRANCH  16  19
ATOM     17  C   UNL     1       7.706  12.395  17.117  0.00  0.00    +0.000 C 
ATOM     18  N   UNL     1       8.688  11.634  17.855  0.00  0.00    +0.000 N 
ATOM     19  C   UNL     1       8.654  10.295  18.198  0.00  0.00    +0.000 A 
ATOM     20  N   UNL     1       9.697  10.000  18.958  0.00  0.00    +0.000 NA
ATOM     21  C   UNL     1      10.452  11.150  19.045  0.00  0.00    +0.000 A 
ATOM     22  C   UNL     1      11.660  11.403  19.716  0.00  0.00    +0.000 A 
ATOM     23  C   UNL     1      12.254  12.669  19.604  0.00  0.00    +0.000 A 
ATOM     24  C   UNL     1      11.647  13.680  18.853  0.00  0.00    +0.000 A 
ATOM     25  C   UNL     1      10.428  13.456  18.205  0.00  0.00    +0.000 A 
ATOM     26  C   UNL     1       9.856  12.180  18.325  0.00  0.00    +0.000 A 
ENDBRANCH  16  19
ENDBRANCH   1  16
TORSDOF 3
ENDMDL
MODEL 3
REMARK VINA RESULT:      -7.4      1.250      1.790
REMARK  Name = 
REMARK  4 active torsions:
REMARK  status: ('A' for Active; 'I' for Inactive)
REMARK    1  A    between atoms: C_1  and  N_2
REMARK    2  A    between atoms: C_3  and  C_4
REMARK    3  A    between atoms: C_4  and  N_5
REMARK    4  A    between atoms: C_8  and  C_9
REMARK                            x       y       z     vdW  Elec       q    Type
REMARK                         _______ _______ _______ _____ _____    ______ ____
ROOT
ATOM      1  N   UNL     1       4.006   6.269  18.773  0.00  0.00    +0.000 NA
ATOM      2  C   UNL     1       4.521   4.904  18.713  0.00  0.00    +0.000 C 
ATOM      3  C   UNL     1       6.029   4.754  18.486  0.00  0.00    +0.000 C 
ATOM      4  C   UNL     1       6.614   5.714  17.446  0.00  0.00    +0.000 C 
ATOM      5  C   UNL     1       6.122   7.131  17.722  0.00  0.00    +0.000 C 
ATOM      6  C   UNL     1       4.603   7.236  17.851  0.00  0.00    +0.000 C 
ENDROOT
BRANCH   4   7
ATOM      7  C   UNL     1       6.477   5.267  16.000  0.00  0.00    +0.000 A 
ATOM      8  N   UNL     1       7.307   5.643  15.048  0.00  0.00    +0.000 NA
ATOM      9  C   UNL     1       7.075   4.915  13.885  0.00  0.00    +0.000 A 
ATOM     10  C   UNL     1       7.803   4.997  12.676  0.00  0.00    +0.000 A 
ATOM     11  C   UNL     1       7.498   4.128  11.617  0.00  0.00    +0.000 A 
ATOM     12  C   UNL     1       6.483   3.184  11.750  0.00  0.00    +0.000 A 
ATOM     13  C   UNL     1       5.728   3.111  12.920  0.00  0.00    +0.000 A 
ATOM     14  C   UNL     1       6.035   3.996  13.965  0.00  0.00    +0.000 A 
ATOM     15  S   UNL     1       5.267   4.156  15.487  0.00  0.00    +0.000 S 
ENDBRANCH   4   7
BRANCH   1  16
ATOM     16  C   UNL     1       2.519   6.348  18.749  0.00  0.00    +0.000 C 
BRANCH  16  19
ATOM     17  C   UNL     1       1.682   9.202  17.759  0.00  0.00    +0.000 C 
ATOM     18  N   UNL     1       1.539   8.692  19.103  0.00  0.00    +0.000 N 
ATOM     19  C   UNL     1       1.871   7.440  19.585  0.00  0.00    +0.000 A 
ATOM     20  N   UNL     1       1.497   7.331  20.850  0.00  0.00    +0.000 NA
ATOM     21  C   UNL     1       0.980   8.558  21.208  0.00  0.00    +0.000 A 
ATOM     22  C   UNL     1       0.445   9.005  22.428  0.00  0.00    +0.000 A 
ATOM     23  C   UNL     1       0.025  10.338  22.545  0.00  0.00    +0.000 A 
ATOM     24  C   UNL     1       0.113  11.214  21.458  0.00  0.00    +0.000 A 
ATOM     25  C   UNL     1       0.613  10.777  20.227  0.00  0.00    +0.000 A 
ATOM     26  C   UNL     1       1.034   9.442  20.136  0.00  0.00    +0.000 A 
ENDBRANCH  16  19
ENDBRANCH   1  16
TORSDOF 3
ENDMDL
MODEL 4
REMARK VINA RESULT:      -7.4      4.218      8.721
REMARK  Name = 
REMARK  4 active torsions:
REMARK  status: ('A' for Active; 'I' for Inactive)
REMARK    1  A    between atoms: C_1  and  N_2
REMARK    2  A    between atoms: C_3  and  C_4
REMARK    3  A    between atoms: C_4  and  N_5
REMARK    4  A    between atoms: C_8  and  C_9
REMARK                            x       y       z     vdW  Elec       q    Type
REMARK                         _______ _______ _______ _____ _____    ______ ____
ROOT
ATOM      1  N   UNL     1       0.704   9.117  20.180  0.00  0.00    +0.000 NA
ATOM      2  C   UNL     1       0.405  10.095  21.221  0.00  0.00    +0.000 C 
ATOM      3  C   UNL     1      -0.667  11.138  20.890  0.00  0.00    +0.000 C 
ATOM      4  C   UNL     1      -0.583  11.707  19.471  0.00  0.00    +0.000 C 
ATOM      5  C   UNL     1      -0.435  10.568  18.468  0.00  0.00    +0.000 C 
ATOM      6  C   UNL     1       0.707   9.607  18.801  0.00  0.00    +0.000 C 
ENDROOT
BRANCH   4   7
ATOM      7  C   UNL     1       0.406  12.846  19.285  0.00  0.00    +0.000 A 
ATOM      8  N   UNL     1       1.669  12.658  18.963  0.00  0.00    +0.000 NA
ATOM      9  C   UNL     1       2.277  13.869  18.644  0.00  0.00    +0.000 A 
ATOM     10  C   UNL     1       3.604  14.058  18.197  0.00  0.00    +0.000 A 
ATOM     11  C   UNL     1       4.041  15.341  17.832  0.00  0.00    +0.000 A 
ATOM     12  C   UNL     1       3.176  16.429  17.908  0.00  0.00    +0.000 A 
ATOM     13  C   UNL     1       1.874  16.270  18.382  0.00  0.00    +0.000 A 
ATOM     14  C   UNL     1       1.455  14.984  18.757  0.00  0.00    +0.000 A 
ATOM     15  S   UNL     1      -0.058  14.499  19.396  0.00  0.00    +0.000 S 
ENDBRANCH   4   7
BRANCH   1  16
ATOM     16  C   UNL     1       1.911   8.292  20.462  0.00  0.00    +0.000 C 
BRANCH  16  19
ATOM     17  C   UNL     1       3.122   6.978  17.886  0.00  0.00    +0.000 C 
ATOM     18  N   UNL     1       2.382   6.295  18.923  0.00  0.00    +0.000 N 
ATOM     19  C   UNL     1       1.847   6.821  20.084  0.00  0.00    +0.000 A 
ATOM     20  N   UNL     1       1.327   5.851  20.819  0.00  0.00    +0.000 NA
ATOM     21  C   UNL     1       1.466   4.692  20.086  0.00  0.00    +0.000 A 
ATOM     22  C   UNL     1       1.085   3.372  20.381  0.00  0.00    +0.000 A 
ATOM     23  C   UNL     1       1.302   2.367  19.426  0.00  0.00    +0.000 A 
ATOM     24  C   UNL     1       1.911   2.662  18.202  0.00  0.00    +0.000 A 
ATOM     25  C   UNL     1       2.325   3.964  17.906  0.00  0.00    +0.000 A 
ATOM     26  C   UNL     1       2.091   4.954  18.872  0.00  0.00    +0.000 A 
ENDBRANCH  16  19
ENDBRANCH   1  16
TORSDOF 3
ENDMDL
MODEL 5
REMARK VINA RESULT:      -7.2      3.488      9.524
REMARK  Name = 
REMARK  4 active torsions:
REMARK  status: ('A' for Active; 'I' for Inactive)
REMARK    1  A    between atoms: C_1  and  N_2
REMARK    2  A    between atoms: C_3  and  C_4
REMARK    3  A    between atoms: C_4  and  N_5
REMARK    4  A    between atoms: C_8  and  C_9
REMARK                            x       y       z     vdW  Elec       q    Type
REMARK                         _______ _______ _______ _____ _____    ______ ____
ROOT
ATOM      1  N   UNL     1       1.860   8.551  19.464  0.00  0.00    +0.000 NA
ATOM      2  C   UNL     1       1.728   9.300  18.218  0.00  0.00    +0.000 C 
ATOM      3  C   UNL     1       1.504  10.810  18.350  0.00  0.00    +0.000 C 
ATOM      4  C   UNL     1       0.523  11.213  19.455  0.00  0.00    +0.000 C 
ATOM      5  C   UNL     1       0.874  10.479  20.745  0.00  0.00    +0.000 C 
ATOM      6  C   UNL     1       0.998   8.965  20.572  0.00  0.00    +0.000 C 
ENDROOT
BRANCH   4   7
ATOM      7  C   UNL     1      -0.946  11.152  19.073  0.00  0.00    +0.000 A 
ATOM      8  N   UNL     1      -1.890  11.788  19.737  0.00  0.00    +0.000 NA
ATOM      9  C   UNL     1      -3.095  11.735  19.042  0.00  0.00    +0.000 A 
ATOM     10  C   UNL     1      -4.313  12.350  19.412  0.00  0.00    +0.000 A 
ATOM     11  C   UNL     1      -5.421  12.274  18.554  0.00  0.00    +0.000 A 
ATOM     12  C   UNL     1      -5.329  11.597  17.341  0.00  0.00    +0.000 A 
ATOM     13  C   UNL     1      -4.149  10.952  16.975  0.00  0.00    +0.000 A 
ATOM     14  C   UNL     1      -3.053  11.024  17.849  0.00  0.00    +0.000 A 
ATOM     15  S   UNL     1      -1.505  10.312  17.679  0.00  0.00    +0.000 S 
ENDBRANCH   4   7
BRANCH   1  16
ATOM     16  C   UNL     1       1.830   7.074  19.281  0.00  0.00    +0.000 C 
BRANCH  16  19
ATOM     17  C   UNL     1       1.948   4.102  18.291  0.00  0.00    +0.000 C 
ATOM     18  N   UNL     1       2.894   5.144  17.967  0.00  0.00    +0.000 N 
ATOM     19  C   UNL     1       2.877   6.470  18.359  0.00  0.00    +0.000 A 
ATOM     20  N   UNL     1       3.869   7.124  17.774  0.00  0.00    +0.000 NA
ATOM     21  C   UNL     1       4.577   6.189  17.051  0.00  0.00    +0.000 A 
ATOM     22  C   UNL     1       5.722   6.328  16.248  0.00  0.00    +0.000 A 
ATOM     23  C   UNL     1       6.282   5.189  15.650  0.00  0.00    +0.000 A 
ATOM     24  C   UNL     1       5.702   3.929  15.827  0.00  0.00    +0.000 A 
ATOM     25  C   UNL     1       4.544   3.778  16.596  0.00  0.00    +0.000 A 
ATOM     26  C   UNL     1       4.006   4.928  17.190  0.00  0.00    +0.000 A 
ENDBRANCH  16  19
ENDBRANCH   1  16
TORSDOF 3
ENDMDL
MODEL 6
REMARK VINA RESULT:      -7.2      3.864      8.851
REMARK  Name = 
REMARK  4 active torsions:
REMARK  status: ('A' for Active; 'I' for Inactive)
REMARK    1  A    between atoms: C_1  and  N_2
REMARK    2  A    between atoms: C_3  and  C_4
REMARK    3  A    between atoms: C_4  and  N_5
REMARK    4  A    between atoms: C_8  and  C_9
REMARK                            x       y       z     vdW  Elec       q    Type
REMARK                         _______ _______ _______ _____ _____    ______ ____
ROOT
ATOM      1  N   UNL     1       1.014   8.962  19.170  0.00  0.00    +0.000 NA
ATOM      2  C   UNL     1       1.129   9.624  20.465  0.00  0.00    +0.000 C 
ATOM      3  C   UNL     1      -0.019  10.559  20.858  0.00  0.00    +0.000 C 
ATOM      4  C   UNL     1      -0.534  11.446  19.721  0.00  0.00    +0.000 C 
ATOM      5  C   UNL     1      -0.765  10.599  18.474  0.00  0.00    +0.000 C 
ATOM      6  C   UNL     1       0.445   9.753  18.078  0.00  0.00    +0.000 C 
ENDROOT
BRANCH   4   7
ATOM      7  C   UNL     1       0.258  12.721  19.481  0.00  0.00    +0.000 A 
ATOM      8  N   UNL     1       1.472  12.729  18.969  0.00  0.00    +0.000 NA
ATOM      9  C   UNL     1       1.860  14.030  18.659  0.00  0.00    +0.000 A 
ATOM     10  C   UNL     1       3.069  14.427  18.042  0.00  0.00    +0.000 A 
ATOM     11  C   UNL     1       3.274  15.777  17.716  0.00  0.00    +0.000 A 
ATOM     12  C   UNL     1       2.295  16.727  17.995  0.00  0.00    +0.000 A 
ATOM     13  C   UNL     1       1.112  16.361  18.636  0.00  0.00    +0.000 A 
ATOM     14  C   UNL     1       0.927  15.011  18.969  0.00  0.00    +0.000 A 
ATOM     15  S   UNL     1      -0.396  14.284  19.780  0.00  0.00    +0.000 S 
ENDBRANCH   4   7
BRANCH   1  16
ATOM     16  C   UNL     1       2.259   8.267  18.740  0.00  0.00    +0.000 C 
BRANCH  16  19
ATOM     17  C   UNL     1       4.443   6.236  17.775  0.00  0.00    +0.000 C 
ATOM     18  N   UNL     1       3.457   5.999  18.804  0.00  0.00    +0.000 N 
ATOM     19  C   UNL     1       2.490   6.865  19.280  0.00  0.00    +0.000 A 
ATOM     20  N   UNL     1       1.845   6.305  20.292  0.00  0.00    +0.000 NA
ATOM     21  C   UNL     1       2.358   5.032  20.422  0.00  0.00    +0.000 A 
ATOM     22  C   UNL     1       2.038   4.005  21.325  0.00  0.00    +0.000 A 
ATOM     23  C   UNL     1       2.686   2.766  21.212  0.00  0.00    +0.000 A 
ATOM     24  C   UNL     1       3.658   2.554  20.229  0.00  0.00    +0.000 A 
ATOM     25  C   UNL     1       4.012   3.576  19.343  0.00  0.00    +0.000 A 
ATOM     26  C   UNL     1       3.346   4.804  19.470  0.00  0.00    +0.000 A 
ENDBRANCH  16  19
ENDBRANCH   1  16
TORSDOF 3
ENDMDL
MODEL 7
REMARK VINA RESULT:      -7.2      4.064      8.909
REMARK  Name = 
REMARK  4 active torsions:
REMARK  status: ('A' for Active; 'I' for Inactive)
REMARK    1  A    between atoms: C_1  and  N_2
REMARK    2  A    between atoms: C_3  and  C_4
REMARK    3  A    between atoms: C_4  and  N_5
REMARK    4  A    between atoms: C_8  and  C_9
REMARK                            x       y       z     vdW  Elec       q    Type
REMARK                         _______ _______ _______ _____ _____    ______ ____
ROOT
ATOM      1  N   UNL     1       0.769   8.731  20.739  0.00  0.00    +0.000 NA
ATOM      2  C   UNL     1       0.576   9.569  21.918  0.00  0.00    +0.000 C 
ATOM      3  C   UNL     1      -0.541  10.615  21.836  0.00  0.00    +0.000 C 
ATOM      4  C   UNL     1      -0.623  11.353  20.497  0.00  0.00    +0.000 C 
ATOM      5  C   UNL     1      -0.571  10.347  19.352  0.00  0.00    +0.000 C 
ATOM      6  C   UNL     1       0.613   9.384  19.439  0.00  0.00    +0.000 C 
ENDROOT
BRANCH   4   7
ATOM      7  C   UNL     1       0.325  12.532  20.346  0.00  0.00    +0.000 A 
ATOM      8  N   UNL     1       1.345  12.746  21.152  0.00  0.00    +0.000 NA
ATOM      9  C   UNL     1       2.159  13.756  20.650  0.00  0.00    +0.000 A 
ATOM     10  C   UNL     1       3.373  14.220  21.207  0.00  0.00    +0.000 A 
ATOM     11  C   UNL     1       4.125  15.192  20.529  0.00  0.00    +0.000 A 
ATOM     12  C   UNL     1       3.685  15.702  19.311  0.00  0.00    +0.000 A 
ATOM     13  C   UNL     1       2.472  15.285  18.762  0.00  0.00    +0.000 A 
ATOM     14  C   UNL     1       1.724  14.324  19.458  0.00  0.00    +0.000 A 
ATOM     15  S   UNL     1       0.202  13.655  19.048  0.00  0.00    +0.000 S 
ENDBRANCH   4   7
BRANCH   1  16
ATOM     16  C   UNL     1       2.011   7.911  20.785  0.00  0.00    +0.000 C 
BRANCH  16  19
ATOM     17  C   UNL     1       3.239   6.912  18.079  0.00  0.00    +0.000 C 
ATOM     18  N   UNL     1       2.473   6.117  19.011  0.00  0.00    +0.000 N 
ATOM     19  C   UNL     1       1.929   6.501  20.223  0.00  0.00    +0.000 A 
ATOM     20  N   UNL     1       1.382   5.455  20.822  0.00  0.00    +0.000 NA
ATOM     21  C   UNL     1       1.514   4.396  19.950  0.00  0.00    +0.000 A 
ATOM     22  C   UNL     1       1.108   3.056  20.070  0.00  0.00    +0.000 A 
ATOM     23  C   UNL     1       1.323   2.176  18.999  0.00  0.00    +0.000 A 
ATOM     24  C   UNL     1       1.954   2.613  17.830  0.00  0.00    +0.000 A 
ATOM     25  C   UNL     1       2.394   3.934  17.706  0.00  0.00    +0.000 A 
ATOM     26  C   UNL     1       2.161   4.798  18.787  0.00  0.00    +0.000 A 
ENDBRANCH  16  19
ENDBRANCH   1  16
TORSDOF 3
ENDMDL
MODEL 8
REMARK VINA RESULT:      -7.2      7.613     12.314
REMARK  Name = 
REMARK  4 active torsions:
REMARK  status: ('A' for Active; 'I' for Inactive)
REMARK    1  A    between atoms: C_1  and  N_2
REMARK    2  A    between atoms: C_3  and  C_4
REMARK    3  A    between atoms: C_4  and  N_5
REMARK    4  A    between atoms: C_8  and  C_9
REMARK                            x       y       z     vdW  Elec       q    Type
REMARK                         _______ _______ _______ _____ _____    ______ ____
ROOT
ATOM      1  N   UNL     1      -6.160  11.680  17.826  0.00  0.00    +0.000 NA
ATOM      2  C   UNL     1      -6.174  10.664  18.873  0.00  0.00    +0.000 C 
ATOM      3  C   UNL     1      -7.270  10.796  19.936  0.00  0.00    +0.000 C 
ATOM      4  C   UNL     1      -7.517  12.227  20.420  0.00  0.00    +0.000 C 
ATOM      5  C   UNL     1      -7.643  13.160  19.219  0.00  0.00    +0.000 C 
ATOM      6  C   UNL     1      -6.478  13.048  18.235  0.00  0.00    +0.000 C 
ENDROOT
BRANCH   4   7
ATOM      7  C   UNL     1      -6.575  12.719  21.506  0.00  0.00    +0.000 A 
ATOM      8  N   UNL     1      -5.399  12.174  21.741  0.00  0.00    +0.000 NA
ATOM      9  C   UNL     1      -4.668  12.958  22.630  0.00  0.00    +0.000 A 
ATOM     10  C   UNL     1      -3.345  12.726  23.071  0.00  0.00    +0.000 A 
ATOM     11  C   UNL     1      -2.714  13.662  23.905  0.00  0.00    +0.000 A 
ATOM     12  C   UNL     1      -3.382  14.817  24.301  0.00  0.00    +0.000 A 
ATOM     13  C   UNL     1      -4.701  15.046  23.907  0.00  0.00    +0.000 A 
ATOM     14  C   UNL     1      -5.323  14.095  23.085  0.00  0.00    +0.000 A 
ATOM     15  S   UNL     1      -6.925  14.095  22.478  0.00  0.00    +0.000 S 
ENDBRANCH   4   7
BRANCH   1  16
ATOM     16  C   UNL     1      -4.941  11.642  16.972  0.00  0.00    +0.000 C 
BRANCH  16  19
ATOM     17  C   UNL     1      -2.527   9.960  15.890  0.00  0.00    +0.000 C 
ATOM     18  N   UNL     1      -2.585  10.645  17.160  0.00  0.00    +0.000 N 
ATOM     19  C   UNL     1      -3.612  11.415  17.674  0.00  0.00    +0.000 A 
ATOM     20  N   UNL     1      -3.240  11.949  18.827  0.00  0.00    +0.000 NA
ATOM     21  C   UNL     1      -1.980  11.458  19.093  0.00  0.00    +0.000 A 
ATOM     22  C   UNL     1      -1.119  11.687  20.179  0.00  0.00    +0.000 A 
ATOM     23  C   UNL     1       0.111  11.015  20.233  0.00  0.00    +0.000 A 
ATOM     24  C   UNL     1       0.495  10.142  19.210  0.00  0.00    +0.000 A 
ATOM     25  C   UNL     1      -0.335   9.927  18.106  0.00  0.00    +0.000 A 
ATOM     26  C   UNL     1      -1.564  10.604  18.077  0.00  0.00    +0.000 A 
ENDBRANCH  16  19
ENDBRANCH   1  16
TORSDOF 3
ENDMDL
MODEL 9
REMARK VINA RESULT:      -7.2      3.462      8.884
REMARK  Name = 
REMARK  4 active torsions:
REMARK  status: ('A' for Active; 'I' for Inactive)
REMARK    1  A    between atoms: C_1  and  N_2
REMARK    2  A    between atoms: C_3  and  C_4
REMARK    3  A    between atoms: C_4  and  N_5
REMARK    4  A    between atoms: C_8  and  C_9
REMARK                            x       y       z     vdW  Elec       q    Type
REMARK                         _______ _______ _______ _____ _____    ______ ____
ROOT
ATOM      1  N   UNL     1       1.382   8.545  19.047  0.00  0.00    +0.000 NA
ATOM      2  C   UNL     1       1.459   8.962  20.443  0.00  0.00    +0.000 C 
ATOM      3  C   UNL     1       0.320   9.851  20.953  0.00  0.00    +0.000 C 
ATOM      4  C   UNL     1      -0.121  10.943  19.974  0.00  0.00    +0.000 C 
ATOM      5  C   UNL     1      -0.320  10.339  18.588  0.00  0.00    +0.000 C 
ATOM      6  C   UNL     1       0.882   9.536  18.093  0.00  0.00    +0.000 C 
ENDROOT
BRANCH   4   7
ATOM      7  C   UNL     1       0.715  12.212  19.996  0.00  0.00    +0.000 A 
ATOM      8  N   UNL     1       1.593  12.481  20.941  0.00  0.00    +0.000 NA
ATOM      9  C   UNL     1       2.360  13.588  20.592  0.00  0.00    +0.000 A 
ATOM     10  C   UNL     1       3.437  14.137  21.326  0.00  0.00    +0.000 A 
ATOM     11  C   UNL     1       4.170  15.209  20.792  0.00  0.00    +0.000 A 
ATOM     12  C   UNL     1       3.844  15.735  19.545  0.00  0.00    +0.000 A 
ATOM     13  C   UNL     1       2.763  15.233  18.822  0.00  0.00    +0.000 A 
ATOM     14  C   UNL     1       2.030  14.171  19.374  0.00  0.00    +0.000 A 
ATOM     15  S   UNL     1       0.651  13.382  18.736  0.00  0.00    +0.000 S 
ENDBRANCH   4   7
BRANCH   1  16
ATOM     16  C   UNL     1       2.625   7.895  18.548  0.00  0.00    +0.000 C 
BRANCH  16  19
ATOM     17  C   UNL     1       4.564   6.058  16.907  0.00  0.00    +0.000 C 
ATOM     18  N   UNL     1       3.536   5.610  17.819  0.00  0.00    +0.000 N 
ATOM     19  C   UNL     1       2.672   6.376  18.579  0.00  0.00    +0.000 A 
ATOM     20  N   UNL     1       1.944   5.591  19.358  0.00  0.00    +0.000 NA
ATOM     21  C   UNL     1       2.295   4.297  19.042  0.00  0.00    +0.000 A 
ATOM     22  C   UNL     1       1.834   3.072  19.553  0.00  0.00    +0.000 A 
ATOM     23  C   UNL     1       2.329   1.875  19.016  0.00  0.00    +0.000 A 
ATOM     24  C   UNL     1       3.287   1.890  17.998  0.00  0.00    +0.000 A 
ATOM     25  C   UNL     1       3.782   3.099  17.500  0.00  0.00    +0.000 A 
ATOM     26  C   UNL     1       3.267   4.283  18.047  0.00  0.00    +0.000 A 
ENDBRANCH  16  19
ENDBRANCH   1  16
TORSDOF 3
ENDMDL
