MODEL 1
REMARK VINA RESULT:     -10.1      0.000      0.000
REMARK  Name = 
REMARK  6 active torsions:
REMARK  status: ('A' for Active; 'I' for Inactive)
REMARK    1  A    between atoms: C_5  and  C_6
REMARK    2  A    between atoms: N_8  and  C_9
REMARK    3  A    between atoms: C_9  and  C_10
REMARK    4  A    between atoms: C_10  and  C_11
REMARK    5  A    between atoms: C_17  and  C_18
REMARK    6  A    between atoms: C_20  and  C_21
REMARK                            x       y       z     vdW  Elec       q    Type
REMARK                         _______ _______ _______ _____ _____    ______ ____
ROOT
ATOM      1  C   UNL     1       3.353   4.909  17.483  0.00  0.00    +0.000 C 
ATOM      2  C   UNL     1       4.349   3.937  16.819  0.00  0.00    +0.000 C 
ATOM      3  N   UNL     1       5.056   4.541  15.675  0.00  0.00    +0.000 NA
ATOM      4  C   UNL     1       5.821   5.717  16.128  0.00  0.00    +0.000 C 
ATOM      5  C   UNL     1       4.885   6.784  16.685  0.00  0.00    +0.000 C 
ATOM      6  C   UNL     1       4.032   6.251  17.844  0.00  0.00    +0.000 C 
ENDROOT
BRANCH   1  11
ATOM      7  F   UNL     1       0.979   2.433  21.989  0.00  0.00    +0.000 F 
ATOM      8  C   UNL     1       1.536   3.020  20.923  0.00  0.00    +0.000 A 
ATOM      9  C   UNL     1       0.744   3.336  19.826  0.00  0.00    +0.000 A 
ATOM     10  C   UNL     1       1.324   3.944  18.712  0.00  0.00    +0.000 A 
ATOM     11  C   UNL     1       2.699   4.246  18.694  0.00  0.00    +0.000 A 
ATOM     12  C   UNL     1       3.477   3.915  19.815  0.00  0.00    +0.000 A 
ATOM     13  C   UNL     1       2.895   3.304  20.926  0.00  0.00    +0.000 A 
ENDBRANCH   1  11
BRANCH   6  14
ATOM     14  C   UNL     1       3.024   7.281  18.269  0.00  0.00    +0.000 A 
ATOM     15  C   UNL     1       2.395   7.487  19.475  0.00  0.00    +0.000 A 
ATOM     16  C   UNL     1       1.558   8.617  19.286  0.00  0.00    +0.000 A 
ATOM     17  N   UNL     1       1.654   9.070  18.027  0.00  0.00    +0.000 NA
ATOM     18  N   UNL     1       2.523   8.240  17.435  0.00  0.00    +0.000 N 
ATOM     19  H   UNL     1       2.740   8.397  16.456  0.00  0.00    +0.000 HD
BRANCH  16  20
ATOM     20  C   UNL     1       0.718   9.275  20.285  0.00  0.00    +0.000 A 
ATOM     21  C   UNL     1      -0.047  10.396  19.939  0.00  0.00    +0.000 A 
ATOM     22  C   UNL     1      -0.797  11.073  20.903  0.00  0.00    +0.000 A 
ATOM     23  C   UNL     1      -0.794  10.622  22.221  0.00  0.00    +0.000 A 
ATOM     24 CL   UNL     1      -1.694  11.468  23.417  0.00  0.00    +0.000 Cl
ATOM     25  C   UNL     1      -0.058   9.494  22.576  0.00  0.00    +0.000 A 
ATOM     26  C   UNL     1       0.695   8.821  21.613  0.00  0.00    +0.000 A 
ENDBRANCH  16  20
ENDBRANCH   6  14
BRANCH   3  27
ATOM     27  C   UNL     1       5.970   3.573  15.030  0.00  0.00    +0.000 C 
BRANCH  27  28
ATOM     28  C   UNL     1       6.797   4.189  13.902  0.00  0.00    +0.000 C 
BRANCH  28  29
ATOM     29  C   UNL     1       6.336   3.714  12.541  0.00  0.00    +0.000 C 
ATOM     30  F   UNL     1       6.890   4.411  11.527  0.00  0.00    +0.000 F 
ATOM     31  F   UNL     1       6.661   2.413  12.361  0.00  0.00    +0.000 F 
ATOM     32  F   UNL     1       4.993   3.814  12.426  0.00  0.00    +0.000 F 
ENDBRANCH  28  29
ENDBRANCH  27  28
ENDBRANCH   3  27
TORSDOF 6
ENDMDL
MODEL 2
REMARK VINA RESULT:     -10.0      0.085      1.403
REMARK  Name = 
REMARK  6 active torsions:
REMARK  status: ('A' for Active; 'I' for Inactive)
REMARK    1  A    between atoms: C_5  and  C_6
REMARK    2  A    between atoms: N_8  and  C_9
REMARK    3  A    between atoms: C_9  and  C_10
REMARK    4  A    between atoms: C_10  and  C_11
REMARK    5  A    between atoms: C_17  and  C_18
REMARK    6  A    between atoms: C_20  and  C_21
REMARK                            x       y       z     vdW  Elec       q    Type
REMARK                         _______ _______ _______ _____ _____    ______ ____
ROOT
ATOM      1  C   UNL     1       3.345   4.902  17.503  0.00  0.00    +0.000 C 
ATOM      2  C   UNL     1       4.340   3.931  16.838  0.00  0.00    +0.000 C 
ATOM      3  N   UNL     1       5.042   4.534  15.690  0.00  0.00    +0.000 NA
ATOM      4  C   UNL     1       5.805   5.713  16.139  0.00  0.00    +0.000 C 
ATOM      5  C   UNL     1       4.870   6.779  16.697  0.00  0.00    +0.000 C 
ATOM      6  C   UNL     1       4.021   6.246  17.859  0.00  0.00    +0.000 C 
ENDROOT
BRANCH   1  11
ATOM      7  F   UNL     1       0.885   2.459  21.982  0.00  0.00    +0.000 F 
ATOM      8  C   UNL     1       1.470   3.035  20.924  0.00  0.00    +0.000 A 
ATOM      9  C   UNL     1       2.821   3.353  20.982  0.00  0.00    +0.000 A 
ATOM     10  C   UNL     1       3.432   3.957  19.882  0.00  0.00    +0.000 A 
ATOM     11  C   UNL     1       2.695   4.239  18.717  0.00  0.00    +0.000 A 
ATOM     12  C   UNL     1       1.331   3.908  18.685  0.00  0.00    +0.000 A 
ATOM     13  C   UNL     1       0.721   3.308  19.788  0.00  0.00    +0.000 A 
ENDBRANCH   1  11
BRANCH   6  14
ATOM     14  C   UNL     1       3.013   7.274  18.287  0.00  0.00    +0.000 A 
ATOM     15  C   UNL     1       2.452   7.536  19.515  0.00  0.00    +0.000 A 
ATOM     16  C   UNL     1       1.574   8.631  19.313  0.00  0.00    +0.000 A 
ATOM     17  N   UNL     1       1.580   9.011  18.026  0.00  0.00    +0.000 NA
ATOM     18  N   UNL     1       2.435   8.169  17.431  0.00  0.00    +0.000 N 
ATOM     19  H   UNL     1       2.588   8.273  16.433  0.00  0.00    +0.000 HD
BRANCH  16  20
ATOM     20  C   UNL     1       0.778   9.327  20.323  0.00  0.00    +0.000 A 
ATOM     21  C   UNL     1       0.649   8.794  21.613  0.00  0.00    +0.000 A 
ATOM     22  C   UNL     1      -0.166   9.415  22.563  0.00  0.00    +0.000 A 
ATOM     23  C   UNL     1      -0.849  10.582  22.228  0.00  0.00    +0.000 A 
ATOM     24 CL   UNL     1      -1.874  11.334  23.385  0.00  0.00    +0.000 Cl
ATOM     25  C   UNL     1      -0.712  11.137  20.958  0.00  0.00    +0.000 A 
ATOM     26  C   UNL     1       0.099  10.514  20.008  0.00  0.00    +0.000 A 
ENDBRANCH  16  20
ENDBRANCH   6  14
BRANCH   3  27
ATOM     27  C   UNL     1       5.956   3.567  15.044  0.00  0.00    +0.000 C 
BRANCH  27  28
ATOM     28  C   UNL     1       6.763   4.178  13.898  0.00  0.00    +0.000 C 
BRANCH  28  29
ATOM     29  C   UNL     1       6.300   3.670  12.550  0.00  0.00    +0.000 C 
ATOM     30  F   UNL     1       6.615   2.374  12.341  0.00  0.00    +0.000 F 
ATOM     31  F   UNL     1       4.956   3.782  12.441  0.00  0.00    +0.000 F 
ATOM     32  F   UNL     1       6.848   4.394  11.549  0.00  0.00    +0.000 F 
ENDBRANCH  28  29
ENDBRANCH  27  28
ENDBRANCH   3  27
TORSDOF 6
ENDMDL
MODEL 3
REMARK VINA RESULT:      -9.3      1.664      1.986
REMARK  Name = 
REMARK  6 active torsions:
REMARK  status: ('A' for Active; 'I' for Inactive)
REMARK    1  A    between atoms: C_5  and  C_6
REMARK    2  A    between atoms: N_8  and  C_9
REMARK    3  A    between atoms: C_9  and  C_10
REMARK    4  A    between atoms: C_10  and  C_11
REMARK    5  A    between atoms: C_17  and  C_18
REMARK    6  A    between atoms: C_20  and  C_21
REMARK                            x       y       z     vdW  Elec       q    Type
REMARK                         _______ _______ _______ _____ _____    ______ ____
ROOT
ATOM      1  C   UNL     1       3.915   5.061  16.836  0.00  0.00    +0.000 C 
ATOM      2  C   UNL     1       4.996   4.424  15.941  0.00  0.00    +0.000 C 
ATOM      3  N   UNL     1       5.824   5.429  15.248  0.00  0.00    +0.000 NA
ATOM      4  C   UNL     1       6.511   6.276  16.239  0.00  0.00    +0.000 C 
ATOM      5  C   UNL     1       5.500   7.042  17.085  0.00  0.00    +0.000 C 
ATOM      6  C   UNL     1       4.525   6.100  17.805  0.00  0.00    +0.000 C 
ENDROOT
BRANCH   1  11
ATOM      7  F   UNL     1       1.060   0.990  19.547  0.00  0.00    +0.000 F 
ATOM      8  C   UNL     1       1.732   1.955  18.907  0.00  0.00    +0.000 A 
ATOM      9  C   UNL     1       1.042   3.058  18.422  0.00  0.00    +0.000 A 
ATOM     10  C   UNL     1       1.740   4.063  17.750  0.00  0.00    +0.000 A 
ATOM     11  C   UNL     1       3.133   3.972  17.569  0.00  0.00    +0.000 A 
ATOM     12  C   UNL     1       3.805   2.846  18.070  0.00  0.00    +0.000 A 
ATOM     13  C   UNL     1       3.105   1.840  18.737  0.00  0.00    +0.000 A 
ENDBRANCH   1  11
BRANCH   6  14
ATOM     14  C   UNL     1       3.458   6.890  18.509  0.00  0.00    +0.000 A 
ATOM     15  C   UNL     1       2.715   7.972  18.099  0.00  0.00    +0.000 A 
ATOM     16  C   UNL     1       1.854   8.281  19.184  0.00  0.00    +0.000 A 
ATOM     17  N   UNL     1       2.069   7.445  20.211  0.00  0.00    +0.000 NA
ATOM     18  N   UNL     1       3.048   6.636  19.788  0.00  0.00    +0.000 N 
ATOM     19  H   UNL     1       3.381   5.917  20.423  0.00  0.00    +0.000 HD
BRANCH  16  20
ATOM     20  C   UNL     1       0.824   9.318  19.230  0.00  0.00    +0.000 A 
ATOM     21  C   UNL     1       0.483   9.923  20.448  0.00  0.00    +0.000 A 
ATOM     22  C   UNL     1      -0.548  10.863  20.512  0.00  0.00    +0.000 A 
ATOM     23  C   UNL     1      -1.236  11.213  19.353  0.00  0.00    +0.000 A 
ATOM     24 CL   UNL     1      -2.523  12.351  19.432  0.00  0.00    +0.000 Cl
ATOM     25  C   UNL     1      -0.892  10.640  18.131  0.00  0.00    +0.000 A 
ATOM     26  C   UNL     1       0.135   9.696  18.068  0.00  0.00    +0.000 A 
ENDBRANCH  16  20
ENDBRANCH   6  14
BRANCH   3  27
ATOM     27  C   UNL     1       6.823   4.791  14.362  0.00  0.00    +0.000 C 
BRANCH  27  28
ATOM     28  C   UNL     1       6.306   3.517  13.695  0.00  0.00    +0.000 C 
BRANCH  28  29
ATOM     29  C   UNL     1       6.443   3.574  12.189  0.00  0.00    +0.000 C 
ATOM     30  F   UNL     1       7.198   4.611  11.769  0.00  0.00    +0.000 F 
ATOM     31  F   UNL     1       7.020   2.441  11.725  0.00  0.00    +0.000 F 
ATOM     32  F   UNL     1       5.232   3.680  11.599  0.00  0.00    +0.000 F 
ENDBRANCH  28  29
ENDBRANCH  27  28
ENDBRANCH   3  27
TORSDOF 6
ENDMDL
MODEL 4
REMARK VINA RESULT:      -9.3      1.651      2.229
REMARK  Name = 
REMARK  6 active torsions:
REMARK  status: ('A' for Active; 'I' for Inactive)
REMARK    1  A    between atoms: C_5  and  C_6
REMARK    2  A    between atoms: N_8  and  C_9
REMARK    3  A    between atoms: C_9  and  C_10
REMARK    4  A    between atoms: C_10  and  C_11
REMARK    5  A    between atoms: C_17  and  C_18
REMARK    6  A    between atoms: C_20  and  C_21
REMARK                            x       y       z     vdW  Elec       q    Type
REMARK                         _______ _______ _______ _____ _____    ______ ____
ROOT
ATOM      1  C   UNL     1       3.955   5.092  16.826  0.00  0.00    +0.000 C 
ATOM      2  C   UNL     1       5.035   4.469  15.919  0.00  0.00    +0.000 C 
ATOM      3  N   UNL     1       5.853   5.484  15.231  0.00  0.00    +0.000 NA
ATOM      4  C   UNL     1       6.542   6.326  16.225  0.00  0.00    +0.000 C 
ATOM      5  C   UNL     1       5.532   7.078  17.085  0.00  0.00    +0.000 C 
ATOM      6  C   UNL     1       4.566   6.126  17.801  0.00  0.00    +0.000 C 
ENDROOT
BRANCH   1  11
ATOM      7  F   UNL     1       1.048   1.054  19.532  0.00  0.00    +0.000 F 
ATOM      8  C   UNL     1       1.738   2.006  18.891  0.00  0.00    +0.000 A 
ATOM      9  C   UNL     1       3.113   1.872  18.750  0.00  0.00    +0.000 A 
ATOM     10  C   UNL     1       3.836   2.865  18.086  0.00  0.00    +0.000 A 
ATOM     11  C   UNL     1       3.183   3.993  17.554  0.00  0.00    +0.000 A 
ATOM     12  C   UNL     1       1.792   4.104  17.711  0.00  0.00    +0.000 A 
ATOM     13  C   UNL     1       1.073   3.111  18.379  0.00  0.00    +0.000 A 
ENDBRANCH   1  11
BRANCH   6  14
ATOM     14  C   UNL     1       3.499   6.903  18.519  0.00  0.00    +0.000 A 
ATOM     15  C   UNL     1       2.749   7.985  18.124  0.00  0.00    +0.000 A 
ATOM     16  C   UNL     1       1.892   8.280  19.216  0.00  0.00    +0.000 A 
ATOM     17  N   UNL     1       2.117   7.435  20.234  0.00  0.00    +0.000 NA
ATOM     18  N   UNL     1       3.097   6.635  19.797  0.00  0.00    +0.000 N 
ATOM     19  H   UNL     1       3.437   5.911  20.424  0.00  0.00    +0.000 HD
BRANCH  16  20
ATOM     20  C   UNL     1       0.858   9.311  19.278  0.00  0.00    +0.000 A 
ATOM     21  C   UNL     1       0.469   9.851  20.512  0.00  0.00    +0.000 A 
ATOM     22  C   UNL     1      -0.567  10.785  20.587  0.00  0.00    +0.000 A 
ATOM     23  C   UNL     1      -1.212  11.194  19.422  0.00  0.00    +0.000 A 
ATOM     24 CL   UNL     1      -2.505  12.324  19.513  0.00  0.00    +0.000 Cl
ATOM     25  C   UNL     1      -0.821  10.686  18.186  0.00  0.00    +0.000 A 
ATOM     26  C   UNL     1       0.210   9.749  18.112  0.00  0.00    +0.000 A 
ENDBRANCH  16  20
ENDBRANCH   6  14
BRANCH   3  27
ATOM     27  C   UNL     1       6.850   4.860  14.333  0.00  0.00    +0.000 C 
BRANCH  27  28
ATOM     28  C   UNL     1       6.373   3.537  13.734  0.00  0.00    +0.000 C 
BRANCH  28  29
ATOM     29  C   UNL     1       6.436   3.549  12.222  0.00  0.00    +0.000 C 
ATOM     30  F   UNL     1       5.225   3.710  11.648  0.00  0.00    +0.000 F 
ATOM     31  F   UNL     1       7.226   4.559  11.790  0.00  0.00    +0.000 F 
ATOM     32  F   UNL     1       6.963   2.396  11.753  0.00  0.00    +0.000 F 
ENDBRANCH  28  29
ENDBRANCH  27  28
ENDBRANCH   3  27
TORSDOF 6
ENDMDL
MODEL 5
REMARK VINA RESULT:      -9.2      1.425      1.992
REMARK  Name = 
REMARK  6 active torsions:
REMARK  status: ('A' for Active; 'I' for Inactive)
REMARK    1  A    between atoms: C_5  and  C_6
REMARK    2  A    between atoms: N_8  and  C_9
REMARK    3  A    between atoms: C_9  and  C_10
REMARK    4  A    between atoms: C_10  and  C_11
REMARK    5  A    between atoms: C_17  and  C_18
REMARK    6  A    between atoms: C_20  and  C_21
REMARK                            x       y       z     vdW  Elec       q    Type
REMARK                         _______ _______ _______ _____ _____    ______ ____
ROOT
ATOM      1  C   UNL     1       3.321   4.760  17.749  0.00  0.00    +0.000 C 
ATOM      2  C   UNL     1       4.292   3.882  16.936  0.00  0.00    +0.000 C 
ATOM      3  N   UNL     1       4.887   4.599  15.794  0.00  0.00    +0.000 NA
ATOM      4  C   UNL     1       5.645   5.766  16.280  0.00  0.00    +0.000 C 
ATOM      5  C   UNL     1       4.723   6.749  16.990  0.00  0.00    +0.000 C 
ATOM      6  C   UNL     1       3.982   6.096  18.164  0.00  0.00    +0.000 C 
ENDROOT
BRANCH   1  11
ATOM      7  F   UNL     1       1.286   1.893  22.190  0.00  0.00    +0.000 F 
ATOM      8  C   UNL     1       1.771   2.568  21.140  0.00  0.00    +0.000 A 
ATOM      9  C   UNL     1       3.145   2.662  20.966  0.00  0.00    +0.000 A 
ATOM     10  C   UNL     1       3.653   3.369  19.875  0.00  0.00    +0.000 A 
ATOM     11  C   UNL     1       2.786   3.979  18.949  0.00  0.00    +0.000 A 
ATOM     12  C   UNL     1       1.400   3.870  19.149  0.00  0.00    +0.000 A 
ATOM     13  C   UNL     1       0.896   3.166  20.243  0.00  0.00    +0.000 A 
ENDBRANCH   1  11
BRANCH   6  14
ATOM     14  C   UNL     1       2.977   7.049  18.747  0.00  0.00    +0.000 A 
ATOM     15  C   UNL     1       2.168   7.987  18.149  0.00  0.00    +0.000 A 
ATOM     16  C   UNL     1       1.421   8.578  19.201  0.00  0.00    +0.000 A 
ATOM     17  N   UNL     1       1.765   8.044  20.383  0.00  0.00    +0.000 NA
ATOM     18  N   UNL     1       2.712   7.146  20.084  0.00  0.00    +0.000 N 
ATOM     19  H   UNL     1       3.128   6.621  20.846  0.00  0.00    +0.000 HD
BRANCH  16  20
ATOM     20  C   UNL     1       0.377   9.595  19.083  0.00  0.00    +0.000 A 
ATOM     21  C   UNL     1       0.117  10.468  20.148  0.00  0.00    +0.000 A 
ATOM     22  C   UNL     1      -0.924  11.396  20.072  0.00  0.00    +0.000 A 
ATOM     23  C   UNL     1      -1.705  11.463  18.920  0.00  0.00    +0.000 A 
ATOM     24 CL   UNL     1      -3.004  12.585  18.831  0.00  0.00    +0.000 Cl
ATOM     25  C   UNL     1      -1.443  10.619  17.843  0.00  0.00    +0.000 A 
ATOM     26  C   UNL     1      -0.406   9.688  17.923  0.00  0.00    +0.000 A 
ENDBRANCH  16  20
ENDBRANCH   6  14
BRANCH   3  27
ATOM     27  C   UNL     1       5.778   3.721  15.005  0.00  0.00    +0.000 C 
BRANCH  27  28
ATOM     28  C   UNL     1       6.528   4.464  13.899  0.00  0.00    +0.000 C 
BRANCH  28  29
ATOM     29  C   UNL     1       6.322   3.817  12.547  0.00  0.00    +0.000 C 
ATOM     30  F   UNL     1       7.018   4.425  11.563  0.00  0.00    +0.000 F 
ATOM     31  F   UNL     1       6.714   2.523  12.578  0.00  0.00    +0.000 F 
ATOM     32  F   UNL     1       5.016   3.835  12.198  0.00  0.00    +0.000 F 
ENDBRANCH  28  29
ENDBRANCH  27  28
ENDBRANCH   3  27
TORSDOF 6
ENDMDL
MODEL 6
REMARK VINA RESULT:      -9.2      1.427      1.920
REMARK  Name = 
REMARK  6 active torsions:
REMARK  status: ('A' for Active; 'I' for Inactive)
REMARK    1  A    between atoms: C_5  and  C_6
REMARK    2  A    between atoms: N_8  and  C_9
REMARK    3  A    between atoms: C_9  and  C_10
REMARK    4  A    between atoms: C_10  and  C_11
REMARK    5  A    between atoms: C_17  and  C_18
REMARK    6  A    between atoms: C_20  and  C_21
REMARK                            x       y       z     vdW  Elec       q    Type
REMARK                         _______ _______ _______ _____ _____    ______ ____
ROOT
ATOM      1  C   UNL     1       3.324   4.749  17.742  0.00  0.00    +0.000 C 
ATOM      2  C   UNL     1       4.289   3.869  16.925  0.00  0.00    +0.000 C 
ATOM      3  N   UNL     1       4.877   4.583  15.777  0.00  0.00    +0.000 NA
ATOM      4  C   UNL     1       5.639   5.751  16.254  0.00  0.00    +0.000 C 
ATOM      5  C   UNL     1       4.721   6.737  16.968  0.00  0.00    +0.000 C 
ATOM      6  C   UNL     1       3.988   6.086  18.149  0.00  0.00    +0.000 C 
ENDROOT
BRANCH   1  11
ATOM      7  F   UNL     1       1.421   1.843  22.215  0.00  0.00    +0.000 F 
ATOM      8  C   UNL     1       1.868   2.533  21.158  0.00  0.00    +0.000 A 
ATOM      9  C   UNL     1       0.955   3.148  20.311  0.00  0.00    +0.000 A 
ATOM     10  C   UNL     1       1.417   3.863  19.206  0.00  0.00    +0.000 A 
ATOM     11  C   UNL     1       2.797   3.973  18.948  0.00  0.00    +0.000 A 
ATOM     12  C   UNL     1       3.698   3.340  19.819  0.00  0.00    +0.000 A 
ATOM     13  C   UNL     1       3.233   2.622  20.921  0.00  0.00    +0.000 A 
ENDBRANCH   1  11
BRANCH   6  14
ATOM     14  C   UNL     1       2.987   7.041  18.735  0.00  0.00    +0.000 A 
ATOM     15  C   UNL     1       2.184   7.987  18.142  0.00  0.00    +0.000 A 
ATOM     16  C   UNL     1       1.438   8.576  19.196  0.00  0.00    +0.000 A 
ATOM     17  N   UNL     1       1.779   8.034  20.375  0.00  0.00    +0.000 NA
ATOM     18  N   UNL     1       2.722   7.133  20.073  0.00  0.00    +0.000 N 
ATOM     19  H   UNL     1       3.135   6.602  20.833  0.00  0.00    +0.000 HD
BRANCH  16  20
ATOM     20  C   UNL     1       0.400   9.599  19.082  0.00  0.00    +0.000 A 
ATOM     21  C   UNL     1       0.124  10.449  20.161  0.00  0.00    +0.000 A 
ATOM     22  C   UNL     1      -0.914  11.382  20.087  0.00  0.00    +0.000 A 
ATOM     23  C   UNL     1      -1.674  11.476  18.923  0.00  0.00    +0.000 A 
ATOM     24 CL   UNL     1      -2.968  12.605  18.837  0.00  0.00    +0.000 Cl
ATOM     25  C   UNL     1      -1.395  10.655  17.833  0.00  0.00    +0.000 A 
ATOM     26  C   UNL     1      -0.362   9.720  17.910  0.00  0.00    +0.000 A 
ENDBRANCH  16  20
ENDBRANCH   6  14
BRANCH   3  27
ATOM     27  C   UNL     1       5.763   3.702  14.985  0.00  0.00    +0.000 C 
BRANCH  27  28
ATOM     28  C   UNL     1       6.529   4.447  13.892  0.00  0.00    +0.000 C 
BRANCH  28  29
ATOM     29  C   UNL     1       6.316   3.824  12.529  0.00  0.00    +0.000 C 
ATOM     30  F   UNL     1       5.027   3.861  12.132  0.00  0.00    +0.000 F 
ATOM     31  F   UNL     1       7.046   4.475  11.594  0.00  0.00    +0.000 F 
ATOM     32  F   UNL     1       6.712   2.532  12.523  0.00  0.00    +0.000 F 
ENDBRANCH  28  29
ENDBRANCH  27  28
ENDBRANCH   3  27
TORSDOF 6
ENDMDL
MODEL 7
REMARK VINA RESULT:      -8.7      1.363      1.723
REMARK  Name = 
REMARK  6 active torsions:
REMARK  status: ('A' for Active; 'I' for Inactive)
REMARK    1  A    between atoms: C_5  and  C_6
REMARK    2  A    between atoms: N_8  and  C_9
REMARK    3  A    between atoms: C_9  and  C_10
REMARK    4  A    between atoms: C_10  and  C_11
REMARK    5  A    between atoms: C_17  and  C_18
REMARK    6  A    between atoms: C_20  and  C_21
REMARK                            x       y       z     vdW  Elec       q    Type
REMARK                         _______ _______ _______ _____ _____    ______ ____
ROOT
ATOM      1  C   UNL     1       3.198   4.871  17.878  0.00  0.00    +0.000 C 
ATOM      2  C   UNL     1       4.137   4.033  16.988  0.00  0.00    +0.000 C 
ATOM      3  N   UNL     1       4.701   4.808  15.868  0.00  0.00    +0.000 NA
ATOM      4  C   UNL     1       5.484   5.942  16.394  0.00  0.00    +0.000 C 
ATOM      5  C   UNL     1       4.592   6.890  17.186  0.00  0.00    +0.000 C 
ATOM      6  C   UNL     1       3.882   6.178  18.345  0.00  0.00    +0.000 C 
ENDROOT
BRANCH   1  11
ATOM      7  F   UNL     1       1.384   1.728  22.226  0.00  0.00    +0.000 F 
ATOM      8  C   UNL     1       1.809   2.473  21.198  0.00  0.00    +0.000 A 
ATOM      9  C   UNL     1       0.880   3.032  20.331  0.00  0.00    +0.000 A 
ATOM     10  C   UNL     1       1.321   3.805  19.256  0.00  0.00    +0.000 A 
ATOM     11  C   UNL     1       2.695   4.029  19.050  0.00  0.00    +0.000 A 
ATOM     12  C   UNL     1       3.614   3.452  19.941  0.00  0.00    +0.000 A 
ATOM     13  C   UNL     1       3.170   2.676  21.013  0.00  0.00    +0.000 A 
ENDBRANCH   1  11
BRANCH   6  14
ATOM     14  C   UNL     1       2.904   7.104  19.010  0.00  0.00    +0.000 A 
ATOM     15  C   UNL     1       2.194   8.174  18.518  0.00  0.00    +0.000 A 
ATOM     16  C   UNL     1       1.420   8.656  19.605  0.00  0.00    +0.000 A 
ATOM     17  N   UNL     1       1.656   7.932  20.710  0.00  0.00    +0.000 NA
ATOM     18  N   UNL     1       2.563   7.023  20.331  0.00  0.00    +0.000 N 
ATOM     19  H   UNL     1       2.898   6.364  21.027  0.00  0.00    +0.000 HD
BRANCH  16  20
ATOM     20  C   UNL     1       0.451   9.750  19.587  0.00  0.00    +0.000 A 
ATOM     21  C   UNL     1      -0.089  10.198  18.374  0.00  0.00    +0.000 A 
ATOM     22  C   UNL     1      -0.961  11.288  18.340  0.00  0.00    +0.000 A 
ATOM     23  C   UNL     1      -1.307  11.931  19.526  0.00  0.00    +0.000 A 
ATOM     24 CL   UNL     1      -2.360  13.290  19.487  0.00  0.00    +0.000 Cl
ATOM     25  C   UNL     1      -0.799  11.482  20.743  0.00  0.00    +0.000 A 
ATOM     26  C   UNL     1       0.076  10.396  20.775  0.00  0.00    +0.000 A 
ENDBRANCH  16  20
ENDBRANCH   6  14
BRANCH   3  27
ATOM     27  C   UNL     1       5.561   3.969  15.006  0.00  0.00    +0.000 C 
BRANCH  27  28
ATOM     28  C   UNL     1       6.013   4.683  13.732  0.00  0.00    +0.000 C 
BRANCH  28  29
ATOM     29  C   UNL     1       6.094   3.737  12.554  0.00  0.00    +0.000 C 
ATOM     30  F   UNL     1       6.263   2.450  12.925  0.00  0.00    +0.000 F 
ATOM     31  F   UNL     1       4.959   3.800  11.819  0.00  0.00    +0.000 F 
ATOM     32  F   UNL     1       7.121   4.068  11.740  0.00  0.00    +0.000 F 
ENDBRANCH  28  29
ENDBRANCH  27  28
ENDBRANCH   3  27
TORSDOF 6
ENDMDL
MODEL 8
REMARK VINA RESULT:      -8.5      1.535      2.064
REMARK  Name = 
REMARK  6 active torsions:
REMARK  status: ('A' for Active; 'I' for Inactive)
REMARK    1  A    between atoms: C_5  and  C_6
REMARK    2  A    between atoms: N_8  and  C_9
REMARK    3  A    between atoms: C_9  and  C_10
REMARK    4  A    between atoms: C_10  and  C_11
REMARK    5  A    between atoms: C_17  and  C_18
REMARK    6  A    between atoms: C_20  and  C_21
REMARK                            x       y       z     vdW  Elec       q    Type
REMARK                         _______ _______ _______ _____ _____    ______ ____
ROOT
ATOM      1  C   UNL     1       3.341   4.771  17.647  0.00  0.00    +0.000 C 
ATOM      2  C   UNL     1       4.231   3.848  16.792  0.00  0.00    +0.000 C 
ATOM      3  N   UNL     1       4.844   4.550  15.649  0.00  0.00    +0.000 NA
ATOM      4  C   UNL     1       5.690   5.654  16.138  0.00  0.00    +0.000 C 
ATOM      5  C   UNL     1       4.851   6.680  16.892  0.00  0.00    +0.000 C 
ATOM      6  C   UNL     1       4.098   6.051  18.071  0.00  0.00    +0.000 C 
ENDROOT
BRANCH   1  11
ATOM      7  F   UNL     1       1.228   1.943  22.076  0.00  0.00    +0.000 F 
ATOM      8  C   UNL     1       1.731   2.609  21.030  0.00  0.00    +0.000 A 
ATOM      9  C   UNL     1       3.106   2.769  20.920  0.00  0.00    +0.000 A 
ATOM     10  C   UNL     1       3.633   3.466  19.832  0.00  0.00    +0.000 A 
ATOM     11  C   UNL     1       2.785   4.002  18.845  0.00  0.00    +0.000 A 
ATOM     12  C   UNL     1       1.398   3.827  18.980  0.00  0.00    +0.000 A 
ATOM     13  C   UNL     1       0.874   3.132  20.071  0.00  0.00    +0.000 A 
ENDBRANCH   1  11
BRANCH   6  14
ATOM     14  C   UNL     1       3.173   7.056  18.698  0.00  0.00    +0.000 A 
ATOM     15  C   UNL     1       2.692   8.257  18.232  0.00  0.00    +0.000 A 
ATOM     16  C   UNL     1       1.848   8.758  19.256  0.00  0.00    +0.000 A 
ATOM     17  N   UNL     1       1.826   7.919  20.303  0.00  0.00    +0.000 NA
ATOM     18  N   UNL     1       2.643   6.919  19.950  0.00  0.00    +0.000 N 
ATOM     19  H   UNL     1       2.784   6.162  20.612  0.00  0.00    +0.000 HD
BRANCH  16  20
ATOM     20  C   UNL     1       1.050   9.983  19.227  0.00  0.00    +0.000 A 
ATOM     21  C   UNL     1      -0.286   9.968  19.648  0.00  0.00    +0.000 A 
ATOM     22  C   UNL     1      -1.076  11.117  19.557  0.00  0.00    +0.000 A 
ATOM     23  C   UNL     1      -0.525  12.293  19.053  0.00  0.00    +0.000 A 
ATOM     24 CL   UNL     1      -1.501  13.702  18.915  0.00  0.00    +0.000 Cl
ATOM     25  C   UNL     1       0.809  12.331  18.654  0.00  0.00    +0.000 A 
ATOM     26  C   UNL     1       1.595  11.182  18.741  0.00  0.00    +0.000 A 
ENDBRANCH  16  20
ENDBRANCH   6  14
BRANCH   3  27
ATOM     27  C   UNL     1       5.656   3.632  14.821  0.00  0.00    +0.000 C 
BRANCH  27  28
ATOM     28  C   UNL     1       6.270   4.312  13.597  0.00  0.00    +0.000 C 
BRANCH  28  29
ATOM     29  C   UNL     1       6.084   3.489  12.342  0.00  0.00    +0.000 C 
ATOM     30  F   UNL     1       5.118   3.974  11.534  0.00  0.00    +0.000 F 
ATOM     31  F   UNL     1       7.231   3.456  11.624  0.00  0.00    +0.000 F 
ATOM     32  F   UNL     1       5.762   2.212  12.646  0.00  0.00    +0.000 F 
ENDBRANCH  28  29
ENDBRANCH  27  28
ENDBRANCH   3  27
TORSDOF 6
ENDMDL
MODEL 9
REMARK VINA RESULT:      -8.5      1.809      2.192
REMARK  Name = 
REMARK  6 active torsions:
REMARK  status: ('A' for Active; 'I' for Inactive)
REMARK    1  A    between atoms: C_5  and  C_6
REMARK    2  A    between atoms: N_8  and  C_9
REMARK    3  A    between atoms: C_9  and  C_10
REMARK    4  A    between atoms: C_10  and  C_11
REMARK    5  A    between atoms: C_17  and  C_18
REMARK    6  A    between atoms: C_20  and  C_21
REMARK                            x       y       z     vdW  Elec       q    Type
REMARK                         _______ _______ _______ _____ _____    ______ ____
ROOT
ATOM      1  C   UNL     1       3.591   4.749  17.221  0.00  0.00    +0.000 C 
ATOM      2  C   UNL     1       4.522   3.804  16.436  0.00  0.00    +0.000 C 
ATOM      3  N   UNL     1       5.186   4.473  15.302  0.00  0.00    +0.000 NA
ATOM      4  C   UNL     1       6.006   5.594  15.797  0.00  0.00    +0.000 C 
ATOM      5  C   UNL     1       5.131   6.640  16.479  0.00  0.00    +0.000 C 
ATOM      6  C   UNL     1       4.325   6.044  17.641  0.00  0.00    +0.000 C 
ENDROOT
BRANCH   1  11
ATOM      7  F   UNL     1       1.280   2.047  21.630  0.00  0.00    +0.000 F 
ATOM      8  C   UNL     1       1.830   2.684  20.588  0.00  0.00    +0.000 A 
ATOM      9  C   UNL     1       3.205   2.876  20.556  0.00  0.00    +0.000 A 
ATOM     10  C   UNL     1       3.780   3.544  19.474  0.00  0.00    +0.000 A 
ATOM     11  C   UNL     1       2.982   4.014  18.414  0.00  0.00    +0.000 A 
ATOM     12  C   UNL     1       1.594   3.807  18.472  0.00  0.00    +0.000 A 
ATOM     13  C   UNL     1       1.021   3.143  19.557  0.00  0.00    +0.000 A 
ENDBRANCH   1  11
BRANCH   6  14
ATOM     14  C   UNL     1       3.370   7.064  18.194  0.00  0.00    +0.000 A 
ATOM     15  C   UNL     1       3.026   8.317  17.745  0.00  0.00    +0.000 A 
ATOM     16  C   UNL     1       2.066   8.807  18.668  0.00  0.00    +0.000 A 
ATOM     17  N   UNL     1       1.845   7.910  19.641  0.00  0.00    +0.000 NA
ATOM     18  N   UNL     1       2.654   6.885  19.344  0.00  0.00    +0.000 N 
ATOM     19  H   UNL     1       2.655   6.083  19.966  0.00  0.00    +0.000 HD
BRANCH  16  20
ATOM     20  C   UNL     1       1.345  10.078  18.606  0.00  0.00    +0.000 A 
ATOM     21  C   UNL     1       2.047  11.283  18.468  0.00  0.00    +0.000 A 
ATOM     22  C   UNL     1       1.372  12.506  18.479  0.00  0.00    +0.000 A 
ATOM     23  C   UNL     1      -0.014  12.528  18.617  0.00  0.00    +0.000 A 
ATOM     24 CL   UNL     1      -0.846  14.032  18.658  0.00  0.00    +0.000 Cl
ATOM     25  C   UNL     1      -0.728  11.337  18.730  0.00  0.00    +0.000 A 
ATOM     26  C   UNL     1      -0.053  10.116  18.724  0.00  0.00    +0.000 A 
ENDBRANCH  16  20
ENDBRANCH   6  14
BRANCH   3  27
ATOM     27  C   UNL     1       6.037   3.534  14.541  0.00  0.00    +0.000 C 
BRANCH  27  28
ATOM     28  C   UNL     1       6.293   3.986  13.103  0.00  0.00    +0.000 C 
BRANCH  28  29
ATOM     29  C   UNL     1       5.349   3.319  12.126  0.00  0.00    +0.000 C 
ATOM     30  F   UNL     1       5.239   3.991  10.961  0.00  0.00    +0.000 F 
ATOM     31  F   UNL     1       5.779   2.070  11.833  0.00  0.00    +0.000 F 
ATOM     32  F   UNL     1       4.110   3.206  12.655  0.00  0.00    +0.000 F 
ENDBRANCH  28  29
ENDBRANCH  27  28
ENDBRANCH   3  27
TORSDOF 6
ENDMDL
