MODEL 1
REMARK VINA RESULT:      -6.9      0.000      0.000
REMARK  Name = 
REMARK  5 active torsions:
REMARK  status: ('A' for Active; 'I' for Inactive)
REMARK    1  A    between atoms: C_1  and  C_2
REMARK    2  A    between atoms: C_2  and  C_3
REMARK    3  A    between atoms: C_6  and  N_7
REMARK    4  A    between atoms: C_11  and  C_12
REMARK    5  A    between atoms: C_13  and  N_14
REMARK                            x       y       z     vdW  Elec       q    Type
REMARK                         _______ _______ _______ _____ _____    ______ ____
ROOT
ATOM      1  N   UNL     1       2.895   7.263  18.544  0.00  0.00    +0.000 N 
ATOM      2  N   UNL     1       3.478   6.206  19.149  0.00  0.00    +0.000 NA
ATOM      3  C   UNL     1       4.470   5.902  18.318  0.00  0.00    +0.000 A 
ATOM      4  C   UNL     1       5.542   5.044  18.554  0.00  0.00    +0.000 A 
ATOM      5  C   UNL     1       6.513   5.043  17.535  0.00  0.00    +0.000 A 
ATOM      6  C   UNL     1       7.858   4.462  17.904  0.00  0.00    +0.000 C 
ATOM      7  C   UNL     1       6.275   5.615  16.242  0.00  0.00    +0.000 A 
ATOM      8  C   UNL     1       5.191   6.510  16.008  0.00  0.00    +0.000 A 
ATOM      9  C   UNL     1       4.309   6.668  17.093  0.00  0.00    +0.000 A 
ATOM     10  N   UNL     1       3.258   7.499  17.255  0.00  0.00    +0.000 NA
ENDROOT
BRANCH   1  14
ATOM     11  C   UNL     1       0.265   9.621  20.854  0.00  0.00    +0.000 A 
ATOM     12  C   UNL     1       0.878   8.491  21.399  0.00  0.00    +0.000 A 
ATOM     13  C   UNL     1       1.742   7.728  20.625  0.00  0.00    +0.000 A 
ATOM     14  C   UNL     1       2.008   8.081  19.290  0.00  0.00    +0.000 A 
ATOM     15  C   UNL     1       1.432   9.229  18.745  0.00  0.00    +0.000 A 
ATOM     16  C   UNL     1       0.561   9.994  19.532  0.00  0.00    +0.000 A 
BRANCH  11  18
ATOM     17  C   UNL     1      -0.622  10.014  23.162  0.00  0.00    +0.000 C 
ATOM     18  C   UNL     1      -0.677  10.434  21.702  0.00  0.00    +0.000 C 
ENDBRANCH  11  18
ENDBRANCH   1  14
BRANCH   7  19
ATOM     19  N   UNL     1       7.254   5.479  15.230  0.00  0.00    +0.000 N 
ATOM     20  H   UNL     1       7.309   4.535  14.855  0.00  0.00    +0.000 HD
ATOM     21  H   UNL     1       7.154   6.162  14.483  0.00  0.00    +0.000 HD
ENDBRANCH   7  19
TORSDOF 3
ENDMDL
MODEL 2
REMARK VINA RESULT:      -6.9      0.109      1.116
REMARK  Name = 
REMARK  5 active torsions:
REMARK  status: ('A' for Active; 'I' for Inactive)
REMARK    1  A    between atoms: C_1  and  C_2
REMARK    2  A    between atoms: C_2  and  C_3
REMARK    3  A    between atoms: C_6  and  N_7
REMARK    4  A    between atoms: C_11  and  C_12
REMARK    5  A    between atoms: C_13  and  N_14
REMARK                            x       y       z     vdW  Elec       q    Type
REMARK                         _______ _______ _______ _____ _____    ______ ____
ROOT
ATOM      1  N   UNL     1       2.899   7.226  18.610  0.00  0.00    +0.000 N 
ATOM      2  N   UNL     1       3.484   6.158  19.194  0.00  0.00    +0.000 NA
ATOM      3  C   UNL     1       4.473   5.869  18.354  0.00  0.00    +0.000 A 
ATOM      4  C   UNL     1       5.546   5.007  18.571  0.00  0.00    +0.000 A 
ATOM      5  C   UNL     1       6.513   5.024  17.549  0.00  0.00    +0.000 A 
ATOM      6  C   UNL     1       7.859   4.436  17.902  0.00  0.00    +0.000 C 
ATOM      7  C   UNL     1       6.271   5.619  16.267  0.00  0.00    +0.000 A 
ATOM      8  C   UNL     1       5.186   6.519  16.053  0.00  0.00    +0.000 A 
ATOM      9  C   UNL     1       4.308   6.656  17.144  0.00  0.00    +0.000 A 
ATOM     10  N   UNL     1       3.257   7.485  17.324  0.00  0.00    +0.000 NA
ENDROOT
BRANCH   1  14
ATOM     11  C   UNL     1       0.263   9.695  20.794  0.00  0.00    +0.000 A 
ATOM     12  C   UNL     1       0.603  10.002  19.475  0.00  0.00    +0.000 A 
ATOM     13  C   UNL     1       1.471   9.178  18.771  0.00  0.00    +0.000 A 
ATOM     14  C   UNL     1       2.015   8.030  19.374  0.00  0.00    +0.000 A 
ATOM     15  C   UNL     1       1.654   7.691  20.679  0.00  0.00    +0.000 A 
ATOM     16  C   UNL     1       0.779   8.528  21.383  0.00  0.00    +0.000 A 
BRANCH  11  18
ATOM     17  C   UNL     1      -0.678  10.288  23.037  0.00  0.00    +0.000 C 
ATOM     18  C   UNL     1      -0.670  10.603  21.550  0.00  0.00    +0.000 C 
ENDBRANCH  11  18
ENDBRANCH   1  14
BRANCH   7  19
ATOM     19  N   UNL     1       7.246   5.502  15.250  0.00  0.00    +0.000 N 
ATOM     20  H   UNL     1       7.388   4.541  14.944  0.00  0.00    +0.000 HD
ATOM     21  H   UNL     1       7.071   6.113  14.456  0.00  0.00    +0.000 HD
ENDBRANCH   7  19
TORSDOF 3
ENDMDL
MODEL 3
REMARK VINA RESULT:      -6.9      1.891      7.428
REMARK  Name = 
REMARK  5 active torsions:
REMARK  status: ('A' for Active; 'I' for Inactive)
REMARK    1  A    between atoms: C_1  and  C_2
REMARK    2  A    between atoms: C_2  and  C_3
REMARK    3  A    between atoms: C_6  and  N_7
REMARK    4  A    between atoms: C_11  and  C_12
REMARK    5  A    between atoms: C_13  and  N_14
REMARK                            x       y       z     vdW  Elec       q    Type
REMARK                         _______ _______ _______ _____ _____    ______ ____
ROOT
ATOM      1  N   UNL     1       2.608   7.108  18.514  0.00  0.00    +0.000 N 
ATOM      2  N   UNL     1       2.086   8.237  17.989  0.00  0.00    +0.000 NA
ATOM      3  C   UNL     1       1.573   8.845  19.054  0.00  0.00    +0.000 A 
ATOM      4  C   UNL     1       1.117  10.159  19.145  0.00  0.00    +0.000 A 
ATOM      5  C   UNL     1       0.769  10.559  20.448  0.00  0.00    +0.000 A 
ATOM      6  C   UNL     1       0.658  12.048  20.676  0.00  0.00    +0.000 C 
ATOM      7  C   UNL     1       0.593   9.624  21.521  0.00  0.00    +0.000 A 
ATOM      8  C   UNL     1       1.080   8.287  21.436  0.00  0.00    +0.000 A 
ATOM      9  C   UNL     1       1.608   7.929  20.182  0.00  0.00    +0.000 A 
ATOM     10  N   UNL     1       2.239   6.802  19.786  0.00  0.00    +0.000 NA
ENDROOT
BRANCH   1  14
ATOM     11  C   UNL     1       5.320   4.781  16.267  0.00  0.00    +0.000 A 
ATOM     12  C   UNL     1       4.252   4.184  16.939  0.00  0.00    +0.000 A 
ATOM     13  C   UNL     1       3.369   4.965  17.673  0.00  0.00    +0.000 A 
ATOM     14  C   UNL     1       3.538   6.359  17.747  0.00  0.00    +0.000 A 
ATOM     15  C   UNL     1       4.578   6.973  17.048  0.00  0.00    +0.000 A 
ATOM     16  C   UNL     1       5.466   6.178  16.311  0.00  0.00    +0.000 A 
BRANCH  11  18
ATOM     17  C   UNL     1       6.020   4.016  13.988  0.00  0.00    +0.000 C 
ATOM     18  C   UNL     1       6.276   3.921  15.484  0.00  0.00    +0.000 C 
ENDBRANCH  11  18
ENDBRANCH   1  14
BRANCH   7  19
ATOM     19  N   UNL     1       0.134  10.084  22.777  0.00  0.00    +0.000 N 
ATOM     20  H   UNL     1      -0.713  10.645  22.710  0.00  0.00    +0.000 HD
ATOM     21  H   UNL     1       0.022   9.338  23.459  0.00  0.00    +0.000 HD
ENDBRANCH   7  19
TORSDOF 3
ENDMDL
MODEL 4
REMARK VINA RESULT:      -6.9      1.884      7.473
REMARK  Name = 
REMARK  5 active torsions:
REMARK  status: ('A' for Active; 'I' for Inactive)
REMARK    1  A    between atoms: C_1  and  C_2
REMARK    2  A    between atoms: C_2  and  C_3
REMARK    3  A    between atoms: C_6  and  N_7
REMARK    4  A    between atoms: C_11  and  C_12
REMARK    5  A    between atoms: C_13  and  N_14
REMARK                            x       y       z     vdW  Elec       q    Type
REMARK                         _______ _______ _______ _____ _____    ______ ____
ROOT
ATOM      1  N   UNL     1       2.639   6.996  18.459  0.00  0.00    +0.000 N 
ATOM      2  N   UNL     1       2.103   8.101  17.899  0.00  0.00    +0.000 NA
ATOM      3  C   UNL     1       1.606   8.749  18.949  0.00  0.00    +0.000 A 
ATOM      4  C   UNL     1       1.146  10.064  18.994  0.00  0.00    +0.000 A 
ATOM      5  C   UNL     1       0.820  10.515  20.287  0.00  0.00    +0.000 A 
ATOM      6  C   UNL     1       0.706  12.012  20.457  0.00  0.00    +0.000 C 
ATOM      7  C   UNL     1       0.667   9.622  21.400  0.00  0.00    +0.000 A 
ATOM      8  C   UNL     1       1.158   8.285  21.359  0.00  0.00    +0.000 A 
ATOM      9  C   UNL     1       1.665   7.879  20.111  0.00  0.00    +0.000 A 
ATOM     10  N   UNL     1       2.294   6.740  19.748  0.00  0.00    +0.000 NA
ENDROOT
BRANCH   1  14
ATOM     11  C   UNL     1       5.423   4.788  16.180  0.00  0.00    +0.000 A 
ATOM     12  C   UNL     1       5.511   6.178  16.264  0.00  0.00    +0.000 A 
ATOM     13  C   UNL     1       4.587   6.889  17.019  0.00  0.00    +0.000 A 
ATOM     14  C   UNL     1       3.558   6.220  17.705  0.00  0.00    +0.000 A 
ATOM     15  C   UNL     1       3.482   4.827  17.662  0.00  0.00    +0.000 A 
ATOM     16  C   UNL     1       4.417   4.118  16.897  0.00  0.00    +0.000 A 
BRANCH  11  18
ATOM     17  C   UNL     1       6.037   4.014  13.880  0.00  0.00    +0.000 C 
ATOM     18  C   UNL     1       6.425   4.031  15.350  0.00  0.00    +0.000 C 
ENDBRANCH  11  18
ENDBRANCH   1  14
BRANCH   7  19
ATOM     19  N   UNL     1       0.229  10.131  22.644  0.00  0.00    +0.000 N 
ATOM     20  H   UNL     1      -0.540   9.597  23.043  0.00  0.00    +0.000 HD
ATOM     21  H   UNL     1       0.982  10.242  23.318  0.00  0.00    +0.000 HD
ENDBRANCH   7  19
TORSDOF 3
ENDMDL
MODEL 5
REMARK VINA RESULT:      -6.8      5.427      7.008
REMARK  Name = 
REMARK  5 active torsions:
REMARK  status: ('A' for Active; 'I' for Inactive)
REMARK    1  A    between atoms: C_1  and  C_2
REMARK    2  A    between atoms: C_2  and  C_3
REMARK    3  A    between atoms: C_6  and  N_7
REMARK    4  A    between atoms: C_11  and  C_12
REMARK    5  A    between atoms: C_13  and  N_14
REMARK                            x       y       z     vdW  Elec       q    Type
REMARK                         _______ _______ _______ _____ _____    ______ ____
ROOT
ATOM      1  N   UNL     1       8.264   8.663  18.203  0.00  0.00    +0.000 N 
ATOM      2  N   UNL     1       7.360   8.524  17.210  0.00  0.00    +0.000 NA
ATOM      3  C   UNL     1       6.835   7.328  17.458  0.00  0.00    +0.000 A 
ATOM      4  C   UNL     1       5.689   6.770  16.893  0.00  0.00    +0.000 A 
ATOM      5  C   UNL     1       5.301   5.546  17.469  0.00  0.00    +0.000 A 
ATOM      6  C   UNL     1       3.884   5.103  17.190  0.00  0.00    +0.000 C 
ATOM      7  C   UNL     1       6.166   4.788  18.325  0.00  0.00    +0.000 A 
ATOM      8  C   UNL     1       7.325   5.366  18.919  0.00  0.00    +0.000 A 
ATOM      9  C   UNL     1       7.621   6.673  18.490  0.00  0.00    +0.000 A 
ATOM     10  N   UNL     1       8.562   7.543  18.914  0.00  0.00    +0.000 NA
ENDROOT
BRANCH   1  14
ATOM     11  C   UNL     1       9.782  12.536  18.922  0.00  0.00    +0.000 A 
ATOM     12  C   UNL     1       8.953  12.285  17.827  0.00  0.00    +0.000 A 
ATOM     13  C   UNL     1       8.461  11.005  17.606  0.00  0.00    +0.000 A 
ATOM     14  C   UNL     1       8.791   9.952  18.478  0.00  0.00    +0.000 A 
ATOM     15  C   UNL     1       9.587  10.197  19.598  0.00  0.00    +0.000 A 
ATOM     16  C   UNL     1      10.080  11.490  19.813  0.00  0.00    +0.000 A 
BRANCH  11  18
ATOM     17  C   UNL     1      10.728  14.144  20.591  0.00  0.00    +0.000 C 
ATOM     18  C   UNL     1      10.316  13.926  19.144  0.00  0.00    +0.000 C 
ENDBRANCH  11  18
ENDBRANCH   1  14
BRANCH   7  19
ATOM     19  N   UNL     1       5.754   3.513  18.778  0.00  0.00    +0.000 N 
ATOM     20  H   UNL     1       6.181   2.749  18.258  0.00  0.00    +0.000 HD
ATOM     21  H   UNL     1       5.878   3.386  19.779  0.00  0.00    +0.000 HD
ENDBRANCH   7  19
TORSDOF 3
ENDMDL
MODEL 6
REMARK VINA RESULT:      -6.8      5.489      6.920
REMARK  Name = 
REMARK  5 active torsions:
REMARK  status: ('A' for Active; 'I' for Inactive)
REMARK    1  A    between atoms: C_1  and  C_2
REMARK    2  A    between atoms: C_2  and  C_3
REMARK    3  A    between atoms: C_6  and  N_7
REMARK    4  A    between atoms: C_11  and  C_12
REMARK    5  A    between atoms: C_13  and  N_14
REMARK                            x       y       z     vdW  Elec       q    Type
REMARK                         _______ _______ _______ _____ _____    ______ ____
ROOT
ATOM      1  N   UNL     1       8.298   8.738  18.218  0.00  0.00    +0.000 N 
ATOM      2  N   UNL     1       7.402   8.588  17.219  0.00  0.00    +0.000 NA
ATOM      3  C   UNL     1       6.890   7.385  17.464  0.00  0.00    +0.000 A 
ATOM      4  C   UNL     1       5.754   6.814  16.891  0.00  0.00    +0.000 A 
ATOM      5  C   UNL     1       5.376   5.586  17.465  0.00  0.00    +0.000 A 
ATOM      6  C   UNL     1       3.966   5.127  17.177  0.00  0.00    +0.000 C 
ATOM      7  C   UNL     1       6.244   4.838  18.327  0.00  0.00    +0.000 A 
ATOM      8  C   UNL     1       7.393   5.430  18.929  0.00  0.00    +0.000 A 
ATOM      9  C   UNL     1       7.676   6.740  18.501  0.00  0.00    +0.000 A 
ATOM     10  N   UNL     1       8.604   7.621  18.931  0.00  0.00    +0.000 NA
ENDROOT
BRANCH   1  14
ATOM     11  C   UNL     1       9.858  12.548  19.147  0.00  0.00    +0.000 A 
ATOM     12  C   UNL     1      10.107  11.452  19.975  0.00  0.00    +0.000 A 
ATOM     13  C   UNL     1       9.587  10.206  19.654  0.00  0.00    +0.000 A 
ATOM     14  C   UNL     1       8.808  10.032  18.496  0.00  0.00    +0.000 A 
ATOM     15  C   UNL     1       8.584  11.111  17.639  0.00  0.00    +0.000 A 
ATOM     16  C   UNL     1       9.111  12.365  17.971  0.00  0.00    +0.000 A 
BRANCH  11  18
ATOM     17  C   UNL     1      10.402  14.122  21.017  0.00  0.00    +0.000 C 
ATOM     18  C   UNL     1      10.419  13.896  19.513  0.00  0.00    +0.000 C 
ENDBRANCH  11  18
ENDBRANCH   1  14
BRANCH   7  19
ATOM     19  N   UNL     1       5.844   3.559  18.778  0.00  0.00    +0.000 N 
ATOM     20  H   UNL     1       6.068   3.394  19.757  0.00  0.00    +0.000 HD
ATOM     21  H   UNL     1       4.864   3.358  18.591  0.00  0.00    +0.000 HD
ENDBRANCH   7  19
TORSDOF 3
ENDMDL
MODEL 7
REMARK VINA RESULT:      -6.7      1.870      7.387
REMARK  Name = 
REMARK  5 active torsions:
REMARK  status: ('A' for Active; 'I' for Inactive)
REMARK    1  A    between atoms: C_1  and  C_2
REMARK    2  A    between atoms: C_2  and  C_3
REMARK    3  A    between atoms: C_6  and  N_7
REMARK    4  A    between atoms: C_11  and  C_12
REMARK    5  A    between atoms: C_13  and  N_14
REMARK                            x       y       z     vdW  Elec       q    Type
REMARK                         _______ _______ _______ _____ _____    ______ ____
ROOT
ATOM      1  N   UNL     1       3.178   7.246  18.084  0.00  0.00    +0.000 N 
ATOM      2  N   UNL     1       3.054   7.063  19.416  0.00  0.00    +0.000 NA
ATOM      3  C   UNL     1       2.090   7.919  19.741  0.00  0.00    +0.000 A 
ATOM      4  C   UNL     1       1.388   7.990  20.943  0.00  0.00    +0.000 A 
ATOM      5  C   UNL     1       0.320   8.907  20.932  0.00  0.00    +0.000 A 
ATOM      6  C   UNL     1      -0.703   8.744  22.032  0.00  0.00    +0.000 C 
ATOM      7  C   UNL     1       0.165   9.898  19.907  0.00  0.00    +0.000 A 
ATOM      8  C   UNL     1       0.867   9.812  18.670  0.00  0.00    +0.000 A 
ATOM      9  C   UNL     1       1.812   8.773  18.598  0.00  0.00    +0.000 A 
ATOM     10  N   UNL     1       2.564   8.342  17.563  0.00  0.00    +0.000 NA
ENDROOT
BRANCH   1  14
ATOM     11  C   UNL     1       5.290   4.441  15.742  0.00  0.00    +0.000 A 
ATOM     12  C   UNL     1       5.497   5.811  15.576  0.00  0.00    +0.000 A 
ATOM     13  C   UNL     1       4.795   6.720  16.356  0.00  0.00    +0.000 A 
ATOM     14  C   UNL     1       3.871   6.274  17.318  0.00  0.00    +0.000 A 
ATOM     15  C   UNL     1       3.682   4.906  17.520  0.00  0.00    +0.000 A 
ATOM     16  C   UNL     1       4.393   3.996  16.729  0.00  0.00    +0.000 A 
BRANCH  11  18
ATOM     17  C   UNL     1       6.074   3.904  13.426  0.00  0.00    +0.000 C 
ATOM     18  C   UNL     1       6.050   3.467  14.882  0.00  0.00    +0.000 C 
ENDBRANCH  11  18
ENDBRANCH   1  14
BRANCH   7  19
ATOM     19  N   UNL     1      -0.867  10.858  20.019  0.00  0.00    +0.000 N 
ATOM     20  H   UNL     1      -1.087  11.311  19.135  0.00  0.00    +0.000 HD
ATOM     21  H   UNL     1      -1.708  10.492  20.459  0.00  0.00    +0.000 HD
ENDBRANCH   7  19
TORSDOF 3
ENDMDL
MODEL 8
REMARK VINA RESULT:      -6.6      1.911      2.855
REMARK  Name = 
REMARK  5 active torsions:
REMARK  status: ('A' for Active; 'I' for Inactive)
REMARK    1  A    between atoms: C_1  and  C_2
REMARK    2  A    between atoms: C_2  and  C_3
REMARK    3  A    between atoms: C_6  and  N_7
REMARK    4  A    between atoms: C_11  and  C_12
REMARK    5  A    between atoms: C_13  and  N_14
REMARK                            x       y       z     vdW  Elec       q    Type
REMARK                         _______ _______ _______ _____ _____    ______ ____
ROOT
ATOM      1  N   UNL     1       2.137   8.075  19.031  0.00  0.00    +0.000 N 
ATOM      2  N   UNL     1       2.951   8.098  17.954  0.00  0.00    +0.000 NA
ATOM      3  C   UNL     1       3.544   6.910  18.010  0.00  0.00    +0.000 A 
ATOM      4  C   UNL     1       4.309   6.295  17.020  0.00  0.00    +0.000 A 
ATOM      5  C   UNL     1       4.678   4.970  17.318  0.00  0.00    +0.000 A 
ATOM      6  C   UNL     1       5.146   4.135  16.149  0.00  0.00    +0.000 C 
ATOM      7  C   UNL     1       4.559   4.413  18.634  0.00  0.00    +0.000 A 
ATOM      8  C   UNL     1       3.758   5.031  19.638  0.00  0.00    +0.000 A 
ATOM      9  C   UNL     1       3.223   6.282  19.281  0.00  0.00    +0.000 A 
ATOM     10  N   UNL     1       2.352   7.082  19.933  0.00  0.00    +0.000 NA
ENDROOT
BRANCH   1  14
ATOM     11  C   UNL     1      -0.970  10.907  19.421  0.00  0.00    +0.000 A 
ATOM     12  C   UNL     1      -0.310  10.410  20.546  0.00  0.00    +0.000 A 
ATOM     13  C   UNL     1       0.711   9.479  20.400  0.00  0.00    +0.000 A 
ATOM     14  C   UNL     1       1.090   9.029  19.122  0.00  0.00    +0.000 A 
ATOM     15  C   UNL     1       0.465   9.547  17.987  0.00  0.00    +0.000 A 
ATOM     16  C   UNL     1      -0.564  10.484  18.143  0.00  0.00    +0.000 A 
BRANCH  11  18
ATOM     17  C   UNL     1      -3.190  11.697  18.576  0.00  0.00    +0.000 C 
ATOM     18  C   UNL     1      -2.081  11.907  19.595  0.00  0.00    +0.000 C 
ENDBRANCH  11  18
ENDBRANCH   1  14
BRANCH   7  19
ATOM     19  N   UNL     1       5.053   3.112  18.886  0.00  0.00    +0.000 N 
ATOM     20  H   UNL     1       5.721   3.082  19.653  0.00  0.00    +0.000 HD
ATOM     21  H   UNL     1       4.316   2.424  19.019  0.00  0.00    +0.000 HD
ENDBRANCH   7  19
TORSDOF 3
ENDMDL
MODEL 9
REMARK VINA RESULT:      -6.5      1.922      3.073
REMARK  Name = 
REMARK  5 active torsions:
REMARK  status: ('A' for Active; 'I' for Inactive)
REMARK    1  A    between atoms: C_1  and  C_2
REMARK    2  A    between atoms: C_2  and  C_3
REMARK    3  A    between atoms: C_6  and  N_7
REMARK    4  A    between atoms: C_11  and  C_12
REMARK    5  A    between atoms: C_13  and  N_14
REMARK                            x       y       z     vdW  Elec       q    Type
REMARK                         _______ _______ _______ _____ _____    ______ ____
ROOT
ATOM      1  N   UNL     1       2.104   8.105  19.035  0.00  0.00    +0.000 N 
ATOM      2  N   UNL     1       2.898   8.144  17.943  0.00  0.00    +0.000 NA
ATOM      3  C   UNL     1       3.525   6.972  17.995  0.00  0.00    +0.000 A 
ATOM      4  C   UNL     1       4.288   6.373  16.994  0.00  0.00    +0.000 A 
ATOM      5  C   UNL     1       4.699   5.061  17.292  0.00  0.00    +0.000 A 
ATOM      6  C   UNL     1       5.168   4.232  16.120  0.00  0.00    +0.000 C 
ATOM      7  C   UNL     1       4.620   4.509  18.614  0.00  0.00    +0.000 A 
ATOM      8  C   UNL     1       3.821   5.111  19.629  0.00  0.00    +0.000 A 
ATOM      9  C   UNL     1       3.244   6.344  19.275  0.00  0.00    +0.000 A 
ATOM     10  N   UNL     1       2.364   7.123  19.939  0.00  0.00    +0.000 NA
ENDROOT
BRANCH   1  14
ATOM     11  C   UNL     1      -1.087  10.861  19.232  0.00  0.00    +0.000 A 
ATOM     12  C   UNL     1      -0.659  10.349  18.005  0.00  0.00    +0.000 A 
ATOM     13  C   UNL     1       0.392   9.442  17.959  0.00  0.00    +0.000 A 
ATOM     14  C   UNL     1       1.034   9.030  19.141  0.00  0.00    +0.000 A 
ATOM     15  C   UNL     1       0.590   9.504  20.376  0.00  0.00    +0.000 A 
ATOM     16  C   UNL     1      -0.469  10.419  20.415  0.00  0.00    +0.000 A 
BRANCH  11  18
ATOM     17  C   UNL     1      -3.229  11.588  18.160  0.00  0.00    +0.000 C 
ATOM     18  C   UNL     1      -2.221  11.851  19.267  0.00  0.00    +0.000 C 
ENDBRANCH  11  18
ENDBRANCH   1  14
BRANCH   7  19
ATOM     19  N   UNL     1       5.154   3.224  18.864  0.00  0.00    +0.000 N 
ATOM     20  H   UNL     1       6.115   3.251  19.197  0.00  0.00    +0.000 HD
ATOM     21  H   UNL     1       4.572   2.662  19.480  0.00  0.00    +0.000 HD
ENDBRANCH   7  19
TORSDOF 3
ENDMDL
