MODEL 1
REMARK VINA RESULT:      -7.4      0.000      0.000
REMARK  Name = 
REMARK  11 active torsions:
REMARK  status: ('A' for Active; 'I' for Inactive)
REMARK    1  A    between atoms: C_1  and  C_2
REMARK    2  A    between atoms: C_2  and  C_3
REMARK    3  A    between atoms: C_2  and  C_4
REMARK    4  A    between atoms: C_2  and  O_5
REMARK    5  A    between atoms: O_5  and  C_6
REMARK    6  A    between atoms: N_8  and  C_9
REMARK    7  A    between atoms: C_9  and  C_10
REMARK    8  A    between atoms: C_9  and  C_15
REMARK    9  A    between atoms: C_10  and  C_11
REMARK   10  A    between atoms: C_11  and  C_12
REMARK   11  A    between atoms: C_12  and  O_14
REMARK                            x       y       z     vdW  Elec       q    Type
REMARK                         _______ _______ _______ _____ _____    ______ ____
ROOT
ATOM      1  C   UNL     1      -0.203  10.424  20.060  0.00  0.00    +0.000 C 
ATOM      2  O   UNL     1      -0.731  10.588  21.166  0.00  0.00    +0.000 OA
ATOM      3  N   UNL     1       0.929   9.631  19.906  0.00  0.00    +0.000 N 
ATOM      4  C   UNL     1       1.378   8.773  21.010  0.00  0.00    +0.000 C 
ATOM      5  C   UNL     1       1.509   7.294  20.581  0.00  0.00    +0.000 C 
ATOM      6  N   UNL     1       2.268   7.161  19.333  0.00  0.00    +0.000 N 
ATOM      7  C   UNL     1       3.228   6.207  19.126  0.00  0.00    +0.000 A 
ATOM      8  N   UNL     1       4.290   6.432  18.354  0.00  0.00    +0.000 NA
ATOM      9  S   UNL     1       5.279   5.113  18.355  0.00  0.00    +0.000 S 
ATOM     10  C   UNL     1       4.283   4.121  19.335  0.00  0.00    +0.000 A 
ATOM     11  C   UNL     1       4.472   2.787  19.738  0.00  0.00    +0.000 A 
ATOM     12  C   UNL     1       3.483   2.182  20.527  0.00  0.00    +0.000 A 
ATOM     13  C   UNL     1       2.349   2.884  20.902  0.00  0.00    +0.000 A 
ATOM     14  C   UNL     1       2.180   4.206  20.492  0.00  0.00    +0.000 A 
ATOM     15  C   UNL     1       3.157   4.867  19.701  0.00  0.00    +0.000 A 
ATOM     16  C   UNL     1       1.814   8.018  18.229  0.00  0.00    +0.000 C 
ATOM     17  C   UNL     1       1.766   9.483  18.697  0.00  0.00    +0.000 C 
ENDROOT
BRANCH   1  18
ATOM     18  C   UNL     1      -0.840  11.089  18.813  0.00  0.00    +0.000 C 
BRANCH  18  21
ATOM     19  C   UNL     1      -0.127  13.439  18.873  0.00  0.00    +0.000 C 
ATOM     20  O   UNL     1      -0.873  13.663  19.824  0.00  0.00    +0.000 OA
ATOM     21  N   UNL     1      -0.011  12.196  18.322  0.00  0.00    +0.000 N 
ATOM     22  H   UNL     1       0.671  12.040  17.589  0.00  0.00    +0.000 HD
BRANCH  19  23
ATOM     23  O   UNL     1       0.649  14.365  18.251  0.00  0.00    +0.000 OA
BRANCH  23  25
ATOM     24  C   UNL     1       2.989  15.044  17.844  0.00  0.00    +0.000 C 
ATOM     25  C   UNL     1       1.902  14.759  18.891  0.00  0.00    +0.000 C 
ATOM     26  C   UNL     1       2.386  13.710  19.908  0.00  0.00    +0.000 C 
ATOM     27  C   UNL     1       1.638  16.073  19.654  0.00  0.00    +0.000 C 
ENDBRANCH  23  25
ENDBRANCH  19  23
ENDBRANCH  18  21
BRANCH  18  28
ATOM     28  C   UNL     1      -1.198  10.125  17.670  0.00  0.00    +0.000 C 
BRANCH  28  29
ATOM     29  C   UNL     1      -2.685  10.017  17.329  0.00  0.00    +0.000 C 
BRANCH  29  30
ATOM     30  C   UNL     1      -3.027  10.862  16.113  0.00  0.00    +0.000 C 
ATOM     31  O   UNL     1      -2.637  10.649  14.978  0.00  0.00    +0.000 OA
BRANCH  30  32
ATOM     32  O   UNL     1      -3.821  11.914  16.417  0.00  0.00    +0.000 OA
ATOM     33  H   UNL     1      -4.775  11.714  16.396  0.00  0.00    +0.000 HD
ENDBRANCH  30  32
ENDBRANCH  29  30
ENDBRANCH  28  29
ENDBRANCH  18  28
ENDBRANCH   1  18
TORSDOF 8
ENDMDL
MODEL 2
REMARK VINA RESULT:      -7.3      2.774      4.082
REMARK  Name = 
REMARK  11 active torsions:
REMARK  status: ('A' for Active; 'I' for Inactive)
REMARK    1  A    between atoms: C_1  and  C_2
REMARK    2  A    between atoms: C_2  and  C_3
REMARK    3  A    between atoms: C_2  and  C_4
REMARK    4  A    between atoms: C_2  and  O_5
REMARK    5  A    between atoms: O_5  and  C_6
REMARK    6  A    between atoms: N_8  and  C_9
REMARK    7  A    between atoms: C_9  and  C_10
REMARK    8  A    between atoms: C_9  and  C_15
REMARK    9  A    between atoms: C_10  and  C_11
REMARK   10  A    between atoms: C_11  and  C_12
REMARK   11  A    between atoms: C_12  and  O_14
REMARK                            x       y       z     vdW  Elec       q    Type
REMARK                         _______ _______ _______ _____ _____    ______ ____
ROOT
ATOM      1  C   UNL     1      -0.265  11.411  21.904  0.00  0.00    +0.000 C 
ATOM      2  O   UNL     1      -0.512  11.371  23.115  0.00  0.00    +0.000 OA
ATOM      3  N   UNL     1       0.686  10.576  21.328  0.00  0.00    +0.000 N 
ATOM      4  C   UNL     1       1.242   9.457  22.100  0.00  0.00    +0.000 C 
ATOM      5  C   UNL     1       1.071   8.106  21.371  0.00  0.00    +0.000 C 
ATOM      6  N   UNL     1       1.513   8.188  19.975  0.00  0.00    +0.000 N 
ATOM      7  C   UNL     1       2.265   7.223  19.359  0.00  0.00    +0.000 A 
ATOM      8  N   UNL     1       3.152   7.519  18.411  0.00  0.00    +0.000 NA
ATOM      9  S   UNL     1       3.926   6.151  17.915  0.00  0.00    +0.000 S 
ATOM     10  C   UNL     1       3.041   5.058  18.892  0.00  0.00    +0.000 A 
ATOM     11  C   UNL     1       3.128   3.656  18.968  0.00  0.00    +0.000 A 
ATOM     12  C   UNL     1       2.261   2.980  19.838  0.00  0.00    +0.000 A 
ATOM     13  C   UNL     1       1.344   3.678  20.608  0.00  0.00    +0.000 A 
ATOM     14  C   UNL     1       1.273   5.068  20.518  0.00  0.00    +0.000 A 
ATOM     15  C   UNL     1       2.136   5.800  19.660  0.00  0.00    +0.000 A 
ATOM     16  C   UNL     1       0.952   9.306  19.204  0.00  0.00    +0.000 C 
ATOM     17  C   UNL     1       1.210  10.628  19.947  0.00  0.00    +0.000 C 
ENDROOT
BRANCH   1  18
ATOM     18  C   UNL     1      -1.061  12.392  21.004  0.00  0.00    +0.000 C 
BRANCH  18  21
ATOM     19  C   UNL     1      -3.467  12.373  20.508  0.00  0.00    +0.000 C 
ATOM     20  O   UNL     1      -3.241  12.144  19.322  0.00  0.00    +0.000 OA
ATOM     21  N   UNL     1      -2.463  12.479  21.427  0.00  0.00    +0.000 N 
ATOM     22  H   UNL     1      -2.698  12.593  22.406  0.00  0.00    +0.000 HD
BRANCH  19  23
ATOM     23  O   UNL     1      -4.698  12.558  21.050  0.00  0.00    +0.000 OA
BRANCH  23  25
ATOM     24  C   UNL     1      -6.172  13.759  19.472  0.00  0.00    +0.000 C 
ATOM     25  C   UNL     1      -5.384  13.822  20.790  0.00  0.00    +0.000 C 
ATOM     26  C   UNL     1      -4.414  15.016  20.789  0.00  0.00    +0.000 C 
ATOM     27  C   UNL     1      -6.403  14.038  21.927  0.00  0.00    +0.000 C 
ENDBRANCH  23  25
ENDBRANCH  19  23
ENDBRANCH  18  21
BRANCH  18  28
ATOM     28  C   UNL     1      -0.444  13.793  20.861  0.00  0.00    +0.000 C 
BRANCH  28  29
ATOM     29  C   UNL     1      -0.637  14.472  19.505  0.00  0.00    +0.000 C 
BRANCH  29  30
ATOM     30  C   UNL     1      -0.037  13.635  18.386  0.00  0.00    +0.000 C 
ATOM     31  O   UNL     1       1.155  13.504  18.169  0.00  0.00    +0.000 OA
BRANCH  30  32
ATOM     32  O   UNL     1      -0.979  13.038  17.621  0.00  0.00    +0.000 OA
ATOM     33  H   UNL     1      -0.945  12.063  17.634  0.00  0.00    +0.000 HD
ENDBRANCH  30  32
ENDBRANCH  29  30
ENDBRANCH  28  29
ENDBRANCH  18  28
ENDBRANCH   1  18
TORSDOF 8
ENDMDL
MODEL 3
REMARK VINA RESULT:      -7.3      1.653      4.176
REMARK  Name = 
REMARK  11 active torsions:
REMARK  status: ('A' for Active; 'I' for Inactive)
REMARK    1  A    between atoms: C_1  and  C_2
REMARK    2  A    between atoms: C_2  and  C_3
REMARK    3  A    between atoms: C_2  and  C_4
REMARK    4  A    between atoms: C_2  and  O_5
REMARK    5  A    between atoms: O_5  and  C_6
REMARK    6  A    between atoms: N_8  and  C_9
REMARK    7  A    between atoms: C_9  and  C_10
REMARK    8  A    between atoms: C_9  and  C_15
REMARK    9  A    between atoms: C_10  and  C_11
REMARK   10  A    between atoms: C_11  and  C_12
REMARK   11  A    between atoms: C_12  and  O_14
REMARK                            x       y       z     vdW  Elec       q    Type
REMARK                         _______ _______ _______ _____ _____    ______ ____
ROOT
ATOM      1  C   UNL     1       0.154  11.179  21.408  0.00  0.00    +0.000 C 
ATOM      2  O   UNL     1      -0.230  11.220  22.583  0.00  0.00    +0.000 OA
ATOM      3  N   UNL     1       1.067  10.224  20.974  0.00  0.00    +0.000 N 
ATOM      4  C   UNL     1       1.407   9.090  21.842  0.00  0.00    +0.000 C 
ATOM      5  C   UNL     1       1.173   7.732  21.143  0.00  0.00    +0.000 C 
ATOM      6  N   UNL     1       1.776   7.704  19.806  0.00  0.00    +0.000 N 
ATOM      7  C   UNL     1       2.483   6.639  19.314  0.00  0.00    +0.000 A 
ATOM      8  N   UNL     1       3.499   6.798  18.467  0.00  0.00    +0.000 NA
ATOM      9  S   UNL     1       4.170   5.336  18.109  0.00  0.00    +0.000 S 
ATOM     10  C   UNL     1       3.067   4.386  19.013  0.00  0.00    +0.000 A 
ATOM     11  C   UNL     1       2.991   2.988  19.143  0.00  0.00    +0.000 A 
ATOM     12  C   UNL     1       1.963   2.446  19.929  0.00  0.00    +0.000 A 
ATOM     13  C   UNL     1       1.047   3.270  20.562  0.00  0.00    +0.000 A 
ATOM     14  C   UNL     1       1.139   4.654  20.420  0.00  0.00    +0.000 A 
ATOM     15  C   UNL     1       2.168   5.253  19.644  0.00  0.00    +0.000 A 
ATOM     16  C   UNL     1       1.431   8.839  18.938  0.00  0.00    +0.000 C 
ATOM     17  C   UNL     1       1.746  10.159  19.663  0.00  0.00    +0.000 C 
ENDROOT
BRANCH   1  18
ATOM     18  C   UNL     1      -0.424  12.196  20.390  0.00  0.00    +0.000 C 
BRANCH  18  21
ATOM     19  C   UNL     1      -2.354  12.042  18.877  0.00  0.00    +0.000 C 
ATOM     20  O   UNL     1      -1.638  12.281  17.906  0.00  0.00    +0.000 OA
ATOM     21  N   UNL     1      -1.849  11.945  20.141  0.00  0.00    +0.000 N 
ATOM     22  H   UNL     1      -2.462  11.672  20.901  0.00  0.00    +0.000 HD
BRANCH  19  23
ATOM     23  O   UNL     1      -3.699  11.861  18.833  0.00  0.00    +0.000 OA
BRANCH  23  25
ATOM     24  C   UNL     1      -3.359   9.635  17.818  0.00  0.00    +0.000 C 
ATOM     25  C   UNL     1      -4.236  10.895  17.877  0.00  0.00    +0.000 C 
ATOM     26  C   UNL     1      -4.408  11.506  16.475  0.00  0.00    +0.000 C 
ATOM     27  C   UNL     1      -5.628  10.467  18.384  0.00  0.00    +0.000 C 
ENDBRANCH  23  25
ENDBRANCH  19  23
ENDBRANCH  18  21
BRANCH  18  28
ATOM     28  C   UNL     1      -0.181  13.674  20.734  0.00  0.00    +0.000 C 
BRANCH  28  29
ATOM     29  C   UNL     1       0.982  14.347  20.003  0.00  0.00    +0.000 C 
BRANCH  29  30
ATOM     30  C   UNL     1       0.484  15.470  19.107  0.00  0.00    +0.000 C 
ATOM     31  O   UNL     1       1.025  16.554  18.973  0.00  0.00    +0.000 OA
BRANCH  30  32
ATOM     32  O   UNL     1      -0.658  15.149  18.457  0.00  0.00    +0.000 OA
ATOM     33  H   UNL     1      -1.420  14.985  19.045  0.00  0.00    +0.000 HD
ENDBRANCH  30  32
ENDBRANCH  29  30
ENDBRANCH  28  29
ENDBRANCH  18  28
ENDBRANCH   1  18
TORSDOF 8
ENDMDL
MODEL 4
REMARK VINA RESULT:      -7.3      4.433      8.943
REMARK  Name = 
REMARK  11 active torsions:
REMARK  status: ('A' for Active; 'I' for Inactive)
REMARK    1  A    between atoms: C_1  and  C_2
REMARK    2  A    between atoms: C_2  and  C_3
REMARK    3  A    between atoms: C_2  and  C_4
REMARK    4  A    between atoms: C_2  and  O_5
REMARK    5  A    between atoms: O_5  and  C_6
REMARK    6  A    between atoms: N_8  and  C_9
REMARK    7  A    between atoms: C_9  and  C_10
REMARK    8  A    between atoms: C_9  and  C_15
REMARK    9  A    between atoms: C_10  and  C_11
REMARK   10  A    between atoms: C_11  and  C_12
REMARK   11  A    between atoms: C_12  and  O_14
REMARK                            x       y       z     vdW  Elec       q    Type
REMARK                         _______ _______ _______ _____ _____    ______ ____
ROOT
ATOM      1  C   UNL     1       2.354   7.397  18.547  0.00  0.00    +0.000 C 
ATOM      2  O   UNL     1       2.550   7.498  17.330  0.00  0.00    +0.000 OA
ATOM      3  N   UNL     1       1.913   8.477  19.305  0.00  0.00    +0.000 N 
ATOM      4  C   UNL     1       1.435   9.694  18.636  0.00  0.00    +0.000 C 
ATOM      5  C   UNL     1       0.008  10.081  19.085  0.00  0.00    +0.000 C 
ATOM      6  N   UNL     1      -0.117  10.076  20.546  0.00  0.00    +0.000 N 
ATOM      7  C   UNL     1      -0.768  11.049  21.256  0.00  0.00    +0.000 A 
ATOM      8  N   UNL     1      -0.384  11.405  22.481  0.00  0.00    +0.000 NA
ATOM      9  S   UNL     1      -1.332  12.633  23.036  0.00  0.00    +0.000 S 
ATOM     10  C   UNL     1      -2.382  12.699  21.684  0.00  0.00    +0.000 A 
ATOM     11  C   UNL     1      -3.508  13.512  21.466  0.00  0.00    +0.000 A 
ATOM     12  C   UNL     1      -4.226  13.352  20.272  0.00  0.00    +0.000 A 
ATOM     13  C   UNL     1      -3.832  12.417  19.329  0.00  0.00    +0.000 A 
ATOM     14  C   UNL     1      -2.713  11.619  19.564  0.00  0.00    +0.000 A 
ATOM     15  C   UNL     1      -1.946  11.750  20.752  0.00  0.00    +0.000 A 
ATOM     16  C   UNL     1       0.359   8.855  21.212  0.00  0.00    +0.000 C 
ATOM     17  C   UNL     1       1.805   8.558  20.776  0.00  0.00    +0.000 C 
ENDROOT
BRANCH   1  18
ATOM     18  C   UNL     1       2.570   6.024  19.234  0.00  0.00    +0.000 C 
BRANCH  18  21
ATOM     19  C   UNL     1       4.731   4.946  18.780  0.00  0.00    +0.000 C 
ATOM     20  O   UNL     1       4.265   4.382  17.792  0.00  0.00    +0.000 OA
ATOM     21  N   UNL     1       3.989   5.803  19.540  0.00  0.00    +0.000 N 
ATOM     22  H   UNL     1       4.434   6.304  20.300  0.00  0.00    +0.000 HD
BRANCH  19  23
ATOM     23  O   UNL     1       5.998   4.793  19.245  0.00  0.00    +0.000 OA
BRANCH  23  25
ATOM     24  C   UNL     1       6.619   6.674  17.768  0.00  0.00    +0.000 C 
ATOM     25  C   UNL     1       7.090   5.401  18.488  0.00  0.00    +0.000 C 
ATOM     26  C   UNL     1       7.721   4.413  17.492  0.00  0.00    +0.000 C 
ATOM     27  C   UNL     1       8.177   5.817  19.499  0.00  0.00    +0.000 C 
ENDBRANCH  23  25
ENDBRANCH  19  23
ENDBRANCH  18  21
BRANCH  18  28
ATOM     28  C   UNL     1       1.698   5.770  20.474  0.00  0.00    +0.000 C 
BRANCH  28  29
ATOM     29  C   UNL     1       1.020   4.401  20.545  0.00  0.00    +0.000 C 
BRANCH  29  30
ATOM     30  C   UNL     1       1.950   3.365  21.154  0.00  0.00    +0.000 C 
ATOM     31  O   UNL     1       1.949   3.021  22.323  0.00  0.00    +0.000 OA
BRANCH  30  32
ATOM     32  O   UNL     1       2.817   2.849  20.252  0.00  0.00    +0.000 OA
ATOM     33  H   UNL     1       3.249   2.023  20.540  0.00  0.00    +0.000 HD
ENDBRANCH  30  32
ENDBRANCH  29  30
ENDBRANCH  28  29
ENDBRANCH  18  28
ENDBRANCH   1  18
TORSDOF 8
ENDMDL
MODEL 5
REMARK VINA RESULT:      -7.3      1.825      4.001
REMARK  Name = 
REMARK  11 active torsions:
REMARK  status: ('A' for Active; 'I' for Inactive)
REMARK    1  A    between atoms: C_1  and  C_2
REMARK    2  A    between atoms: C_2  and  C_3
REMARK    3  A    between atoms: C_2  and  C_4
REMARK    4  A    between atoms: C_2  and  O_5
REMARK    5  A    between atoms: O_5  and  C_6
REMARK    6  A    between atoms: N_8  and  C_9
REMARK    7  A    between atoms: C_9  and  C_10
REMARK    8  A    between atoms: C_9  and  C_15
REMARK    9  A    between atoms: C_10  and  C_11
REMARK   10  A    between atoms: C_11  and  C_12
REMARK   11  A    between atoms: C_12  and  O_14
REMARK                            x       y       z     vdW  Elec       q    Type
REMARK                         _______ _______ _______ _____ _____    ______ ____
ROOT
ATOM      1  C   UNL     1       0.079  11.304  21.660  0.00  0.00    +0.000 C 
ATOM      2  O   UNL     1      -0.315  11.298  22.832  0.00  0.00    +0.000 OA
ATOM      3  N   UNL     1       1.000  10.370  21.197  0.00  0.00    +0.000 N 
ATOM      4  C   UNL     1       1.338   9.205  22.024  0.00  0.00    +0.000 C 
ATOM      5  C   UNL     1       1.116   7.874  21.271  0.00  0.00    +0.000 C 
ATOM      6  N   UNL     1       1.731   7.900  19.940  0.00  0.00    +0.000 N 
ATOM      7  C   UNL     1       2.446   6.858  19.413  0.00  0.00    +0.000 A 
ATOM      8  N   UNL     1       3.468   7.054  18.582  0.00  0.00    +0.000 NA
ATOM      9  S   UNL     1       4.149   5.609  18.174  0.00  0.00    +0.000 S 
ATOM     10  C   UNL     1       3.043   4.620  19.031  0.00  0.00    +0.000 A 
ATOM     11  C   UNL     1       2.973   3.218  19.107  0.00  0.00    +0.000 A 
ATOM     12  C   UNL     1       1.941   2.642  19.863  0.00  0.00    +0.000 A 
ATOM     13  C   UNL     1       1.016   3.437  20.520  0.00  0.00    +0.000 A 
ATOM     14  C   UNL     1       1.102   4.826  20.431  0.00  0.00    +0.000 A 
ATOM     15  C   UNL     1       2.135   5.458  19.687  0.00  0.00    +0.000 A 
ATOM     16  C   UNL     1       1.387   9.065  19.113  0.00  0.00    +0.000 C 
ATOM     17  C   UNL     1       1.690  10.359  19.891  0.00  0.00    +0.000 C 
ENDROOT
BRANCH   1  18
ATOM     18  C   UNL     1      -0.495  12.356  20.676  0.00  0.00    +0.000 C 
BRANCH  18  21
ATOM     19  C   UNL     1      -1.817  12.131  18.618  0.00  0.00    +0.000 C 
ATOM     20  O   UNL     1      -1.006  12.814  17.997  0.00  0.00    +0.000 OA
ATOM     21  N   UNL     1      -1.642  11.818  19.935  0.00  0.00    +0.000 N 
ATOM     22  H   UNL     1      -2.296  11.190  20.387  0.00  0.00    +0.000 HD
BRANCH  19  23
ATOM     23  O   UNL     1      -2.967  11.620  18.105  0.00  0.00    +0.000 OA
BRANCH  23  25
ATOM     24  C   UNL     1      -3.062  10.907  15.741  0.00  0.00    +0.000 C 
ATOM     25  C   UNL     1      -2.871  10.474  17.203  0.00  0.00    +0.000 C 
ATOM     26  C   UNL     1      -3.866   9.361  17.577  0.00  0.00    +0.000 C 
ATOM     27  C   UNL     1      -1.446   9.901  17.334  0.00  0.00    +0.000 C 
ENDBRANCH  23  25
ENDBRANCH  19  23
ENDBRANCH  18  21
BRANCH  18  28
ATOM     28  C   UNL     1      -0.840  13.717  21.304  0.00  0.00    +0.000 C 
BRANCH  28  29
ATOM     29  C   UNL     1      -0.058  14.917  20.767  0.00  0.00    +0.000 C 
BRANCH  29  30
ATOM     30  C   UNL     1      -0.940  15.795  19.896  0.00  0.00    +0.000 C 
ATOM     31  O   UNL     1      -1.764  16.593  20.308  0.00  0.00    +0.000 OA
BRANCH  30  32
ATOM     32  O   UNL     1      -0.729  15.596  18.574  0.00  0.00    +0.000 OA
ATOM     33  H   UNL     1       0.143  15.898  18.259  0.00  0.00    +0.000 HD
ENDBRANCH  30  32
ENDBRANCH  29  30
ENDBRANCH  28  29
ENDBRANCH  18  28
ENDBRANCH   1  18
TORSDOF 8
ENDMDL
MODEL 6
REMARK VINA RESULT:      -7.2      2.479      4.043
REMARK  Name = 
REMARK  11 active torsions:
REMARK  status: ('A' for Active; 'I' for Inactive)
REMARK    1  A    between atoms: C_1  and  C_2
REMARK    2  A    between atoms: C_2  and  C_3
REMARK    3  A    between atoms: C_2  and  C_4
REMARK    4  A    between atoms: C_2  and  O_5
REMARK    5  A    between atoms: O_5  and  C_6
REMARK    6  A    between atoms: N_8  and  C_9
REMARK    7  A    between atoms: C_9  and  C_10
REMARK    8  A    between atoms: C_9  and  C_15
REMARK    9  A    between atoms: C_10  and  C_11
REMARK   10  A    between atoms: C_11  and  C_12
REMARK   11  A    between atoms: C_12  and  O_14
REMARK                            x       y       z     vdW  Elec       q    Type
REMARK                         _______ _______ _______ _____ _____    ______ ____
ROOT
ATOM      1  C   UNL     1       0.337  11.387  19.389  0.00  0.00    +0.000 C 
ATOM      2  O   UNL     1       0.286  12.204  18.462  0.00  0.00    +0.000 OA
ATOM      3  N   UNL     1       0.550  10.033  19.155  0.00  0.00    +0.000 N 
ATOM      4  C   UNL     1       0.966   9.577  17.822  0.00  0.00    +0.000 C 
ATOM      5  C   UNL     1       2.271   8.751  17.871  0.00  0.00    +0.000 C 
ATOM      6  N   UNL     1       2.208   7.708  18.901  0.00  0.00    +0.000 N 
ATOM      7  C   UNL     1       2.648   6.425  18.710  0.00  0.00    +0.000 A 
ATOM      8  N   UNL     1       2.073   5.386  19.313  0.00  0.00    +0.000 NA
ATOM      9  S   UNL     1       2.795   3.984  18.834  0.00  0.00    +0.000 S 
ATOM     10  C   UNL     1       3.993   4.707  17.845  0.00  0.00    +0.000 A 
ATOM     11  C   UNL     1       5.037   4.104  17.121  0.00  0.00    +0.000 A 
ATOM     12  C   UNL     1       5.914   4.929  16.402  0.00  0.00    +0.000 A 
ATOM     13  C   UNL     1       5.753   6.305  16.405  0.00  0.00    +0.000 A 
ATOM     14  C   UNL     1       4.713   6.884  17.130  0.00  0.00    +0.000 A 
ATOM     15  C   UNL     1       3.791   6.092  17.865  0.00  0.00    +0.000 A 
ATOM     16  C   UNL     1       1.796   8.168  20.234  0.00  0.00    +0.000 C 
ATOM     17  C   UNL     1       0.461   8.926  20.130  0.00  0.00    +0.000 C 
ENDROOT
BRANCH   1  18
ATOM     18  C   UNL     1       0.194  11.892  20.848  0.00  0.00    +0.000 C 
BRANCH  18  21
ATOM     19  C   UNL     1       1.633  13.856  21.179  0.00  0.00    +0.000 C 
ATOM     20  O   UNL     1       2.624  13.138  21.288  0.00  0.00    +0.000 OA
ATOM     21  N   UNL     1       0.393  13.345  20.928  0.00  0.00    +0.000 N 
ATOM     22  H   UNL     1      -0.382  13.978  20.771  0.00  0.00    +0.000 HD
BRANCH  19  23
ATOM     23  O   UNL     1       1.628  15.209  21.302  0.00  0.00    +0.000 OA
BRANCH  23  25
ATOM     24  C   UNL     1       0.384  16.634  19.712  0.00  0.00    +0.000 C 
ATOM     25  C   UNL     1       1.739  16.014  20.087  0.00  0.00    +0.000 C 
ATOM     26  C   UNL     1       2.313  15.205  18.910  0.00  0.00    +0.000 C 
ATOM     27  C   UNL     1       2.711  17.172  20.387  0.00  0.00    +0.000 C 
ENDBRANCH  23  25
ENDBRANCH  19  23
ENDBRANCH  18  21
BRANCH  18  28
ATOM     28  C   UNL     1      -1.105  11.478  21.558  0.00  0.00    +0.000 C 
BRANCH  28  29
ATOM     29  C   UNL     1      -0.979  11.162  23.049  0.00  0.00    +0.000 C 
BRANCH  29  30
ATOM     30  C   UNL     1      -0.280   9.830  23.266  0.00  0.00    +0.000 C 
ATOM     31  O   UNL     1       0.888   9.694  23.587  0.00  0.00    +0.000 OA
BRANCH  30  32
ATOM     32  O   UNL     1      -1.096   8.773  23.050  0.00  0.00    +0.000 OA
ATOM     33  H   UNL     1      -1.010   8.060  23.712  0.00  0.00    +0.000 HD
ENDBRANCH  30  32
ENDBRANCH  29  30
ENDBRANCH  28  29
ENDBRANCH  18  28
ENDBRANCH   1  18
TORSDOF 8
ENDMDL
MODEL 7
REMARK VINA RESULT:      -7.2      1.928      4.350
REMARK  Name = 
REMARK  11 active torsions:
REMARK  status: ('A' for Active; 'I' for Inactive)
REMARK    1  A    between atoms: C_1  and  C_2
REMARK    2  A    between atoms: C_2  and  C_3
REMARK    3  A    between atoms: C_2  and  C_4
REMARK    4  A    between atoms: C_2  and  O_5
REMARK    5  A    between atoms: O_5  and  C_6
REMARK    6  A    between atoms: N_8  and  C_9
REMARK    7  A    between atoms: C_9  and  C_10
REMARK    8  A    between atoms: C_9  and  C_15
REMARK    9  A    between atoms: C_10  and  C_11
REMARK   10  A    between atoms: C_11  and  C_12
REMARK   11  A    between atoms: C_12  and  O_14
REMARK                            x       y       z     vdW  Elec       q    Type
REMARK                         _______ _______ _______ _____ _____    ______ ____
ROOT
ATOM      1  C   UNL     1      -0.060  11.735  20.123  0.00  0.00    +0.000 C 
ATOM      2  O   UNL     1      -0.412  11.981  21.282  0.00  0.00    +0.000 OA
ATOM      3  N   UNL     1       0.922  10.789  19.847  0.00  0.00    +0.000 N 
ATOM      4  C   UNL     1       1.388   9.886  20.907  0.00  0.00    +0.000 C 
ATOM      5  C   UNL     1       1.256   8.400  20.505  0.00  0.00    +0.000 C 
ATOM      6  N   UNL     1       1.820   8.151  19.175  0.00  0.00    +0.000 N 
ATOM      7  C   UNL     1       2.604   7.070  18.873  0.00  0.00    +0.000 A 
ATOM      8  N   UNL     1       3.577   7.136  17.965  0.00  0.00    +0.000 NA
ATOM      9  S   UNL     1       4.366   5.691  17.876  0.00  0.00    +0.000 S 
ATOM     10  C   UNL     1       3.379   4.858  19.001  0.00  0.00    +0.000 A 
ATOM     11  C   UNL     1       3.432   3.514  19.412  0.00  0.00    +0.000 A 
ATOM     12  C   UNL     1       2.480   3.061  20.337  0.00  0.00    +0.000 A 
ATOM     13  C   UNL     1       1.513   3.918  20.835  0.00  0.00    +0.000 A 
ATOM     14  C   UNL     1       1.476   5.247  20.414  0.00  0.00    +0.000 A 
ATOM     15  C   UNL     1       2.424   5.758  19.488  0.00  0.00    +0.000 A 
ATOM     16  C   UNL     1       1.349   9.053  18.115  0.00  0.00    +0.000 C 
ATOM     17  C   UNL     1       1.566  10.515  18.546  0.00  0.00    +0.000 C 
ENDROOT
BRANCH   1  18
ATOM     18  C   UNL     1      -0.755  12.472  18.950  0.00  0.00    +0.000 C 
BRANCH  18  21
ATOM     19  C   UNL     1      -3.082  11.690  18.850  0.00  0.00    +0.000 C 
ATOM     20  O   UNL     1      -2.724  10.625  18.350  0.00  0.00    +0.000 OA
ATOM     21  N   UNL     1      -2.188  12.654  19.214  0.00  0.00    +0.000 N 
ATOM     22  H   UNL     1      -2.520  13.484  19.691  0.00  0.00    +0.000 HD
BRANCH  19  23
ATOM     23  O   UNL     1      -4.370  12.050  19.089  0.00  0.00    +0.000 OA
BRANCH  23  25
ATOM     24  C   UNL     1      -4.653  11.535  16.689  0.00  0.00    +0.000 C 
ATOM     25  C   UNL     1      -5.348  11.868  18.018  0.00  0.00    +0.000 C 
ATOM     26  C   UNL     1      -6.267  13.092  17.862  0.00  0.00    +0.000 C 
ATOM     27  C   UNL     1      -6.227  10.659  18.397  0.00  0.00    +0.000 C 
ENDBRANCH  23  25
ENDBRANCH  19  23
ENDBRANCH  18  21
BRANCH  18  28
ATOM     28  C   UNL     1      -0.102  13.801  18.536  0.00  0.00    +0.000 C 
BRANCH  28  29
ATOM     29  C   UNL     1      -0.494  15.025  19.364  0.00  0.00    +0.000 C 
BRANCH  29  30
ATOM     30  C   UNL     1      -0.175  16.311  18.620  0.00  0.00    +0.000 C 
ATOM     31  O   UNL     1       0.940  16.665  18.277  0.00  0.00    +0.000 OA
BRANCH  30  32
ATOM     32  O   UNL     1      -1.276  17.058  18.375  0.00  0.00    +0.000 OA
ATOM     33  H   UNL     1      -1.916  16.640  17.769  0.00  0.00    +0.000 HD
ENDBRANCH  30  32
ENDBRANCH  29  30
ENDBRANCH  28  29
ENDBRANCH  18  28
ENDBRANCH   1  18
TORSDOF 8
ENDMDL
MODEL 8
REMARK VINA RESULT:      -7.1      1.910      4.191
REMARK  Name = 
REMARK  11 active torsions:
REMARK  status: ('A' for Active; 'I' for Inactive)
REMARK    1  A    between atoms: C_1  and  C_2
REMARK    2  A    between atoms: C_2  and  C_3
REMARK    3  A    between atoms: C_2  and  C_4
REMARK    4  A    between atoms: C_2  and  O_5
REMARK    5  A    between atoms: O_5  and  C_6
REMARK    6  A    between atoms: N_8  and  C_9
REMARK    7  A    between atoms: C_9  and  C_10
REMARK    8  A    between atoms: C_9  and  C_15
REMARK    9  A    between atoms: C_10  and  C_11
REMARK   10  A    between atoms: C_11  and  C_12
REMARK   11  A    between atoms: C_12  and  O_14
REMARK                            x       y       z     vdW  Elec       q    Type
REMARK                         _______ _______ _______ _____ _____    ______ ____
ROOT
ATOM      1  C   UNL     1      -0.111  10.359  20.690  0.00  0.00    +0.000 C 
ATOM      2  O   UNL     1      -0.503  10.111  21.836  0.00  0.00    +0.000 OA
ATOM      3  N   UNL     1       0.990   9.709  20.141  0.00  0.00    +0.000 N 
ATOM      4  C   UNL     1       1.560   8.537  20.818  0.00  0.00    +0.000 C 
ATOM      5  C   UNL     1       1.628   7.305  19.887  0.00  0.00    +0.000 C 
ATOM      6  N   UNL     1       2.233   7.641  18.594  0.00  0.00    +0.000 N 
ATOM      7  C   UNL     1       3.156   6.852  17.960  0.00  0.00    +0.000 A 
ATOM      8  N   UNL     1       4.120   7.368  17.199  0.00  0.00    +0.000 NA
ATOM      9  S   UNL     1       5.093   6.166  16.628  0.00  0.00    +0.000 S 
ATOM     10  C   UNL     1       4.213   4.861  17.306  0.00  0.00    +0.000 A 
ATOM     11  C   UNL     1       4.439   3.478  17.193  0.00  0.00    +0.000 A 
ATOM     12  C   UNL     1       3.546   2.602  17.828  0.00  0.00    +0.000 A 
ATOM     13  C   UNL     1       2.470   3.090  18.551  0.00  0.00    +0.000 A 
ATOM     14  C   UNL     1       2.263   4.466  18.651  0.00  0.00    +0.000 A 
ATOM     15  C   UNL     1       3.144   5.394  18.035  0.00  0.00    +0.000 A 
ATOM     16  C   UNL     1       1.658   8.812  17.918  0.00  0.00    +0.000 C 
ATOM     17  C   UNL     1       1.676  10.020  18.870  0.00  0.00    +0.000 C 
ENDROOT
BRANCH   1  18
ATOM     18  C   UNL     1      -0.886  11.394  19.835  0.00  0.00    +0.000 C 
BRANCH  18  21
ATOM     19  C   UNL     1      -2.696  11.191  18.185  0.00  0.00    +0.000 C 
ATOM     20  O   UNL     1      -2.074  11.887  17.386  0.00  0.00    +0.000 OA
ATOM     21  N   UNL     1      -2.186  10.861  19.407  0.00  0.00    +0.000 N 
ATOM     22  H   UNL     1      -2.700  10.223  20.003  0.00  0.00    +0.000 HD
BRANCH  19  23
ATOM     23  O   UNL     1      -3.939  10.683  17.980  0.00  0.00    +0.000 OA
BRANCH  23  25
ATOM     24  C   UNL     1      -5.541  12.326  17.063  0.00  0.00    +0.000 C 
ATOM     25  C   UNL     1      -5.091  11.526  18.295  0.00  0.00    +0.000 C 
ATOM     26  C   UNL     1      -4.811  12.463  19.483  0.00  0.00    +0.000 C 
ATOM     27  C   UNL     1      -6.252  10.592  18.690  0.00  0.00    +0.000 C 
ENDBRANCH  23  25
ENDBRANCH  19  23
ENDBRANCH  18  21
BRANCH  18  28
ATOM     28  C   UNL     1      -1.049  12.781  20.477  0.00  0.00    +0.000 C 
BRANCH  28  29
ATOM     29  C   UNL     1       0.204  13.657  20.502  0.00  0.00    +0.000 C 
BRANCH  29  30
ATOM     30  C   UNL     1       0.421  14.335  19.159  0.00  0.00    +0.000 C 
ATOM     31  O   UNL     1       1.479  14.797  18.768  0.00  0.00    +0.000 OA
BRANCH  30  32
ATOM     32  O   UNL     1      -0.708  14.390  18.416  0.00  0.00    +0.000 OA
ATOM     33  H   UNL     1      -1.440  14.879  18.837  0.00  0.00    +0.000 HD
ENDBRANCH  30  32
ENDBRANCH  29  30
ENDBRANCH  28  29
ENDBRANCH  18  28
ENDBRANCH   1  18
TORSDOF 8
ENDMDL
MODEL 9
REMARK VINA RESULT:      -7.1      1.768      4.173
REMARK  Name = 
REMARK  11 active torsions:
REMARK  status: ('A' for Active; 'I' for Inactive)
REMARK    1  A    between atoms: C_1  and  C_2
REMARK    2  A    between atoms: C_2  and  C_3
REMARK    3  A    between atoms: C_2  and  C_4
REMARK    4  A    between atoms: C_2  and  O_5
REMARK    5  A    between atoms: O_5  and  C_6
REMARK    6  A    between atoms: N_8  and  C_9
REMARK    7  A    between atoms: C_9  and  C_10
REMARK    8  A    between atoms: C_9  and  C_15
REMARK    9  A    between atoms: C_10  and  C_11
REMARK   10  A    between atoms: C_11  and  C_12
REMARK   11  A    between atoms: C_12  and  O_14
REMARK                            x       y       z     vdW  Elec       q    Type
REMARK                         _______ _______ _______ _____ _____    ______ ____
ROOT
ATOM      1  C   UNL     1       0.204  10.373  20.943  0.00  0.00    +0.000 C 
ATOM      2  O   UNL     1      -0.321  10.138  22.037  0.00  0.00    +0.000 OA
ATOM      3  N   UNL     1       1.204   9.556  20.426  0.00  0.00    +0.000 N 
ATOM      4  C   UNL     1       1.486   8.259  21.054  0.00  0.00    +0.000 C 
ATOM      5  C   UNL     1       1.399   7.093  20.043  0.00  0.00    +0.000 C 
ATOM      6  N   UNL     1       2.160   7.380  18.823  0.00  0.00    +0.000 N 
ATOM      7  C   UNL     1       2.967   6.467  18.199  0.00  0.00    +0.000 A 
ATOM      8  N   UNL     1       4.070   6.831  17.547  0.00  0.00    +0.000 NA
ATOM      9  S   UNL     1       4.844   5.499  16.959  0.00  0.00    +0.000 S 
ATOM     10  C   UNL     1       3.682   4.351  17.477  0.00  0.00    +0.000 A 
ATOM     11  C   UNL     1       3.653   2.959  17.280  0.00  0.00    +0.000 A 
ATOM     12  C   UNL     1       2.562   2.237  17.785  0.00  0.00    +0.000 A 
ATOM     13  C   UNL     1       1.541   2.880  18.465  0.00  0.00    +0.000 A 
ATOM     14  C   UNL     1       1.588   4.261  18.650  0.00  0.00    +0.000 A 
ATOM     15  C   UNL     1       2.676   5.037  18.167  0.00  0.00    +0.000 A 
ATOM     16  C   UNL     1       1.873   8.677  18.195  0.00  0.00    +0.000 C 
ATOM     17  C   UNL     1       2.039   9.802  19.232  0.00  0.00    +0.000 C 
ENDROOT
BRANCH   1  18
ATOM     18  C   UNL     1      -0.291  11.586  20.113  0.00  0.00    +0.000 C 
BRANCH  18  21
ATOM     19  C   UNL     1      -2.286  11.910  18.716  0.00  0.00    +0.000 C 
ATOM     20  O   UNL     1      -1.588  12.247  17.762  0.00  0.00    +0.000 OA
ATOM     21  N   UNL     1      -1.743  11.532  19.911  0.00  0.00    +0.000 N 
ATOM     22  H   UNL     1      -2.351  11.190  20.645  0.00  0.00    +0.000 HD
BRANCH  19  23
ATOM     23  O   UNL     1      -3.644  11.880  18.723  0.00  0.00    +0.000 OA
BRANCH  23  25
ATOM     24  C   UNL     1      -5.697  10.532  18.450  0.00  0.00    +0.000 C 
ATOM     25  C   UNL     1      -4.316  10.892  17.880  0.00  0.00    +0.000 C 
ATOM     26  C   UNL     1      -3.462   9.628  17.680  0.00  0.00    +0.000 C 
ATOM     27  C   UNL     1      -4.539  11.539  16.499  0.00  0.00    +0.000 C 
ENDBRANCH  23  25
ENDBRANCH  19  23
ENDBRANCH  18  21
BRANCH  18  28
ATOM     28  C   UNL     1       0.136  12.962  20.651  0.00  0.00    +0.000 C 
BRANCH  28  29
ATOM     29  C   UNL     1       1.539  13.427  20.256  0.00  0.00    +0.000 C 
BRANCH  29  30
ATOM     30  C   UNL     1       1.545  14.003  18.849  0.00  0.00    +0.000 C 
ATOM     31  O   UNL     1       1.698  15.181  18.574  0.00  0.00    +0.000 OA
BRANCH  30  32
ATOM     32  O   UNL     1       1.347  13.060  17.900  0.00  0.00    +0.000 OA
ATOM     33  H   UNL     1       0.420  12.765  17.818  0.00  0.00    +0.000 HD
ENDBRANCH  30  32
ENDBRANCH  29  30
ENDBRANCH  28  29
ENDBRANCH  18  28
ENDBRANCH   1  18
TORSDOF 8
ENDMDL
