MODEL 1
REMARK VINA RESULT:      -5.6      0.000      0.000
REMARK  Name = 
REMARK  8 active torsions:
REMARK  status: ('A' for Active; 'I' for Inactive)
REMARK    1  A    between atoms: C_1  and  C_2
REMARK    2  A    between atoms: C_2  and  C_3
REMARK    3  A    between atoms: C_3  and  C_4
REMARK    4  A    between atoms: C_3  and  N_5
REMARK    5  A    between atoms: N_5  and  C_6
REMARK    6  A    between atoms: C_6  and  C_7
REMARK    7  A    between atoms: C_7  and  O_8
REMARK    8  A    between atoms: O_8  and  C_9
REMARK                            x       y       z     vdW  Elec       q    Type
REMARK                         _______ _______ _______ _____ _____    ______ ____
ROOT
ATOM      1  C   UNL     1       5.123   5.240  15.866  0.00  0.00    +0.000 C 
ENDROOT
BRANCH   1   2
ATOM      2  C   UNL     1       6.524   5.073  15.286  0.00  0.00    +0.000 C 
BRANCH   2   3
ATOM      3  N   UNL     1       7.485   6.029  15.845  0.00  0.00    +0.000 NA
ATOM      4  H   UNL     1       8.414   5.603  15.858  0.00  0.00    +0.000 HD
BRANCH   3   5
ATOM      5  C   UNL     1       7.139   6.453  17.216  0.00  0.00    +0.000 C 
ATOM      6  C   UNL     1       7.703   7.841  17.543  0.00  0.00    +0.000 C 
BRANCH   5   8
ATOM      7  C   UNL     1       7.124   5.517  19.608  0.00  0.00    +0.000 C 
ATOM      8  C   UNL     1       7.681   5.389  18.194  0.00  0.00    +0.000 C 
ENDBRANCH   5   8
ENDBRANCH   3   5
ENDBRANCH   2   3
ENDBRANCH   1   2
BRANCH   1   9
ATOM      9  O   UNL     1       4.571   3.929  16.054  0.00  0.00    +0.000 OA
BRANCH   9  10
ATOM     10  C   UNL     1       3.981   3.701  17.263  0.00  0.00    +0.000 A 
ATOM     11  C   UNL     1       3.632   2.436  17.749  0.00  0.00    +0.000 A 
ATOM     12  C   UNL     1       3.059   2.302  19.014  0.00  0.00    +0.000 A 
ATOM     13  C   UNL     1       2.840   3.428  19.795  0.00  0.00    +0.000 A 
ATOM     14 BR   UNL     1       2.089   3.229  21.518  0.00  0.00    +0.000 Br
ATOM     15  C   UNL     1       3.181   4.695  19.324  0.00  0.00    +0.000 A 
ATOM     16  C   UNL     1       3.749   4.826  18.053  0.00  0.00    +0.000 A 
ENDBRANCH   9  10
ENDBRANCH   1   9
TORSDOF 6
ENDMDL
MODEL 2
REMARK VINA RESULT:      -5.5      2.863      4.525
REMARK  Name = 
REMARK  8 active torsions:
REMARK  status: ('A' for Active; 'I' for Inactive)
REMARK    1  A    between atoms: C_1  and  C_2
REMARK    2  A    between atoms: C_2  and  C_3
REMARK    3  A    between atoms: C_3  and  C_4
REMARK    4  A    between atoms: C_3  and  N_5
REMARK    5  A    between atoms: N_5  and  C_6
REMARK    6  A    between atoms: C_6  and  C_7
REMARK    7  A    between atoms: C_7  and  O_8
REMARK    8  A    between atoms: O_8  and  C_9
REMARK                            x       y       z     vdW  Elec       q    Type
REMARK                         _______ _______ _______ _____ _____    ______ ____
ROOT
ATOM      1  C   UNL     1       6.915   4.588  15.642  0.00  0.00    +0.000 C 
ENDROOT
BRANCH   1   2
ATOM      2  C   UNL     1       6.673   4.659  14.138  0.00  0.00    +0.000 C 
BRANCH   2   3
ATOM      3  N   UNL     1       6.249   3.374  13.572  0.00  0.00    +0.000 NA
ATOM      4  H   UNL     1       6.934   2.657  13.819  0.00  0.00    +0.000 HD
BRANCH   3   5
ATOM      5  C   UNL     1       6.112   3.413  12.102  0.00  0.00    +0.000 C 
ATOM      6  C   UNL     1       4.659   3.206  11.660  0.00  0.00    +0.000 C 
BRANCH   5   8
ATOM      7  C   UNL     1       6.292   1.069  11.068  0.00  0.00    +0.000 C 
ATOM      8  C   UNL     1       7.034   2.326  11.510  0.00  0.00    +0.000 C 
ENDBRANCH   5   8
ENDBRANCH   3   5
ENDBRANCH   2   3
ENDBRANCH   1   2
BRANCH   1   9
ATOM      9  O   UNL     1       6.013   3.613  16.182  0.00  0.00    +0.000 OA
BRANCH   9  10
ATOM     10  C   UNL     1       5.181   4.057  17.169  0.00  0.00    +0.000 A 
ATOM     11  C   UNL     1       5.608   4.711  18.331  0.00  0.00    +0.000 A 
ATOM     12  C   UNL     1       4.677   5.156  19.270  0.00  0.00    +0.000 A 
ATOM     13  C   UNL     1       3.322   4.951  19.048  0.00  0.00    +0.000 A 
ATOM     14 BR   UNL     1       2.070   5.582  20.316  0.00  0.00    +0.000 Br
ATOM     15  C   UNL     1       2.882   4.298  17.898  0.00  0.00    +0.000 A 
ATOM     16  C   UNL     1       3.818   3.850  16.961  0.00  0.00    +0.000 A 
ENDBRANCH   9  10
ENDBRANCH   1   9
TORSDOF 6
ENDMDL
MODEL 3
REMARK VINA RESULT:      -5.5      2.779      4.328
REMARK  Name = 
REMARK  8 active torsions:
REMARK  status: ('A' for Active; 'I' for Inactive)
REMARK    1  A    between atoms: C_1  and  C_2
REMARK    2  A    between atoms: C_2  and  C_3
REMARK    3  A    between atoms: C_3  and  C_4
REMARK    4  A    between atoms: C_3  and  N_5
REMARK    5  A    between atoms: N_5  and  C_6
REMARK    6  A    between atoms: C_6  and  C_7
REMARK    7  A    between atoms: C_7  and  O_8
REMARK    8  A    between atoms: O_8  and  C_9
REMARK                            x       y       z     vdW  Elec       q    Type
REMARK                         _______ _______ _______ _____ _____    ______ ____
ROOT
ATOM      1  C   UNL     1       5.791   5.121  15.311  0.00  0.00    +0.000 C 
ENDROOT
BRANCH   1   2
ATOM      2  C   UNL     1       6.695   4.581  14.208  0.00  0.00    +0.000 C 
BRANCH   2   3
ATOM      3  N   UNL     1       6.183   3.343  13.612  0.00  0.00    +0.000 NA
ATOM      4  H   UNL     1       6.820   2.575  13.835  0.00  0.00    +0.000 HD
BRANCH   3   5
ATOM      5  C   UNL     1       6.041   3.430  12.145  0.00  0.00    +0.000 C 
ATOM      6  C   UNL     1       4.599   3.168  11.696  0.00  0.00    +0.000 C 
BRANCH   5   8
ATOM      7  C   UNL     1       6.335   1.133  11.033  0.00  0.00    +0.000 C 
ATOM      8  C   UNL     1       7.014   2.412  11.511  0.00  0.00    +0.000 C 
ENDBRANCH   5   8
ENDBRANCH   3   5
ENDBRANCH   2   3
ENDBRANCH   1   2
BRANCH   1   9
ATOM      9  O   UNL     1       5.790   4.164  16.379  0.00  0.00    +0.000 OA
BRANCH   9  10
ATOM     10  C   UNL     1       4.760   4.268  17.268  0.00  0.00    +0.000 A 
ATOM     11  C   UNL     1       3.499   3.685  17.093  0.00  0.00    +0.000 A 
ATOM     12  C   UNL     1       2.518   3.822  18.075  0.00  0.00    +0.000 A 
ATOM     13  C   UNL     1       2.796   4.536  19.233  0.00  0.00    +0.000 A 
ATOM     14 BR   UNL     1       1.467   4.691  20.567  0.00  0.00    +0.000 Br
ATOM     15  C   UNL     1       4.046   5.124  19.421  0.00  0.00    +0.000 A 
ATOM     16  C   UNL     1       5.025   4.989  18.432  0.00  0.00    +0.000 A 
ENDBRANCH   9  10
ENDBRANCH   1   9
TORSDOF 6
ENDMDL
MODEL 4
REMARK VINA RESULT:      -5.5      0.986      1.037
REMARK  Name = 
REMARK  8 active torsions:
REMARK  status: ('A' for Active; 'I' for Inactive)
REMARK    1  A    between atoms: C_1  and  C_2
REMARK    2  A    between atoms: C_2  and  C_3
REMARK    3  A    between atoms: C_3  and  C_4
REMARK    4  A    between atoms: C_3  and  N_5
REMARK    5  A    between atoms: N_5  and  C_6
REMARK    6  A    between atoms: C_6  and  C_7
REMARK    7  A    between atoms: C_7  and  O_8
REMARK    8  A    between atoms: O_8  and  C_9
REMARK                            x       y       z     vdW  Elec       q    Type
REMARK                         _______ _______ _______ _____ _____    ______ ____
ROOT
ATOM      1  C   UNL     1       5.162   4.306  15.829  0.00  0.00    +0.000 C 
ENDROOT
BRANCH   1   2
ATOM      2  C   UNL     1       6.633   4.675  15.990  0.00  0.00    +0.000 C 
BRANCH   2   3
ATOM      3  N   UNL     1       6.844   6.122  16.102  0.00  0.00    +0.000 NA
ATOM      4  H   UNL     1       7.683   6.380  15.579  0.00  0.00    +0.000 HD
BRANCH   3   5
ATOM      5  C   UNL     1       7.002   6.570  17.500  0.00  0.00    +0.000 C 
ATOM      6  C   UNL     1       7.816   7.866  17.595  0.00  0.00    +0.000 C 
BRANCH   5   8
ATOM      7  C   UNL     1       7.986   5.790  19.741  0.00  0.00    +0.000 C 
ATOM      8  C   UNL     1       7.678   5.430  18.292  0.00  0.00    +0.000 C 
ENDBRANCH   5   8
ENDBRANCH   3   5
ENDBRANCH   2   3
ENDBRANCH   1   2
BRANCH   1   9
ATOM      9  O   UNL     1       4.402   5.161  16.693  0.00  0.00    +0.000 OA
BRANCH   9  10
ATOM     10  C   UNL     1       3.810   4.551  17.761  0.00  0.00    +0.000 A 
ATOM     11  C   UNL     1       4.486   3.756  18.694  0.00  0.00    +0.000 A 
ATOM     12  C   UNL     1       3.797   3.198  19.773  0.00  0.00    +0.000 A 
ATOM     13  C   UNL     1       2.438   3.437  19.921  0.00  0.00    +0.000 A 
ATOM     14 BR   UNL     1       1.523   2.699  21.400  0.00  0.00    +0.000 Br
ATOM     15  C   UNL     1       1.751   4.225  18.998  0.00  0.00    +0.000 A 
ATOM     16  C   UNL     1       2.443   4.778  17.916  0.00  0.00    +0.000 A 
ENDBRANCH   9  10
ENDBRANCH   1   9
TORSDOF 6
ENDMDL
MODEL 5
REMARK VINA RESULT:      -5.4      1.470      2.789
REMARK  Name = 
REMARK  8 active torsions:
REMARK  status: ('A' for Active; 'I' for Inactive)
REMARK    1  A    between atoms: C_1  and  C_2
REMARK    2  A    between atoms: C_2  and  C_3
REMARK    3  A    between atoms: C_3  and  C_4
REMARK    4  A    between atoms: C_3  and  N_5
REMARK    5  A    between atoms: N_5  and  C_6
REMARK    6  A    between atoms: C_6  and  C_7
REMARK    7  A    between atoms: C_7  and  O_8
REMARK    8  A    between atoms: O_8  and  C_9
REMARK                            x       y       z     vdW  Elec       q    Type
REMARK                         _______ _______ _______ _____ _____    ______ ____
ROOT
ATOM      1  C   UNL     1       7.206   5.698  18.600  0.00  0.00    +0.000 C 
ENDROOT
BRANCH   1   2
ATOM      2  C   UNL     1       7.234   6.482  17.291  0.00  0.00    +0.000 C 
BRANCH   2   3
ATOM      3  N   UNL     1       7.254   5.612  16.111  0.00  0.00    +0.000 NA
ATOM      4  H   UNL     1       8.085   5.821  15.554  0.00  0.00    +0.000 HD
BRANCH   3   5
ATOM      5  C   UNL     1       6.060   5.777  15.258  0.00  0.00    +0.000 C 
ATOM      6  C   UNL     1       4.957   6.570  15.970  0.00  0.00    +0.000 C 
BRANCH   5   8
ATOM      7  C   UNL     1       6.219   3.828  13.593  0.00  0.00    +0.000 C 
ATOM      8  C   UNL     1       5.563   4.371  14.858  0.00  0.00    +0.000 C 
ENDBRANCH   5   8
ENDBRANCH   3   5
ENDBRANCH   2   3
ENDBRANCH   1   2
BRANCH   1   9
ATOM      9  O   UNL     1       6.652   4.405  18.320  0.00  0.00    +0.000 OA
BRANCH   9  10
ATOM     10  C   UNL     1       5.341   4.235  18.663  0.00  0.00    +0.000 A 
ATOM     11  C   UNL     1       4.546   3.162  18.245  0.00  0.00    +0.000 A 
ATOM     12  C   UNL     1       3.222   3.059  18.674  0.00  0.00    +0.000 A 
ATOM     13  C   UNL     1       2.695   4.022  19.523  0.00  0.00    +0.000 A 
ATOM     14 BR   UNL     1       0.909   3.856  20.118  0.00  0.00    +0.000 Br
ATOM     15  C   UNL     1       3.474   5.098  19.945  0.00  0.00    +0.000 A 
ATOM     16  C   UNL     1       4.799   5.201  19.509  0.00  0.00    +0.000 A 
ENDBRANCH   9  10
ENDBRANCH   1   9
TORSDOF 6
ENDMDL
MODEL 6
REMARK VINA RESULT:      -5.3      2.465      4.085
REMARK  Name = 
REMARK  8 active torsions:
REMARK  status: ('A' for Active; 'I' for Inactive)
REMARK    1  A    between atoms: C_1  and  C_2
REMARK    2  A    between atoms: C_2  and  C_3
REMARK    3  A    between atoms: C_3  and  C_4
REMARK    4  A    between atoms: C_3  and  N_5
REMARK    5  A    between atoms: N_5  and  C_6
REMARK    6  A    between atoms: C_6  and  C_7
REMARK    7  A    between atoms: C_7  and  O_8
REMARK    8  A    between atoms: O_8  and  C_9
REMARK                            x       y       z     vdW  Elec       q    Type
REMARK                         _______ _______ _______ _____ _____    ______ ____
ROOT
ATOM      1  C   UNL     1       5.218   3.968  16.059  0.00  0.00    +0.000 C 
ENDROOT
BRANCH   1   2
ATOM      2  C   UNL     1       5.520   4.423  14.635  0.00  0.00    +0.000 C 
BRANCH   2   3
ATOM      3  N   UNL     1       6.511   3.572  13.967  0.00  0.00    +0.000 NA
ATOM      4  H   UNL     1       7.429   4.018  14.022  0.00  0.00    +0.000 HD
BRANCH   3   5
ATOM      5  C   UNL     1       6.189   3.325  12.547  0.00  0.00    +0.000 C 
ATOM      6  C   UNL     1       7.102   4.122  11.609  0.00  0.00    +0.000 C 
BRANCH   5   8
ATOM      7  C   UNL     1       4.122   3.131  11.034  0.00  0.00    +0.000 C 
ATOM      8  C   UNL     1       4.706   3.694  12.325  0.00  0.00    +0.000 C 
ENDBRANCH   5   8
ENDBRANCH   3   5
ENDBRANCH   2   3
ENDBRANCH   1   2
BRANCH   1   9
ATOM      9  O   UNL     1       4.301   4.911  16.631  0.00  0.00    +0.000 OA
BRANCH   9  10
ATOM     10  C   UNL     1       3.605   4.476  17.721  0.00  0.00    +0.000 A 
ATOM     11  C   UNL     1       2.228   4.649  17.903  0.00  0.00    +0.000 A 
ATOM     12  C   UNL     1       1.599   4.140  19.040  0.00  0.00    +0.000 A 
ATOM     13  C   UNL     1       2.343   3.455  19.991  0.00  0.00    +0.000 A 
ATOM     14 BR   UNL     1       1.474   2.747  21.513  0.00  0.00    +0.000 Br
ATOM     15  C   UNL     1       3.715   3.277  19.825  0.00  0.00    +0.000 A 
ATOM     16  C   UNL     1       4.343   3.793  18.686  0.00  0.00    +0.000 A 
ENDBRANCH   9  10
ENDBRANCH   1   9
TORSDOF 6
ENDMDL
MODEL 7
REMARK VINA RESULT:      -5.3      1.884      3.045
REMARK  Name = 
REMARK  8 active torsions:
REMARK  status: ('A' for Active; 'I' for Inactive)
REMARK    1  A    between atoms: C_1  and  C_2
REMARK    2  A    between atoms: C_2  and  C_3
REMARK    3  A    between atoms: C_3  and  C_4
REMARK    4  A    between atoms: C_3  and  N_5
REMARK    5  A    between atoms: N_5  and  C_6
REMARK    6  A    between atoms: C_6  and  C_7
REMARK    7  A    between atoms: C_7  and  O_8
REMARK    8  A    between atoms: O_8  and  C_9
REMARK                            x       y       z     vdW  Elec       q    Type
REMARK                         _______ _______ _______ _____ _____    ______ ____
ROOT
ATOM      1  C   UNL     1       6.855   5.676  18.560  0.00  0.00    +0.000 C 
ENDROOT
BRANCH   1   2
ATOM      2  C   UNL     1       7.630   4.638  17.754  0.00  0.00    +0.000 C 
BRANCH   2   3
ATOM      3  N   UNL     1       6.902   4.189  16.563  0.00  0.00    +0.000 NA
ATOM      4  H   UNL     1       7.462   3.487  16.072  0.00  0.00    +0.000 HD
BRANCH   3   5
ATOM      5  C   UNL     1       6.600   5.291  15.628  0.00  0.00    +0.000 C 
ATOM      6  C   UNL     1       5.113   5.667  15.653  0.00  0.00    +0.000 C 
BRANCH   5   8
ATOM      7  C   UNL     1       6.136   3.787  13.598  0.00  0.00    +0.000 C 
ATOM      8  C   UNL     1       7.038   4.850  14.215  0.00  0.00    +0.000 C 
ENDBRANCH   5   8
ENDBRANCH   3   5
ENDBRANCH   2   3
ENDBRANCH   1   2
BRANCH   1   9
ATOM      9  O   UNL     1       6.270   5.004  19.684  0.00  0.00    +0.000 OA
BRANCH   9  10
ATOM     10  C   UNL     1       5.052   4.428  19.464  0.00  0.00    +0.000 A 
ATOM     11  C   UNL     1       4.804   3.052  19.523  0.00  0.00    +0.000 A 
ATOM     12  C   UNL     1       3.516   2.560  19.312  0.00  0.00    +0.000 A 
ATOM     13  C   UNL     1       2.476   3.440  19.047  0.00  0.00    +0.000 A 
ATOM     14 BR   UNL     1       0.731   2.762  18.790  0.00  0.00    +0.000 Br
ATOM     15  C   UNL     1       2.708   4.813  18.982  0.00  0.00    +0.000 A 
ATOM     16  C   UNL     1       4.002   5.302  19.189  0.00  0.00    +0.000 A 
ENDBRANCH   9  10
ENDBRANCH   1   9
TORSDOF 6
ENDMDL
MODEL 8
REMARK VINA RESULT:      -5.3      2.465      4.153
REMARK  Name = 
REMARK  8 active torsions:
REMARK  status: ('A' for Active; 'I' for Inactive)
REMARK    1  A    between atoms: C_1  and  C_2
REMARK    2  A    between atoms: C_2  and  C_3
REMARK    3  A    between atoms: C_3  and  C_4
REMARK    4  A    between atoms: C_3  and  N_5
REMARK    5  A    between atoms: N_5  and  C_6
REMARK    6  A    between atoms: C_6  and  C_7
REMARK    7  A    between atoms: C_7  and  O_8
REMARK    8  A    between atoms: O_8  and  C_9
REMARK                            x       y       z     vdW  Elec       q    Type
REMARK                         _______ _______ _______ _____ _____    ______ ____
ROOT
ATOM      1  C   UNL     1       6.631   4.566  16.137  0.00  0.00    +0.000 C 
ENDROOT
BRANCH   1   2
ATOM      2  C   UNL     1       6.837   4.627  14.626  0.00  0.00    +0.000 C 
BRANCH   2   3
ATOM      3  N   UNL     1       6.042   3.626  13.906  0.00  0.00    +0.000 NA
ATOM      4  H   UNL     1       5.984   2.776  14.470  0.00  0.00    +0.000 HD
BRANCH   3   5
ATOM      5  C   UNL     1       6.614   3.282  12.589  0.00  0.00    +0.000 C 
ATOM      6  C   UNL     1       7.121   4.524  11.846  0.00  0.00    +0.000 C 
BRANCH   5   8
ATOM      7  C   UNL     1       4.312   3.421  11.459  0.00  0.00    +0.000 C 
ATOM      8  C   UNL     1       5.525   2.553  11.773  0.00  0.00    +0.000 C 
ENDBRANCH   5   8
ENDBRANCH   3   5
ENDBRANCH   2   3
ENDBRANCH   1   2
BRANCH   1   9
ATOM      9  O   UNL     1       5.631   5.535  16.479  0.00  0.00    +0.000 OA
BRANCH   9  10
ATOM     10  C   UNL     1       4.700   5.130  17.392  0.00  0.00    +0.000 A 
ATOM     11  C   UNL     1       4.652   5.566  18.721  0.00  0.00    +0.000 A 
ATOM     12  C   UNL     1       3.641   5.118  19.572  0.00  0.00    +0.000 A 
ATOM     13  C   UNL     1       2.678   4.240  19.096  0.00  0.00    +0.000 A 
ATOM     14 BR   UNL     1       1.299   3.662  20.251  0.00  0.00    +0.000 Br
ATOM     15  C   UNL     1       2.714   3.795  17.775  0.00  0.00    +0.000 A 
ATOM     16  C   UNL     1       3.732   4.242  16.927  0.00  0.00    +0.000 A 
ENDBRANCH   9  10
ENDBRANCH   1   9
TORSDOF 6
ENDMDL
MODEL 9
REMARK VINA RESULT:      -5.3      2.472      4.169
REMARK  Name = 
REMARK  8 active torsions:
REMARK  status: ('A' for Active; 'I' for Inactive)
REMARK    1  A    between atoms: C_1  and  C_2
REMARK    2  A    between atoms: C_2  and  C_3
REMARK    3  A    between atoms: C_3  and  C_4
REMARK    4  A    between atoms: C_3  and  N_5
REMARK    5  A    between atoms: N_5  and  C_6
REMARK    6  A    between atoms: C_6  and  C_7
REMARK    7  A    between atoms: C_7  and  O_8
REMARK    8  A    between atoms: O_8  and  C_9
REMARK                            x       y       z     vdW  Elec       q    Type
REMARK                         _______ _______ _______ _____ _____    ______ ____
ROOT
ATOM      1  C   UNL     1       5.579   5.006  15.443  0.00  0.00    +0.000 C 
ENDROOT
BRANCH   1   2
ATOM      2  C   UNL     1       6.518   4.633  14.299  0.00  0.00    +0.000 C 
BRANCH   2   3
ATOM      3  N   UNL     1       6.197   3.331  13.706  0.00  0.00    +0.000 NA
ATOM      4  H   UNL     1       6.596   2.590  14.287  0.00  0.00    +0.000 HD
BRANCH   3   5
ATOM      5  C   UNL     1       6.716   3.186  12.331  0.00  0.00    +0.000 C 
ATOM      6  C   UNL     1       7.134   4.535  11.735  0.00  0.00    +0.000 C 
BRANCH   5   8
ATOM      7  C   UNL     1       4.294   3.273  11.480  0.00  0.00    +0.000 C 
ATOM      8  C   UNL     1       5.618   2.517  11.476  0.00  0.00    +0.000 C 
ENDBRANCH   5   8
ENDBRANCH   3   5
ENDBRANCH   2   3
ENDBRANCH   1   2
BRANCH   1   9
ATOM      9  O   UNL     1       5.159   3.789  16.074  0.00  0.00    +0.000 OA
BRANCH   9  10
ATOM     10  C   UNL     1       4.250   3.927  17.083  0.00  0.00    +0.000 A 
ATOM     11  C   UNL     1       3.719   5.150  17.509  0.00  0.00    +0.000 A 
ATOM     12  C   UNL     1       2.769   5.186  18.531  0.00  0.00    +0.000 A 
ATOM     13  C   UNL     1       2.347   4.003  19.122  0.00  0.00    +0.000 A 
ATOM     14 BR   UNL     1       1.040   4.064  20.486  0.00  0.00    +0.000 Br
ATOM     15  C   UNL     1       2.868   2.778  18.710  0.00  0.00    +0.000 A 
ATOM     16  C   UNL     1       3.824   2.746  17.689  0.00  0.00    +0.000 A 
ENDBRANCH   9  10
ENDBRANCH   1   9
TORSDOF 6
ENDMDL
