MODEL 1
REMARK VINA RESULT:      -8.1      0.000      0.000
REMARK  Name = 
REMARK  11 active torsions:
REMARK  status: ('A' for Active; 'I' for Inactive)
REMARK    1  A    between atoms: C_1  and  C_2
REMARK    2  A    between atoms: N_6  and  C_7
REMARK    3  A    between atoms: N_15  and  C_16
REMARK    4  A    between atoms: C_16  and  C_17
REMARK    5  A    between atoms: C_17  and  C_18
REMARK    6  A    between atoms: C_18  and  C_19
REMARK    7  A    between atoms: C_19  and  O_20
REMARK    8  A    between atoms: C_23  and  C_24
REMARK    9  A    between atoms: N_27  and  C_28
REMARK   10  A    between atoms: C_28  and  C_29
REMARK   11  A    between atoms: C_28  and  C_30
REMARK                            x       y       z     vdW  Elec       q    Type
REMARK                         _______ _______ _______ _____ _____    ______ ____
ROOT
ATOM      1  C   UNL     1      -1.834  11.995  21.973  0.00  0.00    +0.000 C 
ATOM      2  C   UNL     1      -0.884  10.870  21.743  0.00  0.00    +0.000 A 
ATOM      3  C   UNL     1      -0.252  10.249  22.804  0.00  0.00    +0.000 A 
ATOM      4  N   UNL     1       0.589   9.203  22.692  0.00  0.00    +0.000 NA
ATOM      5  C   UNL     1       0.835   8.764  21.454  0.00  0.00    +0.000 A 
ATOM      6  N   UNL     1       1.689   7.672  21.325  0.00  0.00    +0.000 N 
ATOM      7  N   UNL     1       0.266   9.295  20.367  0.00  0.00    +0.000 NA
ATOM      8  C   UNL     1      -0.578  10.334  20.507  0.00  0.00    +0.000 A 
ATOM      9  H   UNL     1       1.893   7.252  22.216  0.00  0.00    +0.000 HD
ENDROOT
BRANCH   6  10
ATOM     10  C   UNL     1       2.279   7.132  20.178  0.00  0.00    +0.000 A 
ATOM     11  C   UNL     1       2.387   7.916  19.021  0.00  0.00    +0.000 A 
ATOM     12  C   UNL     1       3.059   7.442  17.891  0.00  0.00    +0.000 A 
ATOM     13  C   UNL     1       3.652   6.178  17.910  0.00  0.00    +0.000 A 
ATOM     14  C   UNL     1       3.554   5.386  19.058  0.00  0.00    +0.000 A 
ATOM     15  C   UNL     1       2.867   5.860  20.175  0.00  0.00    +0.000 A 
ATOM     16  C   UNL     1       4.227   4.043  19.033  0.00  0.00    +0.000 C 
ATOM     17  C   UNL     1       5.581   4.196  18.325  0.00  0.00    +0.000 C 
ATOM     18  N   UNL     1       5.527   4.786  16.971  0.00  0.00    +0.000 NA
ATOM     19  C   UNL     1       4.308   5.575  16.697  0.00  0.00    +0.000 C 
BRANCH  18  20
ATOM     20  C   UNL     1       5.765   3.769  15.936  0.00  0.00    +0.000 C 
BRANCH  20  21
ATOM     21  C   UNL     1       5.476   4.245  14.505  0.00  0.00    +0.000 C 
BRANCH  21  22
ATOM     22  C   UNL     1       6.715   4.239  13.610  0.00  0.00    +0.000 C 
BRANCH  22  23
ATOM     23  C   UNL     1       6.437   3.513  12.301  0.00  0.00    +0.000 C 
BRANCH  23  24
ATOM     24  O   UNL     1       5.038   3.333  12.132  0.00  0.00    +0.000 OA
ATOM     25  H   UNL     1       4.613   3.554  12.977  0.00  0.00    +0.000 HD
ENDBRANCH  23  24
ENDBRANCH  22  23
ENDBRANCH  21  22
ENDBRANCH  20  21
ENDBRANCH  18  20
ENDBRANCH   6  10
BRANCH   8  26
ATOM     26  C   UNL     1      -1.151  10.793  19.251  0.00  0.00    +0.000 A 
ATOM     27  C   UNL     1      -0.845  11.875  18.401  0.00  0.00    +0.000 A 
ATOM     28  N   UNL     1      -1.647  11.948  17.337  0.00  0.00    +0.000 NA
ATOM     29  N   UNL     1      -2.458  10.880  17.479  0.00  0.00    +0.000 N 
ATOM     30  C   UNL     1      -2.182  10.145  18.594  0.00  0.00    +0.000 A 
BRANCH  29  31
ATOM     31  C   UNL     1      -3.511  10.628  16.504  0.00  0.00    +0.000 C 
ATOM     32  C   UNL     1      -4.674  11.607  16.682  0.00  0.00    +0.000 C 
ATOM     33  C   UNL     1      -2.969  10.662  15.076  0.00  0.00    +0.000 C 
ENDBRANCH  29  31
ENDBRANCH   8  26
TORSDOF 8
ENDMDL
MODEL 2
REMARK VINA RESULT:      -7.6      3.617      9.226
REMARK  Name = 
REMARK  11 active torsions:
REMARK  status: ('A' for Active; 'I' for Inactive)
REMARK    1  A    between atoms: C_1  and  C_2
REMARK    2  A    between atoms: N_6  and  C_7
REMARK    3  A    between atoms: N_15  and  C_16
REMARK    4  A    between atoms: C_16  and  C_17
REMARK    5  A    between atoms: C_17  and  C_18
REMARK    6  A    between atoms: C_18  and  C_19
REMARK    7  A    between atoms: C_19  and  O_20
REMARK    8  A    between atoms: C_23  and  C_24
REMARK    9  A    between atoms: N_27  and  C_28
REMARK   10  A    between atoms: C_28  and  C_29
REMARK   11  A    between atoms: C_28  and  C_30
REMARK                            x       y       z     vdW  Elec       q    Type
REMARK                         _______ _______ _______ _____ _____    ______ ____
ROOT
ATOM      1  C   UNL     1       4.526   1.403  19.258  0.00  0.00    +0.000 C 
ATOM      2  C   UNL     1       3.813   2.662  19.610  0.00  0.00    +0.000 A 
ATOM      3  C   UNL     1       2.828   2.671  20.581  0.00  0.00    +0.000 A 
ATOM      4  N   UNL     1       2.161   3.768  20.989  0.00  0.00    +0.000 NA
ATOM      5  C   UNL     1       2.472   4.917  20.381  0.00  0.00    +0.000 A 
ATOM      6  N   UNL     1       1.803   6.062  20.805  0.00  0.00    +0.000 N 
ATOM      7  N   UNL     1       3.414   5.009  19.437  0.00  0.00    +0.000 NA
ATOM      8  C   UNL     1       4.073   3.900  19.054  0.00  0.00    +0.000 A 
ATOM      9  H   UNL     1       1.267   5.892  21.641  0.00  0.00    +0.000 HD
ENDROOT
BRANCH   6  10
ATOM     10  C   UNL     1       1.768   7.338  20.235  0.00  0.00    +0.000 A 
ATOM     11  C   UNL     1       2.203   7.517  18.915  0.00  0.00    +0.000 A 
ATOM     12  C   UNL     1       2.090   8.758  18.282  0.00  0.00    +0.000 A 
ATOM     13  C   UNL     1       1.518   9.837  18.959  0.00  0.00    +0.000 A 
ATOM     14  C   UNL     1       1.076   9.672  20.275  0.00  0.00    +0.000 A 
ATOM     15  C   UNL     1       1.210   8.435  20.904  0.00  0.00    +0.000 A 
ATOM     16  C   UNL     1       0.450  10.859  20.950  0.00  0.00    +0.000 C 
ATOM     17  C   UNL     1      -0.446  11.576  19.930  0.00  0.00    +0.000 C 
ATOM     18  N   UNL     1       0.218  11.973  18.670  0.00  0.00    +0.000 NA
ATOM     19  C   UNL     1       1.452  11.219  18.366  0.00  0.00    +0.000 C 
BRANCH  18  20
ATOM     20  C   UNL     1       0.437  13.426  18.618  0.00  0.00    +0.000 C 
BRANCH  20  21
ATOM     21  C   UNL     1       1.914  13.843  18.656  0.00  0.00    +0.000 C 
BRANCH  21  22
ATOM     22  C   UNL     1       2.268  14.685  19.881  0.00  0.00    +0.000 C 
BRANCH  22  23
ATOM     23  C   UNL     1       2.875  13.822  20.979  0.00  0.00    +0.000 C 
BRANCH  23  24
ATOM     24  O   UNL     1       2.826  14.510  22.221  0.00  0.00    +0.000 OA
ATOM     25  H   UNL     1       3.706  14.893  22.376  0.00  0.00    +0.000 HD
ENDBRANCH  23  24
ENDBRANCH  22  23
ENDBRANCH  21  22
ENDBRANCH  20  21
ENDBRANCH  18  20
ENDBRANCH   6  10
BRANCH   8  26
ATOM     26  C   UNL     1       5.092   4.147  18.046  0.00  0.00    +0.000 A 
ATOM     27  C   UNL     1       6.363   4.755  18.102  0.00  0.00    +0.000 A 
ATOM     28  N   UNL     1       6.977   4.794  16.918  0.00  0.00    +0.000 NA
ATOM     29  N   UNL     1       6.112   4.172  16.093  0.00  0.00    +0.000 N 
ATOM     30  C   UNL     1       4.983   3.743  16.726  0.00  0.00    +0.000 A 
BRANCH  29  31
ATOM     31  C   UNL     1       6.422   4.037  14.675  0.00  0.00    +0.000 C 
ATOM     32  C   UNL     1       5.146   4.014  13.831  0.00  0.00    +0.000 C 
ATOM     33  C   UNL     1       7.380   5.131  14.207  0.00  0.00    +0.000 C 
ENDBRANCH  29  31
ENDBRANCH   8  26
TORSDOF 8
ENDMDL
MODEL 3
REMARK VINA RESULT:      -7.5      0.952      1.210
REMARK  Name = 
REMARK  11 active torsions:
REMARK  status: ('A' for Active; 'I' for Inactive)
REMARK    1  A    between atoms: C_1  and  C_2
REMARK    2  A    between atoms: N_6  and  C_7
REMARK    3  A    between atoms: N_15  and  C_16
REMARK    4  A    between atoms: C_16  and  C_17
REMARK    5  A    between atoms: C_17  and  C_18
REMARK    6  A    between atoms: C_18  and  C_19
REMARK    7  A    between atoms: C_19  and  O_20
REMARK    8  A    between atoms: C_23  and  C_24
REMARK    9  A    between atoms: N_27  and  C_28
REMARK   10  A    between atoms: C_28  and  C_29
REMARK   11  A    between atoms: C_28  and  C_30
REMARK                            x       y       z     vdW  Elec       q    Type
REMARK                         _______ _______ _______ _____ _____    ______ ____
ROOT
ATOM      1  C   UNL     1      -1.464  11.432  22.245  0.00  0.00    +0.000 C 
ATOM      2  C   UNL     1      -0.506  10.370  21.827  0.00  0.00    +0.000 A 
ATOM      3  C   UNL     1       0.070   9.529  22.761  0.00  0.00    +0.000 A 
ATOM      4  N   UNL     1       0.914   8.520  22.470  0.00  0.00    +0.000 NA
ATOM      5  C   UNL     1       1.223   8.352  21.181  0.00  0.00    +0.000 A 
ATOM      6  N   UNL     1       2.079   7.303  20.863  0.00  0.00    +0.000 N 
ATOM      7  N   UNL     1       0.711   9.111  20.206  0.00  0.00    +0.000 NA
ATOM      8  C   UNL     1      -0.138  10.106  20.522  0.00  0.00    +0.000 A 
ATOM      9  H   UNL     1       2.237   6.700  21.653  0.00  0.00    +0.000 HD
ENDROOT
BRANCH   6  10
ATOM     10  C   UNL     1       2.726   7.012  19.658  0.00  0.00    +0.000 A 
ATOM     11  C   UNL     1       2.556   7.865  18.559  0.00  0.00    +0.000 A 
ATOM     12  C   UNL     1       3.265   7.659  17.372  0.00  0.00    +0.000 A 
ATOM     13  C   UNL     1       4.173   6.604  17.276  0.00  0.00    +0.000 A 
ATOM     14  C   UNL     1       4.356   5.747  18.365  0.00  0.00    +0.000 A 
ATOM     15  C   UNL     1       3.631   5.949  19.539  0.00  0.00    +0.000 A 
ATOM     16  C   UNL     1       5.360   4.640  18.216  0.00  0.00    +0.000 C 
ATOM     17  C   UNL     1       6.581   5.195  17.470  0.00  0.00    +0.000 C 
ATOM     18  N   UNL     1       6.296   5.829  16.166  0.00  0.00    +0.000 NA
ATOM     19  C   UNL     1       4.896   6.275  15.998  0.00  0.00    +0.000 C 
BRANCH  18  20
ATOM     20  C   UNL     1       6.737   4.978  15.050  0.00  0.00    +0.000 C 
BRANCH  20  21
ATOM     21  C   UNL     1       5.781   4.965  13.849  0.00  0.00    +0.000 C 
BRANCH  21  22
ATOM     22  C   UNL     1       5.239   3.573  13.530  0.00  0.00    +0.000 C 
BRANCH  22  23
ATOM     23  C   UNL     1       5.683   3.120  12.145  0.00  0.00    +0.000 C 
BRANCH  23  24
ATOM     24  O   UNL     1       7.094   3.229  12.028  0.00  0.00    +0.000 OA
ATOM     25  H   UNL     1       7.482   2.884  12.850  0.00  0.00    +0.000 HD
ENDBRANCH  23  24
ENDBRANCH  22  23
ENDBRANCH  21  22
ENDBRANCH  20  21
ENDBRANCH  18  20
ENDBRANCH   6  10
BRANCH   8  26
ATOM     26  C   UNL     1      -0.645  10.830  19.367  0.00  0.00    +0.000 A 
ATOM     27  C   UNL     1      -0.292  12.063  18.782  0.00  0.00    +0.000 A 
ATOM     28  N   UNL     1      -1.039  12.372  17.720  0.00  0.00    +0.000 NA
ATOM     29  N   UNL     1      -1.861  11.311  17.593  0.00  0.00    +0.000 N 
ATOM     30  C   UNL     1      -1.645  10.351  18.538  0.00  0.00    +0.000 A 
BRANCH  29  31
ATOM     31  C   UNL     1      -2.865  11.286  16.537  0.00  0.00    +0.000 C 
ATOM     32  C   UNL     1      -2.603  10.142  15.554  0.00  0.00    +0.000 C 
ATOM     33  C   UNL     1      -4.278  11.212  17.113  0.00  0.00    +0.000 C 
ENDBRANCH  29  31
ENDBRANCH   8  26
TORSDOF 8
ENDMDL
MODEL 4
REMARK VINA RESULT:      -7.5      4.797      6.947
REMARK  Name = 
REMARK  11 active torsions:
REMARK  status: ('A' for Active; 'I' for Inactive)
REMARK    1  A    between atoms: C_1  and  C_2
REMARK    2  A    between atoms: N_6  and  C_7
REMARK    3  A    between atoms: N_15  and  C_16
REMARK    4  A    between atoms: C_16  and  C_17
REMARK    5  A    between atoms: C_17  and  C_18
REMARK    6  A    between atoms: C_18  and  C_19
REMARK    7  A    between atoms: C_19  and  O_20
REMARK    8  A    between atoms: C_23  and  C_24
REMARK    9  A    between atoms: N_27  and  C_28
REMARK   10  A    between atoms: C_28  and  C_29
REMARK   11  A    between atoms: C_28  and  C_30
REMARK                            x       y       z     vdW  Elec       q    Type
REMARK                         _______ _______ _______ _____ _____    ______ ____
ROOT
ATOM      1  C   UNL     1       1.740  17.105  18.700  0.00  0.00    +0.000 C 
ATOM      2  C   UNL     1       1.310  15.681  18.773  0.00  0.00    +0.000 A 
ATOM      3  C   UNL     1      -0.014  15.330  18.587  0.00  0.00    +0.000 A 
ATOM      4  N   UNL     1      -0.484  14.067  18.598  0.00  0.00    +0.000 NA
ATOM      5  C   UNL     1       0.408  13.099  18.830  0.00  0.00    +0.000 A 
ATOM      6  N   UNL     1      -0.060  11.789  18.826  0.00  0.00    +0.000 N 
ATOM      7  N   UNL     1       1.711  13.340  19.013  0.00  0.00    +0.000 NA
ATOM      8  C   UNL     1       2.156  14.610  18.988  0.00  0.00    +0.000 A 
ATOM      9  H   UNL     1      -1.007  11.733  18.490  0.00  0.00    +0.000 HD
ENDROOT
BRANCH   6  10
ATOM     10  C   UNL     1       0.580  10.612  19.227  0.00  0.00    +0.000 A 
ATOM     11  C   UNL     1       0.287  10.060  20.482  0.00  0.00    +0.000 A 
ATOM     12  C   UNL     1       0.833   8.834  20.873  0.00  0.00    +0.000 A 
ATOM     13  C   UNL     1       1.665   8.130  20.001  0.00  0.00    +0.000 A 
ATOM     14  C   UNL     1       1.963   8.667  18.745  0.00  0.00    +0.000 A 
ATOM     15  C   UNL     1       1.429   9.899  18.370  0.00  0.00    +0.000 A 
ATOM     16  C   UNL     1       2.847   7.860  17.837  0.00  0.00    +0.000 C 
ATOM     17  C   UNL     1       2.443   6.384  17.959  0.00  0.00    +0.000 C 
ATOM     18  N   UNL     1       2.450   5.834  19.331  0.00  0.00    +0.000 NA
ATOM     19  C   UNL     1       2.356   6.853  20.398  0.00  0.00    +0.000 C 
BRANCH  18  20
ATOM     20  C   UNL     1       3.591   4.930  19.537  0.00  0.00    +0.000 C 
BRANCH  20  21
ATOM     21  C   UNL     1       3.200   3.464  19.777  0.00  0.00    +0.000 C 
BRANCH  21  22
ATOM     22  C   UNL     1       1.688   3.246  19.818  0.00  0.00    +0.000 C 
BRANCH  22  23
ATOM     23  C   UNL     1       1.226   2.890  21.224  0.00  0.00    +0.000 C 
BRANCH  23  24
ATOM     24  O   UNL     1       2.278   3.113  22.152  0.00  0.00    +0.000 OA
ATOM     25  H   UNL     1       2.260   2.382  22.793  0.00  0.00    +0.000 HD
ENDBRANCH  23  24
ENDBRANCH  22  23
ENDBRANCH  21  22
ENDBRANCH  20  21
ENDBRANCH  18  20
ENDBRANCH   6  10
BRANCH   8  26
ATOM     26  C   UNL     1       3.595  14.727  19.167  0.00  0.00    +0.000 A 
ATOM     27  C   UNL     1       4.404  14.905  20.309  0.00  0.00    +0.000 A 
ATOM     28  N   UNL     1       5.705  14.982  20.021  0.00  0.00    +0.000 NA
ATOM     29  N   UNL     1       5.743  14.817  18.684  0.00  0.00    +0.000 N 
ATOM     30  C   UNL     1       4.509  14.633  18.132  0.00  0.00    +0.000 A 
BRANCH  29  31
ATOM     31  C   UNL     1       7.016  14.866  17.978  0.00  0.00    +0.000 C 
ATOM     32  C   UNL     1       8.116  15.455  18.865  0.00  0.00    +0.000 C 
ATOM     33  C   UNL     1       7.411  13.490  17.442  0.00  0.00    +0.000 C 
ENDBRANCH  29  31
ENDBRANCH   8  26
TORSDOF 8
ENDMDL
MODEL 5
REMARK VINA RESULT:      -7.4      3.735      5.006
REMARK  Name = 
REMARK  11 active torsions:
REMARK  status: ('A' for Active; 'I' for Inactive)
REMARK    1  A    between atoms: C_1  and  C_2
REMARK    2  A    between atoms: N_6  and  C_7
REMARK    3  A    between atoms: N_15  and  C_16
REMARK    4  A    between atoms: C_16  and  C_17
REMARK    5  A    between atoms: C_17  and  C_18
REMARK    6  A    between atoms: C_18  and  C_19
REMARK    7  A    between atoms: C_19  and  O_20
REMARK    8  A    between atoms: C_23  and  C_24
REMARK    9  A    between atoms: N_27  and  C_28
REMARK   10  A    between atoms: C_28  and  C_29
REMARK   11  A    between atoms: C_28  and  C_30
REMARK                            x       y       z     vdW  Elec       q    Type
REMARK                         _______ _______ _______ _____ _____    ______ ____
ROOT
ATOM      1  C   UNL     1       0.640  15.192  21.880  0.00  0.00    +0.000 C 
ATOM      2  C   UNL     1       0.607  13.742  21.543  0.00  0.00    +0.000 A 
ATOM      3  C   UNL     1      -0.213  12.871  22.237  0.00  0.00    +0.000 A 
ATOM      4  N   UNL     1      -0.334  11.555  21.975  0.00  0.00    +0.000 NA
ATOM      5  C   UNL     1       0.420  11.071  20.983  0.00  0.00    +0.000 A 
ATOM      6  N   UNL     1       0.292   9.717  20.690  0.00  0.00    +0.000 N 
ATOM      7  N   UNL     1       1.238  11.836  20.252  0.00  0.00    +0.000 NA
ATOM      8  C   UNL     1       1.333  13.150  20.528  0.00  0.00    +0.000 A 
ATOM      9  H   UNL     1      -0.485   9.302  21.178  0.00  0.00    +0.000 HD
ENDROOT
BRANCH   6  10
ATOM     10  C   UNL     1       1.076   8.904  19.865  0.00  0.00    +0.000 A 
ATOM     11  C   UNL     1       1.473   9.376  18.607  0.00  0.00    +0.000 A 
ATOM     12  C   UNL     1       2.338   8.632  17.800  0.00  0.00    +0.000 A 
ATOM     13  C   UNL     1       2.836   7.409  18.252  0.00  0.00    +0.000 A 
ATOM     14  C   UNL     1       2.451   6.927  19.507  0.00  0.00    +0.000 A 
ATOM     15  C   UNL     1       1.574   7.668  20.298  0.00  0.00    +0.000 A 
ATOM     16  C   UNL     1       3.031   5.616  19.955  0.00  0.00    +0.000 C 
ATOM     17  C   UNL     1       4.510   5.579  19.545  0.00  0.00    +0.000 C 
ATOM     18  N   UNL     1       4.779   5.814  18.111  0.00  0.00    +0.000 NA
ATOM     19  C   UNL     1       3.695   6.519  17.395  0.00  0.00    +0.000 C 
BRANCH  18  20
ATOM     20  C   UNL     1       5.167   4.570  17.430  0.00  0.00    +0.000 C 
BRANCH  20  21
ATOM     21  C   UNL     1       3.993   3.791  16.820  0.00  0.00    +0.000 C 
BRANCH  21  22
ATOM     22  C   UNL     1       3.592   2.568  17.644  0.00  0.00    +0.000 C 
BRANCH  22  23
ATOM     23  C   UNL     1       2.151   2.682  18.124  0.00  0.00    +0.000 C 
BRANCH  23  24
ATOM     24  O   UNL     1       1.486   3.723  17.422  0.00  0.00    +0.000 OA
ATOM     25  H   UNL     1       1.740   4.563  17.840  0.00  0.00    +0.000 HD
ENDBRANCH  23  24
ENDBRANCH  22  23
ENDBRANCH  21  22
ENDBRANCH  20  21
ENDBRANCH  18  20
ENDBRANCH   6  10
BRANCH   8  26
ATOM     26  C   UNL     1       2.230  13.868  19.636  0.00  0.00    +0.000 A 
ATOM     27  C   UNL     1       2.070  14.387  18.335  0.00  0.00    +0.000 A 
ATOM     28  N   UNL     1       3.174  14.971  17.864  0.00  0.00    +0.000 NA
ATOM     29  N   UNL     1       4.048  14.861  18.884  0.00  0.00    +0.000 N 
ATOM     30  C   UNL     1       3.522  14.234  19.975  0.00  0.00    +0.000 A 
BRANCH  29  31
ATOM     31  C   UNL     1       5.406  15.370  18.740  0.00  0.00    +0.000 C 
ATOM     32  C   UNL     1       6.089  15.511  20.103  0.00  0.00    +0.000 C 
ATOM     33  C   UNL     1       6.230  14.500  17.793  0.00  0.00    +0.000 C 
ENDBRANCH  29  31
ENDBRANCH   8  26
TORSDOF 8
ENDMDL
MODEL 6
REMARK VINA RESULT:      -7.3      3.392      9.158
REMARK  Name = 
REMARK  11 active torsions:
REMARK  status: ('A' for Active; 'I' for Inactive)
REMARK    1  A    between atoms: C_1  and  C_2
REMARK    2  A    between atoms: N_6  and  C_7
REMARK    3  A    between atoms: N_15  and  C_16
REMARK    4  A    between atoms: C_16  and  C_17
REMARK    5  A    between atoms: C_17  and  C_18
REMARK    6  A    between atoms: C_18  and  C_19
REMARK    7  A    between atoms: C_19  and  O_20
REMARK    8  A    between atoms: C_23  and  C_24
REMARK    9  A    between atoms: N_27  and  C_28
REMARK   10  A    between atoms: C_28  and  C_29
REMARK   11  A    between atoms: C_28  and  C_30
REMARK                            x       y       z     vdW  Elec       q    Type
REMARK                         _______ _______ _______ _____ _____    ______ ____
ROOT
ATOM      1  C   UNL     1       4.441   1.780  19.476  0.00  0.00    +0.000 C 
ATOM      2  C   UNL     1       3.716   3.035  19.817  0.00  0.00    +0.000 A 
ATOM      3  C   UNL     1       2.759   3.052  20.815  0.00  0.00    +0.000 A 
ATOM      4  N   UNL     1       2.084   4.147  21.215  0.00  0.00    +0.000 NA
ATOM      5  C   UNL     1       2.358   5.286  20.571  0.00  0.00    +0.000 A 
ATOM      6  N   UNL     1       1.681   6.429  20.986  0.00  0.00    +0.000 N 
ATOM      7  N   UNL     1       3.271   5.370  19.598  0.00  0.00    +0.000 NA
ATOM      8  C   UNL     1       3.939   4.263  19.224  0.00  0.00    +0.000 A 
ATOM      9  H   UNL     1       1.173   6.271  21.840  0.00  0.00    +0.000 HD
ENDROOT
BRANCH   6  10
ATOM     10  C   UNL     1       1.609   7.690  20.386  0.00  0.00    +0.000 A 
ATOM     11  C   UNL     1       2.043   7.852  19.063  0.00  0.00    +0.000 A 
ATOM     12  C   UNL     1       1.893   9.074  18.401  0.00  0.00    +0.000 A 
ATOM     13  C   UNL     1       1.284  10.149  19.050  0.00  0.00    +0.000 A 
ATOM     14  C   UNL     1       0.842  10.001  20.368  0.00  0.00    +0.000 A 
ATOM     15  C   UNL     1       1.012   8.784  21.027  0.00  0.00    +0.000 A 
ATOM     16  C   UNL     1       0.174  11.182  21.013  0.00  0.00    +0.000 C 
ATOM     17  C   UNL     1      -0.739  11.846  19.973  0.00  0.00    +0.000 C 
ATOM     18  N   UNL     1      -0.083  12.235  18.707  0.00  0.00    +0.000 NA
ATOM     19  C   UNL     1       1.176  11.514  18.425  0.00  0.00    +0.000 C 
BRANCH  18  20
ATOM     20  C   UNL     1       0.090  13.693  18.621  0.00  0.00    +0.000 C 
BRANCH  20  21
ATOM     21  C   UNL     1       1.546  14.164  18.744  0.00  0.00    +0.000 C 
BRANCH  21  22
ATOM     22  C   UNL     1       1.878  14.730  20.124  0.00  0.00    +0.000 C 
BRANCH  22  23
ATOM     23  C   UNL     1       3.041  15.711  20.045  0.00  0.00    +0.000 C 
BRANCH  23  24
ATOM     24  O   UNL     1       4.258  15.006  19.841  0.00  0.00    +0.000 OA
ATOM     25  H   UNL     1       4.174  14.147  20.287  0.00  0.00    +0.000 HD
ENDBRANCH  23  24
ENDBRANCH  22  23
ENDBRANCH  21  22
ENDBRANCH  20  21
ENDBRANCH  18  20
ENDBRANCH   6  10
BRANCH   8  26
ATOM     26  C   UNL     1       4.925   4.501  18.181  0.00  0.00    +0.000 A 
ATOM     27  C   UNL     1       6.320   4.703  18.215  0.00  0.00    +0.000 A 
ATOM     28  N   UNL     1       6.848   4.910  17.007  0.00  0.00    +0.000 NA
ATOM     29  N   UNL     1       5.790   4.805  16.178  0.00  0.00    +0.000 N 
ATOM     30  C   UNL     1       4.624   4.534  16.831  0.00  0.00    +0.000 A 
BRANCH  29  31
ATOM     31  C   UNL     1       5.964   4.998  14.744  0.00  0.00    +0.000 C 
ATOM     32  C   UNL     1       7.443   5.165  14.385  0.00  0.00    +0.000 C 
ATOM     33  C   UNL     1       5.322   3.864  13.946  0.00  0.00    +0.000 C 
ENDBRANCH  29  31
ENDBRANCH   8  26
TORSDOF 8
ENDMDL
MODEL 7
REMARK VINA RESULT:      -7.3      2.268      3.175
REMARK  Name = 
REMARK  11 active torsions:
REMARK  status: ('A' for Active; 'I' for Inactive)
REMARK    1  A    between atoms: C_1  and  C_2
REMARK    2  A    between atoms: N_6  and  C_7
REMARK    3  A    between atoms: N_15  and  C_16
REMARK    4  A    between atoms: C_16  and  C_17
REMARK    5  A    between atoms: C_17  and  C_18
REMARK    6  A    between atoms: C_18  and  C_19
REMARK    7  A    between atoms: C_19  and  O_20
REMARK    8  A    between atoms: C_23  and  C_24
REMARK    9  A    between atoms: N_27  and  C_28
REMARK   10  A    between atoms: C_28  and  C_29
REMARK   11  A    between atoms: C_28  and  C_30
REMARK                            x       y       z     vdW  Elec       q    Type
REMARK                         _______ _______ _______ _____ _____    ______ ____
ROOT
ATOM      1  C   UNL     1      -1.148  12.778  23.016  0.00  0.00    +0.000 C 
ATOM      2  C   UNL     1      -0.585  11.497  22.505  0.00  0.00    +0.000 A 
ATOM      3  C   UNL     1      -0.710  10.328  23.234  0.00  0.00    +0.000 A 
ATOM      4  N   UNL     1      -0.267   9.121  22.832  0.00  0.00    +0.000 NA
ATOM      5  C   UNL     1       0.357   9.076  21.651  0.00  0.00    +0.000 A 
ATOM      6  N   UNL     1       0.804   7.832  21.216  0.00  0.00    +0.000 N 
ATOM      7  N   UNL     1       0.519  10.151  20.873  0.00  0.00    +0.000 NA
ATOM      8  C   UNL     1       0.059  11.344  21.293  0.00  0.00    +0.000 A 
ATOM      9  H   UNL     1       0.455   7.087  21.795  0.00  0.00    +0.000 HD
ENDROOT
BRANCH   6  10
ATOM     10  C   UNL     1       1.646   7.511  20.146  0.00  0.00    +0.000 A 
ATOM     11  C   UNL     1       1.788   8.413  19.083  0.00  0.00    +0.000 A 
ATOM     12  C   UNL     1       2.696   8.169  18.049  0.00  0.00    +0.000 A 
ATOM     13  C   UNL     1       3.493   7.023  18.075  0.00  0.00    +0.000 A 
ATOM     14  C   UNL     1       3.365   6.116  19.132  0.00  0.00    +0.000 A 
ATOM     15  C   UNL     1       2.444   6.359  20.150  0.00  0.00    +0.000 A 
ATOM     16  C   UNL     1       4.260   4.910  19.123  0.00  0.00    +0.000 C 
ATOM     17  C   UNL     1       5.657   5.351  18.662  0.00  0.00    +0.000 C 
ATOM     18  N   UNL     1       5.705   6.055  17.363  0.00  0.00    +0.000 NA
ATOM     19  C   UNL     1       4.420   6.658  16.948  0.00  0.00    +0.000 C 
BRANCH  18  20
ATOM     20  C   UNL     1       6.272   5.197  16.312  0.00  0.00    +0.000 C 
BRANCH  20  21
ATOM     21  C   UNL     1       5.479   5.203  14.997  0.00  0.00    +0.000 C 
BRANCH  21  22
ATOM     22  C   UNL     1       5.928   4.115  14.022  0.00  0.00    +0.000 C 
BRANCH  22  23
ATOM     23  C   UNL     1       7.394   4.289  13.649  0.00  0.00    +0.000 C 
BRANCH  23  24
ATOM     24  O   UNL     1       7.640   5.631  13.254  0.00  0.00    +0.000 OA
ATOM     25  H   UNL     1       8.539   5.859  13.544  0.00  0.00    +0.000 HD
ENDBRANCH  23  24
ENDBRANCH  22  23
ENDBRANCH  21  22
ENDBRANCH  20  21
ENDBRANCH  18  20
ENDBRANCH   6  10
BRANCH   8  26
ATOM     26  C   UNL     1       0.270  12.420  20.337  0.00  0.00    +0.000 A 
ATOM     27  C   UNL     1      -0.549  12.985  19.338  0.00  0.00    +0.000 A 
ATOM     28  N   UNL     1       0.052  13.962  18.658  0.00  0.00    +0.000 NA
ATOM     29  N   UNL     1       1.262  14.057  19.245  0.00  0.00    +0.000 N 
ATOM     30  C   UNL     1       1.429  13.174  20.271  0.00  0.00    +0.000 A 
BRANCH  29  31
ATOM     31  C   UNL     1       2.240  15.018  18.753  0.00  0.00    +0.000 C 
ATOM     32  C   UNL     1       1.595  16.385  18.508  0.00  0.00    +0.000 C 
ATOM     33  C   UNL     1       3.437  15.130  19.696  0.00  0.00    +0.000 C 
ENDBRANCH  29  31
ENDBRANCH   8  26
TORSDOF 8
ENDMDL
MODEL 8
REMARK VINA RESULT:      -7.2      2.647      3.646
REMARK  Name = 
REMARK  11 active torsions:
REMARK  status: ('A' for Active; 'I' for Inactive)
REMARK    1  A    between atoms: C_1  and  C_2
REMARK    2  A    between atoms: N_6  and  C_7
REMARK    3  A    between atoms: N_15  and  C_16
REMARK    4  A    between atoms: C_16  and  C_17
REMARK    5  A    between atoms: C_17  and  C_18
REMARK    6  A    between atoms: C_18  and  C_19
REMARK    7  A    between atoms: C_19  and  O_20
REMARK    8  A    between atoms: C_23  and  C_24
REMARK    9  A    between atoms: N_27  and  C_28
REMARK   10  A    between atoms: C_28  and  C_29
REMARK   11  A    between atoms: C_28  and  C_30
REMARK                            x       y       z     vdW  Elec       q    Type
REMARK                         _______ _______ _______ _____ _____    ______ ____
ROOT
ATOM      1  C   UNL     1      -0.445  13.272  22.369  0.00  0.00    +0.000 C 
ATOM      2  C   UNL     1      -0.077  11.899  21.920  0.00  0.00    +0.000 A 
ATOM      3  C   UNL     1      -0.563  10.785  22.578  0.00  0.00    +0.000 A 
ATOM      4  N   UNL     1      -0.313   9.510  22.220  0.00  0.00    +0.000 NA
ATOM      5  C   UNL     1       0.484   9.333  21.162  0.00  0.00    +0.000 A 
ATOM      6  N   UNL     1       0.736   8.022  20.769  0.00  0.00    +0.000 N 
ATOM      7  N   UNL     1       0.995  10.348  20.458  0.00  0.00    +0.000 NA
ATOM      8  C   UNL     1       0.723  11.612  20.831  0.00  0.00    +0.000 A 
ATOM      9  H   UNL     1       0.146   7.367  21.256  0.00  0.00    +0.000 HD
ENDROOT
BRANCH   6  10
ATOM     10  C   UNL     1       1.667   7.529  19.850  0.00  0.00    +0.000 A 
ATOM     11  C   UNL     1       1.979   8.282  18.710  0.00  0.00    +0.000 A 
ATOM     12  C   UNL     1       2.976   7.867  17.823  0.00  0.00    +0.000 A 
ATOM     13  C   UNL     1       3.693   6.697  18.078  0.00  0.00    +0.000 A 
ATOM     14  C   UNL     1       3.396   5.937  19.213  0.00  0.00    +0.000 A 
ATOM     15  C   UNL     1       2.387   6.349  20.083  0.00  0.00    +0.000 A 
ATOM     16  C   UNL     1       4.211   4.698  19.452  0.00  0.00    +0.000 C 
ATOM     17  C   UNL     1       5.674   5.010  19.105  0.00  0.00    +0.000 C 
ATOM     18  N   UNL     1       5.905   5.542  17.745  0.00  0.00    +0.000 NA
ATOM     19  C   UNL     1       4.713   6.149  17.117  0.00  0.00    +0.000 C 
BRANCH  18  20
ATOM     20  C   UNL     1       6.529   4.533  16.876  0.00  0.00    +0.000 C 
BRANCH  20  21
ATOM     21  C   UNL     1       5.951   4.480  15.454  0.00  0.00    +0.000 C 
BRANCH  21  22
ATOM     22  C   UNL     1       6.959   4.891  14.382  0.00  0.00    +0.000 C 
BRANCH  22  23
ATOM     23  C   UNL     1       6.618   4.255  13.041  0.00  0.00    +0.000 C 
BRANCH  23  24
ATOM     24  O   UNL     1       6.205   2.909  13.233  0.00  0.00    +0.000 OA
ATOM     25  H   UNL     1       5.241   2.881  13.110  0.00  0.00    +0.000 HD
ENDBRANCH  23  24
ENDBRANCH  22  23
ENDBRANCH  21  22
ENDBRANCH  20  21
ENDBRANCH  18  20
ENDBRANCH   6  10
BRANCH   8  26
ATOM     26  C   UNL     1       1.314  12.617  19.961  0.00  0.00    +0.000 A 
ATOM     27  C   UNL     1       0.985  13.072  18.667  0.00  0.00    +0.000 A 
ATOM     28  N   UNL     1       1.815  14.014  18.217  0.00  0.00    +0.000 NA
ATOM     29  N   UNL     1       2.670  14.199  19.244  0.00  0.00    +0.000 N 
ATOM     30  C   UNL     1       2.393  13.405  20.319  0.00  0.00    +0.000 A 
BRANCH  29  31
ATOM     31  C   UNL     1       3.763  15.154  19.122  0.00  0.00    +0.000 C 
ATOM     32  C   UNL     1       4.516  15.302  20.447  0.00  0.00    +0.000 C 
ATOM     33  C   UNL     1       4.709  14.777  17.983  0.00  0.00    +0.000 C 
ENDBRANCH  29  31
ENDBRANCH   8  26
TORSDOF 8
ENDMDL
MODEL 9
REMARK VINA RESULT:      -7.2      3.752      5.388
REMARK  Name = 
REMARK  11 active torsions:
REMARK  status: ('A' for Active; 'I' for Inactive)
REMARK    1  A    between atoms: C_1  and  C_2
REMARK    2  A    between atoms: N_6  and  C_7
REMARK    3  A    between atoms: N_15  and  C_16
REMARK    4  A    between atoms: C_16  and  C_17
REMARK    5  A    between atoms: C_17  and  C_18
REMARK    6  A    between atoms: C_18  and  C_19
REMARK    7  A    between atoms: C_19  and  O_20
REMARK    8  A    between atoms: C_23  and  C_24
REMARK    9  A    between atoms: N_27  and  C_28
REMARK   10  A    between atoms: C_28  and  C_29
REMARK   11  A    between atoms: C_28  and  C_30
REMARK                            x       y       z     vdW  Elec       q    Type
REMARK                         _______ _______ _______ _____ _____    ______ ____
ROOT
ATOM      1  C   UNL     1      -0.372  14.970  19.265  0.00  0.00    +0.000 C 
ATOM      2  C   UNL     1      -0.145  13.518  19.020  0.00  0.00    +0.000 A 
ATOM      3  C   UNL     1      -1.159  12.715  18.530  0.00  0.00    +0.000 A 
ATOM      4  N   UNL     1      -1.031  11.405  18.244  0.00  0.00    +0.000 NA
ATOM      5  C   UNL     1       0.164  10.855  18.479  0.00  0.00    +0.000 A 
ATOM      6  N   UNL     1       0.315   9.507  18.171  0.00  0.00    +0.000 N 
ATOM      7  N   UNL     1       1.206  11.552  18.945  0.00  0.00    +0.000 NA
ATOM      8  C   UNL     1       1.055  12.862  19.214  0.00  0.00    +0.000 A 
ATOM      9  H   UNL     1      -0.473   9.152  17.656  0.00  0.00    +0.000 HD
ENDROOT
BRANCH   6  10
ATOM     10  C   UNL     1       1.358   8.630  18.488  0.00  0.00    +0.000 A 
ATOM     11  C   UNL     1       1.364   7.985  19.732  0.00  0.00    +0.000 A 
ATOM     12  C   UNL     1       2.335   7.029  20.042  0.00  0.00    +0.000 A 
ATOM     13  C   UNL     1       3.306   6.689  19.099  0.00  0.00    +0.000 A 
ATOM     14  C   UNL     1       3.310   7.323  17.852  0.00  0.00    +0.000 A 
ATOM     15  C   UNL     1       2.349   8.288  17.558  0.00  0.00    +0.000 A 
ATOM     16  C   UNL     1       4.364   6.906  16.866  0.00  0.00    +0.000 C 
ATOM     17  C   UNL     1       4.523   5.381  16.947  0.00  0.00    +0.000 C 
ATOM     18  N   UNL     1       4.815   4.843  18.292  0.00  0.00    +0.000 NA
ATOM     19  C   UNL     1       4.432   5.738  19.404  0.00  0.00    +0.000 C 
BRANCH  18  20
ATOM     20  C   UNL     1       6.215   4.405  18.400  0.00  0.00    +0.000 C 
BRANCH  20  21
ATOM     21  C   UNL     1       7.226   5.358  17.748  0.00  0.00    +0.000 C 
BRANCH  21  22
ATOM     22  C   UNL     1       7.867   6.324  18.743  0.00  0.00    +0.000 C 
BRANCH  22  23
ATOM     23  C   UNL     1       7.995   7.718  18.144  0.00  0.00    +0.000 C 
BRANCH  23  24
ATOM     24  O   UNL     1       7.633   7.692  16.771  0.00  0.00    +0.000 OA
ATOM     25  H   UNL     1       7.187   8.533  16.572  0.00  0.00    +0.000 HD
ENDBRANCH  23  24
ENDBRANCH  22  23
ENDBRANCH  21  22
ENDBRANCH  20  21
ENDBRANCH  18  20
ENDBRANCH   6  10
BRANCH   8  26
ATOM     26  C   UNL     1       2.273  13.505  19.682  0.00  0.00    +0.000 A 
ATOM     27  C   UNL     1       2.789  13.751  20.970  0.00  0.00    +0.000 A 
ATOM     28  N   UNL     1       3.955  14.401  20.952  0.00  0.00    +0.000 NA
ATOM     29  N   UNL     1       4.216  14.545  19.638  0.00  0.00    +0.000 N 
ATOM     30  C   UNL     1       3.253  14.002  18.839  0.00  0.00    +0.000 A 
BRANCH  29  31
ATOM     31  C   UNL     1       5.418  15.245  19.204  0.00  0.00    +0.000 C 
ATOM     32  C   UNL     1       5.936  14.681  17.878  0.00  0.00    +0.000 C 
ATOM     33  C   UNL     1       5.183  16.752  19.112  0.00  0.00    +0.000 C 
ENDBRANCH  29  31
ENDBRANCH   8  26
TORSDOF 8
ENDMDL
