MODEL 1
REMARK VINA RESULT:      -8.6      0.000      0.000
REMARK  Name = 
REMARK  9 active torsions:
REMARK  status: ('A' for Active; 'I' for Inactive)
REMARK    1  A    between atoms: C_1  and  C_2
REMARK    2  A    between atoms: C_6  and  C_7
REMARK    3  A    between atoms: C_7  and  S_8
REMARK    4  A    between atoms: S_8  and  C_9
REMARK    5  A    between atoms: C_12  and  C_13
REMARK    6  A    between atoms: C_18  and  C_19
REMARK    7  A    between atoms: C_19  and  O_20
REMARK    8  A    between atoms: O_20  and  C_21
REMARK    9  A    between atoms: C_26  and  C_27
REMARK                            x       y       z     vdW  Elec       q    Type
REMARK                         _______ _______ _______ _____ _____    ______ ____
ROOT
ATOM      1  C   UNL     1       4.796   5.724  17.560  0.00  0.00    +0.000 A 
ATOM      2  C   UNL     1       6.127   6.201  17.581  0.00  0.00    +0.000 A 
ATOM      3  C   UNL     1       7.184   5.475  17.025  0.00  0.00    +0.000 A 
ATOM      4  C   UNL     1       6.940   4.235  16.458  0.00  0.00    +0.000 A 
ATOM      5  C   UNL     1       5.643   3.727  16.446  0.00  0.00    +0.000 A 
ATOM      6  C   UNL     1       4.553   4.464  16.970  0.00  0.00    +0.000 A 
ENDROOT
BRANCH   1  10
ATOM      7  C   UNL     1       2.448   8.273  18.209  0.00  0.00    +0.000 A 
ATOM      8  N   UNL     1       2.073   7.465  19.177  0.00  0.00    +0.000 NA
ATOM      9  N   UNL     1       2.902   6.363  19.118  0.00  0.00    +0.000 NA
ATOM     10  C   UNL     1       3.733   6.564  18.116  0.00  0.00    +0.000 A 
ATOM     11  O   UNL     1       3.497   7.766  17.489  0.00  0.00    +0.000 OA
BRANCH   7  12
ATOM     12  S   UNL     1       1.706   9.810  17.895  0.00  0.00    +0.000 S 
BRANCH  12  13
ATOM     13  C   UNL     1       0.595   9.942  19.320  0.00  0.00    +0.000 C 
BRANCH  13  19
ATOM     14  C   UNL     1      -3.176  10.376  15.997  0.00  0.00    +0.000 C 
ATOM     15  C   UNL     1      -2.575  10.725  17.328  0.00  0.00    +0.000 A 
ATOM     16  C   UNL     1      -3.250  11.566  18.219  0.00  0.00    +0.000 A 
ATOM     17  C   UNL     1      -2.688  11.877  19.455  0.00  0.00    +0.000 A 
ATOM     18  C   UNL     1      -1.443  11.356  19.813  0.00  0.00    +0.000 A 
ATOM     19  C   UNL     1      -0.744  10.521  18.930  0.00  0.00    +0.000 A 
ATOM     20  C   UNL     1      -1.326  10.206  17.689  0.00  0.00    +0.000 A 
ENDBRANCH  13  19
ENDBRANCH  12  13
ENDBRANCH   7  12
ENDBRANCH   1  10
BRANCH   6  21
ATOM     21  C   UNL     1       3.175   3.847  16.797  0.00  0.00    +0.000 C 
BRANCH  21  22
ATOM     22  O   UNL     1       3.056   2.646  17.552  0.00  0.00    +0.000 OA
BRANCH  22  23
ATOM     23  C   UNL     1       2.602   2.755  18.847  0.00  0.00    +0.000 A 
ATOM     24  C   UNL     1       1.280   3.223  18.931  0.00  0.00    +0.000 A 
ATOM     25  C   UNL     1       0.667   3.461  20.165  0.00  0.00    +0.000 A 
ATOM     26  C   UNL     1       1.373   3.237  21.338  0.00  0.00    +0.000 A 
ATOM     27  C   UNL     1       2.687   2.780  21.272  0.00  0.00    +0.000 A 
ATOM     28  C   UNL     1       3.327   2.546  20.036  0.00  0.00    +0.000 A 
ATOM     29  C   UNL     1       4.763   2.116  20.106  0.00  0.00    +0.000 C 
ENDBRANCH  22  23
ENDBRANCH  21  22
ENDBRANCH   6  21
TORSDOF 7
ENDMDL
MODEL 2
REMARK VINA RESULT:      -8.6      4.987      7.464
REMARK  Name = 
REMARK  9 active torsions:
REMARK  status: ('A' for Active; 'I' for Inactive)
REMARK    1  A    between atoms: C_1  and  C_2
REMARK    2  A    between atoms: C_6  and  C_7
REMARK    3  A    between atoms: C_7  and  S_8
REMARK    4  A    between atoms: S_8  and  C_9
REMARK    5  A    between atoms: C_12  and  C_13
REMARK    6  A    between atoms: C_18  and  C_19
REMARK    7  A    between atoms: C_19  and  O_20
REMARK    8  A    between atoms: O_20  and  C_21
REMARK    9  A    between atoms: C_26  and  C_27
REMARK                            x       y       z     vdW  Elec       q    Type
REMARK                         _______ _______ _______ _____ _____    ______ ____
ROOT
ATOM      1  C   UNL     1       6.771   5.502  16.245  0.00  0.00    +0.000 A 
ATOM      2  C   UNL     1       7.321   5.337  14.953  0.00  0.00    +0.000 A 
ATOM      3  C   UNL     1       6.735   4.498  14.001  0.00  0.00    +0.000 A 
ATOM      4  C   UNL     1       5.597   3.779  14.327  0.00  0.00    +0.000 A 
ATOM      5  C   UNL     1       5.048   3.902  15.601  0.00  0.00    +0.000 A 
ATOM      6  C   UNL     1       5.604   4.775  16.568  0.00  0.00    +0.000 A 
ENDROOT
BRANCH   1  10
ATOM      7  C   UNL     1       8.071   8.354  17.861  0.00  0.00    +0.000 A 
ATOM      8  N   UNL     1       8.352   7.492  18.815  0.00  0.00    +0.000 NA
ATOM      9  N   UNL     1       7.927   6.257  18.371  0.00  0.00    +0.000 NA
ATOM     10  C   UNL     1       7.410   6.438  17.174  0.00  0.00    +0.000 A 
ATOM     11  O   UNL     1       7.468   7.758  16.786  0.00  0.00    +0.000 OA
BRANCH   7  12
ATOM     12  S   UNL     1       8.439  10.048  17.954  0.00  0.00    +0.000 S 
BRANCH  12  13
ATOM     13  C   UNL     1       9.363  10.104  19.511  0.00  0.00    +0.000 C 
BRANCH  13  19
ATOM     14  C   UNL     1      10.104  14.610  21.658  0.00  0.00    +0.000 C 
ATOM     15  C   UNL     1      10.532  13.554  20.679  0.00  0.00    +0.000 A 
ATOM     16  C   UNL     1      11.677  13.729  19.894  0.00  0.00    +0.000 A 
ATOM     17  C   UNL     1      12.071  12.739  18.995  0.00  0.00    +0.000 A 
ATOM     18  C   UNL     1      11.323  11.568  18.868  0.00  0.00    +0.000 A 
ATOM     19  C   UNL     1      10.165  11.377  19.636  0.00  0.00    +0.000 A 
ATOM     20  C   UNL     1       9.783  12.378  20.547  0.00  0.00    +0.000 A 
ENDBRANCH  13  19
ENDBRANCH  12  13
ENDBRANCH   7  12
ENDBRANCH   1  10
BRANCH   6  21
ATOM     21  C   UNL     1       4.847   4.900  17.880  0.00  0.00    +0.000 C 
BRANCH  21  22
ATOM     22  O   UNL     1       3.454   5.079  17.649  0.00  0.00    +0.000 OA
BRANCH  22  23
ATOM     23  C   UNL     1       2.586   4.502  18.547  0.00  0.00    +0.000 A 
ATOM     24  C   UNL     1       2.222   5.364  19.596  0.00  0.00    +0.000 A 
ATOM     25  C   UNL     1       1.398   4.935  20.641  0.00  0.00    +0.000 A 
ATOM     26  C   UNL     1       0.927   3.630  20.654  0.00  0.00    +0.000 A 
ATOM     27  C   UNL     1       1.284   2.760  19.626  0.00  0.00    +0.000 A 
ATOM     28  C   UNL     1       2.125   3.171  18.569  0.00  0.00    +0.000 A 
ATOM     29  C   UNL     1       2.482   2.119  17.561  0.00  0.00    +0.000 C 
ENDBRANCH  22  23
ENDBRANCH  21  22
ENDBRANCH   6  21
TORSDOF 7
ENDMDL
MODEL 3
REMARK VINA RESULT:      -8.6      0.351      1.317
REMARK  Name = 
REMARK  9 active torsions:
REMARK  status: ('A' for Active; 'I' for Inactive)
REMARK    1  A    between atoms: C_1  and  C_2
REMARK    2  A    between atoms: C_6  and  C_7
REMARK    3  A    between atoms: C_7  and  S_8
REMARK    4  A    between atoms: S_8  and  C_9
REMARK    5  A    between atoms: C_12  and  C_13
REMARK    6  A    between atoms: C_18  and  C_19
REMARK    7  A    between atoms: C_19  and  O_20
REMARK    8  A    between atoms: O_20  and  C_21
REMARK    9  A    between atoms: C_26  and  C_27
REMARK                            x       y       z     vdW  Elec       q    Type
REMARK                         _______ _______ _______ _____ _____    ______ ____
ROOT
ATOM      1  C   UNL     1       4.697   5.810  17.403  0.00  0.00    +0.000 A 
ATOM      2  C   UNL     1       6.015   6.305  17.275  0.00  0.00    +0.000 A 
ATOM      3  C   UNL     1       7.020   5.581  16.628  0.00  0.00    +0.000 A 
ATOM      4  C   UNL     1       6.738   4.326  16.114  0.00  0.00    +0.000 A 
ATOM      5  C   UNL     1       5.455   3.801  16.247  0.00  0.00    +0.000 A 
ATOM      6  C   UNL     1       4.414   4.534  16.866  0.00  0.00    +0.000 A 
ENDROOT
BRANCH   1  10
ATOM      7  C   UNL     1       2.393   8.343  18.242  0.00  0.00    +0.000 A 
ATOM      8  N   UNL     1       2.128   7.548  19.256  0.00  0.00    +0.000 NA
ATOM      9  N   UNL     1       2.960   6.456  19.132  0.00  0.00    +0.000 NA
ATOM     10  C   UNL     1       3.684   6.648  18.049  0.00  0.00    +0.000 A 
ATOM     11  O   UNL     1       3.371   7.836  17.428  0.00  0.00    +0.000 OA
BRANCH   7  12
ATOM     12  S   UNL     1       1.603   9.866  17.979  0.00  0.00    +0.000 S 
BRANCH  12  13
ATOM     13  C   UNL     1       0.456   9.895  19.382  0.00  0.00    +0.000 C 
BRANCH  13  19
ATOM     14  C   UNL     1      -3.387  13.016  20.351  0.00  0.00    +0.000 C 
ATOM     15  C   UNL     1      -2.737  12.000  19.457  0.00  0.00    +0.000 A 
ATOM     16  C   UNL     1      -3.346  11.605  18.262  0.00  0.00    +0.000 A 
ATOM     17  C   UNL     1      -2.730  10.667  17.435  0.00  0.00    +0.000 A 
ATOM     18  C   UNL     1      -1.502  10.110  17.796  0.00  0.00    +0.000 A 
ATOM     19  C   UNL     1      -0.880  10.483  18.996  0.00  0.00    +0.000 A 
ATOM     20  C   UNL     1      -1.506  11.437  19.818  0.00  0.00    +0.000 A 
ENDBRANCH  13  19
ENDBRANCH  12  13
ENDBRANCH   7  12
ENDBRANCH   1  10
BRANCH   6  21
ATOM     21  C   UNL     1       3.035   3.895  16.850  0.00  0.00    +0.000 C 
BRANCH  21  22
ATOM     22  O   UNL     1       3.024   2.689  17.606  0.00  0.00    +0.000 OA
BRANCH  22  23
ATOM     23  C   UNL     1       2.571   2.760  18.904  0.00  0.00    +0.000 A 
ATOM     24  C   UNL     1       1.240   3.199  19.001  0.00  0.00    +0.000 A 
ATOM     25  C   UNL     1       0.626   3.398  20.241  0.00  0.00    +0.000 A 
ATOM     26  C   UNL     1       1.339   3.161  21.408  0.00  0.00    +0.000 A 
ATOM     27  C   UNL     1       2.662   2.732  21.329  0.00  0.00    +0.000 A 
ATOM     28  C   UNL     1       3.303   2.539  20.086  0.00  0.00    +0.000 A 
ATOM     29  C   UNL     1       4.747   2.136  20.143  0.00  0.00    +0.000 C 
ENDBRANCH  22  23
ENDBRANCH  21  22
ENDBRANCH   6  21
TORSDOF 7
ENDMDL
MODEL 4
REMARK VINA RESULT:      -8.4      1.679      2.811
REMARK  Name = 
REMARK  9 active torsions:
REMARK  status: ('A' for Active; 'I' for Inactive)
REMARK    1  A    between atoms: C_1  and  C_2
REMARK    2  A    between atoms: C_6  and  C_7
REMARK    3  A    between atoms: C_7  and  S_8
REMARK    4  A    between atoms: S_8  and  C_9
REMARK    5  A    between atoms: C_12  and  C_13
REMARK    6  A    between atoms: C_18  and  C_19
REMARK    7  A    between atoms: C_19  and  O_20
REMARK    8  A    between atoms: O_20  and  C_21
REMARK    9  A    between atoms: C_26  and  C_27
REMARK                            x       y       z     vdW  Elec       q    Type
REMARK                         _______ _______ _______ _____ _____    ______ ____
ROOT
ATOM      1  C   UNL     1       4.734   6.032  17.176  0.00  0.00    +0.000 A 
ATOM      2  C   UNL     1       4.982   6.202  15.794  0.00  0.00    +0.000 A 
ATOM      3  C   UNL     1       5.989   5.497  15.129  0.00  0.00    +0.000 A 
ATOM      4  C   UNL     1       6.795   4.621  15.837  0.00  0.00    +0.000 A 
ATOM      5  C   UNL     1       6.591   4.452  17.205  0.00  0.00    +0.000 A 
ATOM      6  C   UNL     1       5.552   5.129  17.889  0.00  0.00    +0.000 A 
ENDROOT
BRANCH   1  10
ATOM      7  C   UNL     1       2.439   8.491  18.231  0.00  0.00    +0.000 A 
ATOM      8  N   UNL     1       1.845   7.467  18.804  0.00  0.00    +0.000 NA
ATOM      9  N   UNL     1       2.612   6.356  18.523  0.00  0.00    +0.000 NA
ATOM     10  C   UNL     1       3.628   6.767  17.794  0.00  0.00    +0.000 A 
ATOM     11  O   UNL     1       3.579   8.124  17.567  0.00  0.00    +0.000 OA
BRANCH   7  12
ATOM     12  S   UNL     1       1.851  10.121  18.323  0.00  0.00    +0.000 S 
BRANCH  12  13
ATOM     13  C   UNL     1       0.118   9.827  18.766  0.00  0.00    +0.000 C 
BRANCH  13  19
ATOM     14  C   UNL     1      -0.943  12.957  22.579  0.00  0.00    +0.000 C 
ATOM     15  C   UNL     1      -0.650  11.570  22.083  0.00  0.00    +0.000 A 
ATOM     16  C   UNL     1      -0.620  10.486  22.968  0.00  0.00    +0.000 A 
ATOM     17  C   UNL     1      -0.356   9.201  22.497  0.00  0.00    +0.000 A 
ATOM     18  C   UNL     1      -0.114   8.986  21.139  0.00  0.00    +0.000 A 
ATOM     19  C   UNL     1      -0.127  10.060  20.237  0.00  0.00    +0.000 A 
ATOM     20  C   UNL     1      -0.405  11.350  20.722  0.00  0.00    +0.000 A 
ENDBRANCH  13  19
ENDBRANCH  12  13
ENDBRANCH   7  12
ENDBRANCH   1  10
BRANCH   6  21
ATOM     21  C   UNL     1       5.367   4.774  19.356  0.00  0.00    +0.000 C 
BRANCH  21  22
ATOM     22  O   UNL     1       4.862   3.451  19.499  0.00  0.00    +0.000 OA
BRANCH  22  23
ATOM     23  C   UNL     1       3.495   3.299  19.565  0.00  0.00    +0.000 A 
ATOM     24  C   UNL     1       2.983   3.459  20.863  0.00  0.00    +0.000 A 
ATOM     25  C   UNL     1       1.625   3.277  21.140  0.00  0.00    +0.000 A 
ATOM     26  C   UNL     1       0.755   2.927  20.117  0.00  0.00    +0.000 A 
ATOM     27  C   UNL     1       1.248   2.757  18.824  0.00  0.00    +0.000 A 
ATOM     28  C   UNL     1       2.618   2.924  18.528  0.00  0.00    +0.000 A 
ATOM     29  C   UNL     1       3.027   2.650  17.111  0.00  0.00    +0.000 C 
ENDBRANCH  22  23
ENDBRANCH  21  22
ENDBRANCH   6  21
TORSDOF 7
ENDMDL
MODEL 5
REMARK VINA RESULT:      -8.3      1.612      4.398
REMARK  Name = 
REMARK  9 active torsions:
REMARK  status: ('A' for Active; 'I' for Inactive)
REMARK    1  A    between atoms: C_1  and  C_2
REMARK    2  A    between atoms: C_6  and  C_7
REMARK    3  A    between atoms: C_7  and  S_8
REMARK    4  A    between atoms: S_8  and  C_9
REMARK    5  A    between atoms: C_12  and  C_13
REMARK    6  A    between atoms: C_18  and  C_19
REMARK    7  A    between atoms: C_19  and  O_20
REMARK    8  A    between atoms: O_20  and  C_21
REMARK    9  A    between atoms: C_26  and  C_27
REMARK                            x       y       z     vdW  Elec       q    Type
REMARK                         _______ _______ _______ _____ _____    ______ ____
ROOT
ATOM      1  C   UNL     1       2.465   4.382  19.059  0.00  0.00    +0.000 A 
ATOM      2  C   UNL     1       1.334   3.610  18.706  0.00  0.00    +0.000 A 
ATOM      3  C   UNL     1       1.416   2.232  18.486  0.00  0.00    +0.000 A 
ATOM      4  C   UNL     1       2.641   1.593  18.587  0.00  0.00    +0.000 A 
ATOM      5  C   UNL     1       3.777   2.332  18.909  0.00  0.00    +0.000 A 
ATOM      6  C   UNL     1       3.709   3.722  19.171  0.00  0.00    +0.000 A 
ENDROOT
BRANCH   1  10
ATOM      7  C   UNL     1       2.087   7.878  18.805  0.00  0.00    +0.000 A 
ATOM      8  N   UNL     1       1.952   7.801  20.111  0.00  0.00    +0.000 NA
ATOM      9  N   UNL     1       2.086   6.469  20.445  0.00  0.00    +0.000 NA
ATOM     10  C   UNL     1       2.294   5.812  19.323  0.00  0.00    +0.000 A 
ATOM     11  O   UNL     1       2.304   6.652  18.233  0.00  0.00    +0.000 OA
BRANCH   7  12
ATOM     12  S   UNL     1       2.014   9.366  17.915  0.00  0.00    +0.000 S 
BRANCH  12  13
ATOM     13  C   UNL     1       1.176  10.433  19.116  0.00  0.00    +0.000 C 
BRANCH  13  19
ATOM     14  C   UNL     1      -3.281  12.620  20.018  0.00  0.00    +0.000 C 
ATOM     15  C   UNL     1      -2.438  11.683  19.200  0.00  0.00    +0.000 A 
ATOM     16  C   UNL     1      -2.985  10.995  18.112  0.00  0.00    +0.000 A 
ATOM     17  C   UNL     1      -2.193  10.134  17.354  0.00  0.00    +0.000 A 
ATOM     18  C   UNL     1      -0.848   9.949  17.679  0.00  0.00    +0.000 A 
ATOM     19  C   UNL     1      -0.282  10.620  18.773  0.00  0.00    +0.000 A 
ATOM     20  C   UNL     1      -1.089  11.493  19.524  0.00  0.00    +0.000 A 
ENDBRANCH  13  19
ENDBRANCH  12  13
ENDBRANCH   7  12
ENDBRANCH   1  10
BRANCH   6  21
ATOM     21  C   UNL     1       5.000   4.389  19.618  0.00  0.00    +0.000 C 
BRANCH  21  22
ATOM     22  O   UNL     1       5.992   4.312  18.600  0.00  0.00    +0.000 OA
BRANCH  22  23
ATOM     23  C   UNL     1       6.605   5.485  18.224  0.00  0.00    +0.000 A 
ATOM     24  C   UNL     1       7.641   5.869  19.091  0.00  0.00    +0.000 A 
ATOM     25  C   UNL     1       8.338   7.068  18.910  0.00  0.00    +0.000 A 
ATOM     26  C   UNL     1       8.004   7.905  17.855  0.00  0.00    +0.000 A 
ATOM     27  C   UNL     1       6.974   7.542  16.989  0.00  0.00    +0.000 A 
ATOM     28  C   UNL     1       6.251   6.342  17.164  0.00  0.00    +0.000 A 
ATOM     29  C   UNL     1       5.126   6.102  16.200  0.00  0.00    +0.000 C 
ENDBRANCH  22  23
ENDBRANCH  21  22
ENDBRANCH   6  21
TORSDOF 7
ENDMDL
MODEL 6
REMARK VINA RESULT:      -8.2      1.657      4.219
REMARK  Name = 
REMARK  9 active torsions:
REMARK  status: ('A' for Active; 'I' for Inactive)
REMARK    1  A    between atoms: C_1  and  C_2
REMARK    2  A    between atoms: C_6  and  C_7
REMARK    3  A    between atoms: C_7  and  S_8
REMARK    4  A    between atoms: S_8  and  C_9
REMARK    5  A    between atoms: C_12  and  C_13
REMARK    6  A    between atoms: C_18  and  C_19
REMARK    7  A    between atoms: C_19  and  O_20
REMARK    8  A    between atoms: O_20  and  C_21
REMARK    9  A    between atoms: C_26  and  C_27
REMARK                            x       y       z     vdW  Elec       q    Type
REMARK                         _______ _______ _______ _____ _____    ______ ____
ROOT
ATOM      1  C   UNL     1       2.524   4.457  18.956  0.00  0.00    +0.000 A 
ATOM      2  C   UNL     1       1.421   3.691  18.514  0.00  0.00    +0.000 A 
ATOM      3  C   UNL     1       1.534   2.329  18.221  0.00  0.00    +0.000 A 
ATOM      4  C   UNL     1       2.763   1.703  18.337  0.00  0.00    +0.000 A 
ATOM      5  C   UNL     1       3.874   2.437  18.746  0.00  0.00    +0.000 A 
ATOM      6  C   UNL     1       3.773   3.809  19.083  0.00  0.00    +0.000 A 
ENDROOT
BRANCH   1  10
ATOM      7  C   UNL     1       2.064   7.952  18.880  0.00  0.00    +0.000 A 
ATOM      8  N   UNL     1       1.931   7.805  20.180  0.00  0.00    +0.000 NA
ATOM      9  N   UNL     1       2.096   6.462  20.447  0.00  0.00    +0.000 NA
ATOM     10  C   UNL     1       2.319   5.868  19.293  0.00  0.00    +0.000 A 
ATOM     11  O   UNL     1       2.310   6.763  18.247  0.00  0.00    +0.000 OA
BRANCH   7  12
ATOM     12  S   UNL     1       1.956   9.482  18.067  0.00  0.00    +0.000 S 
BRANCH  12  13
ATOM     13  C   UNL     1       1.259  10.512  19.384  0.00  0.00    +0.000 C 
BRANCH  13  19
ATOM     14  C   UNL     1      -3.210   9.604  17.224  0.00  0.00    +0.000 C 
ATOM     15  C   UNL     1      -2.318  10.506  18.027  0.00  0.00    +0.000 A 
ATOM     16  C   UNL     1      -2.784  11.739  18.497  0.00  0.00    +0.000 A 
ATOM     17  C   UNL     1      -1.951  12.566  19.249  0.00  0.00    +0.000 A 
ATOM     18  C   UNL     1      -0.643  12.173  19.534  0.00  0.00    +0.000 A 
ATOM     19  C   UNL     1      -0.151  10.947  19.063  0.00  0.00    +0.000 A 
ATOM     20  C   UNL     1      -1.003  10.117  18.314  0.00  0.00    +0.000 A 
ENDBRANCH  13  19
ENDBRANCH  12  13
ENDBRANCH   7  12
ENDBRANCH   1  10
BRANCH   6  21
ATOM     21  C   UNL     1       5.033   4.468  19.619  0.00  0.00    +0.000 C 
BRANCH  21  22
ATOM     22  O   UNL     1       6.100   4.364  18.683  0.00  0.00    +0.000 OA
BRANCH  22  23
ATOM     23  C   UNL     1       6.642   5.537  18.209  0.00  0.00    +0.000 A 
ATOM     24  C   UNL     1       7.682   6.030  19.016  0.00  0.00    +0.000 A 
ATOM     25  C   UNL     1       8.312   7.245  18.732  0.00  0.00    +0.000 A 
ATOM     26  C   UNL     1       7.907   7.990  17.634  0.00  0.00    +0.000 A 
ATOM     27  C   UNL     1       6.872   7.519  16.828  0.00  0.00    +0.000 A 
ATOM     28  C   UNL     1       6.216   6.301  17.106  0.00  0.00    +0.000 A 
ATOM     29  C   UNL     1       5.078   5.941  16.197  0.00  0.00    +0.000 C 
ENDBRANCH  22  23
ENDBRANCH  21  22
ENDBRANCH   6  21
TORSDOF 7
ENDMDL
MODEL 7
REMARK VINA RESULT:      -8.2      4.998      7.504
REMARK  Name = 
REMARK  9 active torsions:
REMARK  status: ('A' for Active; 'I' for Inactive)
REMARK    1  A    between atoms: C_1  and  C_2
REMARK    2  A    between atoms: C_6  and  C_7
REMARK    3  A    between atoms: C_7  and  S_8
REMARK    4  A    between atoms: S_8  and  C_9
REMARK    5  A    between atoms: C_12  and  C_13
REMARK    6  A    between atoms: C_18  and  C_19
REMARK    7  A    between atoms: C_19  and  O_20
REMARK    8  A    between atoms: O_20  and  C_21
REMARK    9  A    between atoms: C_26  and  C_27
REMARK                            x       y       z     vdW  Elec       q    Type
REMARK                         _______ _______ _______ _____ _____    ______ ____
ROOT
ATOM      1  C   UNL     1       6.825   5.417  16.289  0.00  0.00    +0.000 A 
ATOM      2  C   UNL     1       7.174   5.467  14.920  0.00  0.00    +0.000 A 
ATOM      3  C   UNL     1       6.597   4.613  13.977  0.00  0.00    +0.000 A 
ATOM      4  C   UNL     1       5.673   3.664  14.384  0.00  0.00    +0.000 A 
ATOM      5  C   UNL     1       5.328   3.574  15.730  0.00  0.00    +0.000 A 
ATOM      6  C   UNL     1       5.873   4.455  16.696  0.00  0.00    +0.000 A 
ENDROOT
BRANCH   1  10
ATOM      7  C   UNL     1       8.073   8.311  17.868  0.00  0.00    +0.000 A 
ATOM      8  N   UNL     1       8.318   7.477  18.855  0.00  0.00    +0.000 NA
ATOM      9  N   UNL     1       7.906   6.231  18.433  0.00  0.00    +0.000 NA
ATOM     10  C   UNL     1       7.433   6.378  17.213  0.00  0.00    +0.000 A 
ATOM     11  O   UNL     1       7.507   7.686  16.790  0.00  0.00    +0.000 OA
BRANCH   7  12
ATOM     12  S   UNL     1       8.442  10.006  17.925  0.00  0.00    +0.000 S 
BRANCH  12  13
ATOM     13  C   UNL     1       9.356  10.098  19.487  0.00  0.00    +0.000 C 
BRANCH  13  19
ATOM     14  C   UNL     1      10.054  14.590  21.676  0.00  0.00    +0.000 C 
ATOM     15  C   UNL     1      10.476  13.559  20.668  0.00  0.00    +0.000 A 
ATOM     16  C   UNL     1      11.589  13.775  19.849  0.00  0.00    +0.000 A 
ATOM     17  C   UNL     1      11.978  12.809  18.922  0.00  0.00    +0.000 A 
ATOM     18  C   UNL     1      11.255  11.620  18.801  0.00  0.00    +0.000 A 
ATOM     19  C   UNL     1      10.129  11.389  19.605  0.00  0.00    +0.000 A 
ATOM     20  C   UNL     1       9.752  12.367  20.542  0.00  0.00    +0.000 A 
ENDBRANCH  13  19
ENDBRANCH  12  13
ENDBRANCH   7  12
ENDBRANCH   1  10
BRANCH   6  21
ATOM     21  C   UNL     1       5.333   4.324  18.111  0.00  0.00    +0.000 C 
BRANCH  21  22
ATOM     22  O   UNL     1       4.220   5.188  18.312  0.00  0.00    +0.000 OA
BRANCH  22  23
ATOM     23  C   UNL     1       3.220   4.747  19.149  0.00  0.00    +0.000 A 
ATOM     24  C   UNL     1       3.124   3.346  19.204  0.00  0.00    +0.000 A 
ATOM     25  C   UNL     1       2.126   2.712  19.950  0.00  0.00    +0.000 A 
ATOM     26  C   UNL     1       1.202   3.473  20.651  0.00  0.00    +0.000 A 
ATOM     27  C   UNL     1       1.279   4.864  20.601  0.00  0.00    +0.000 A 
ATOM     28  C   UNL     1       2.272   5.522  19.844  0.00  0.00    +0.000 A 
ATOM     29  C   UNL     1       2.203   7.021  19.825  0.00  0.00    +0.000 C 
ENDBRANCH  22  23
ENDBRANCH  21  22
ENDBRANCH   6  21
TORSDOF 7
ENDMDL
MODEL 8
REMARK VINA RESULT:      -8.2      0.531      1.364
REMARK  Name = 
REMARK  9 active torsions:
REMARK  status: ('A' for Active; 'I' for Inactive)
REMARK    1  A    between atoms: C_1  and  C_2
REMARK    2  A    between atoms: C_6  and  C_7
REMARK    3  A    between atoms: C_7  and  S_8
REMARK    4  A    between atoms: S_8  and  C_9
REMARK    5  A    between atoms: C_12  and  C_13
REMARK    6  A    between atoms: C_18  and  C_19
REMARK    7  A    between atoms: C_19  and  O_20
REMARK    8  A    between atoms: O_20  and  C_21
REMARK    9  A    between atoms: C_26  and  C_27
REMARK                            x       y       z     vdW  Elec       q    Type
REMARK                         _______ _______ _______ _____ _____    ______ ____
ROOT
ATOM      1  C   UNL     1       4.750   5.813  17.375  0.00  0.00    +0.000 A 
ATOM      2  C   UNL     1       6.061   6.330  17.256  0.00  0.00    +0.000 A 
ATOM      3  C   UNL     1       7.084   5.617  16.624  0.00  0.00    +0.000 A 
ATOM      4  C   UNL     1       6.828   4.354  16.119  0.00  0.00    +0.000 A 
ATOM      5  C   UNL     1       5.552   3.808  16.244  0.00  0.00    +0.000 A 
ATOM      6  C   UNL     1       4.493   4.529  16.847  0.00  0.00    +0.000 A 
ENDROOT
BRANCH   1  10
ATOM      7  C   UNL     1       2.466   8.361  18.226  0.00  0.00    +0.000 A 
ATOM      8  N   UNL     1       2.102   7.507  19.158  0.00  0.00    +0.000 NA
ATOM      9  N   UNL     1       2.908   6.397  19.016  0.00  0.00    +0.000 NA
ATOM     10  C   UNL     1       3.717   6.639  18.005  0.00  0.00    +0.000 A 
ATOM     11  O   UNL     1       3.487   7.878  17.451  0.00  0.00    +0.000 OA
BRANCH   7  12
ATOM     12  S   UNL     1       1.744   9.926  18.017  0.00  0.00    +0.000 S 
BRANCH  12  13
ATOM     13  C   UNL     1       0.368   9.819  19.191  0.00  0.00    +0.000 C 
BRANCH  13  19
ATOM     14  C   UNL     1      -3.025   9.815  15.457  0.00  0.00    +0.000 C 
ATOM     15  C   UNL     1      -2.566  10.331  16.791  0.00  0.00    +0.000 A 
ATOM     16  C   UNL     1      -3.324  11.273  17.493  0.00  0.00    +0.000 A 
ATOM     17  C   UNL     1      -2.894  11.740  18.734  0.00  0.00    +0.000 A 
ATOM     18  C   UNL     1      -1.699  11.273  19.284  0.00  0.00    +0.000 A 
ATOM     19  C   UNL     1      -0.917  10.337  18.591  0.00  0.00    +0.000 A 
ATOM     20  C   UNL     1      -1.366   9.866  17.345  0.00  0.00    +0.000 A 
ENDBRANCH  13  19
ENDBRANCH  12  13
ENDBRANCH   7  12
ENDBRANCH   1  10
BRANCH   6  21
ATOM     21  C   UNL     1       3.126   3.866  16.823  0.00  0.00    +0.000 C 
BRANCH  21  22
ATOM     22  O   UNL     1       3.145   2.632  17.531  0.00  0.00    +0.000 OA
BRANCH  22  23
ATOM     23  C   UNL     1       2.832   2.665  18.870  0.00  0.00    +0.000 A 
ATOM     24  C   UNL     1       3.954   2.515  19.703  0.00  0.00    +0.000 A 
ATOM     25  C   UNL     1       3.827   2.458  21.094  0.00  0.00    +0.000 A 
ATOM     26  C   UNL     1       2.570   2.547  21.675  0.00  0.00    +0.000 A 
ATOM     27  C   UNL     1       1.447   2.689  20.863  0.00  0.00    +0.000 A 
ATOM     28  C   UNL     1       1.554   2.736  19.456  0.00  0.00    +0.000 A 
ATOM     29  C   UNL     1       0.262   2.828  18.698  0.00  0.00    +0.000 C 
ENDBRANCH  22  23
ENDBRANCH  21  22
ENDBRANCH   6  21
TORSDOF 7
ENDMDL
MODEL 9
REMARK VINA RESULT:      -8.2      3.101      7.949
REMARK  Name = 
REMARK  9 active torsions:
REMARK  status: ('A' for Active; 'I' for Inactive)
REMARK    1  A    between atoms: C_1  and  C_2
REMARK    2  A    between atoms: C_6  and  C_7
REMARK    3  A    between atoms: C_7  and  S_8
REMARK    4  A    between atoms: S_8  and  C_9
REMARK    5  A    between atoms: C_12  and  C_13
REMARK    6  A    between atoms: C_18  and  C_19
REMARK    7  A    between atoms: C_19  and  O_20
REMARK    8  A    between atoms: O_20  and  C_21
REMARK    9  A    between atoms: C_26  and  C_27
REMARK                            x       y       z     vdW  Elec       q    Type
REMARK                         _______ _______ _______ _____ _____    ______ ____
ROOT
ATOM      1  C   UNL     1       3.499   3.919  19.761  0.00  0.00    +0.000 A 
ATOM      2  C   UNL     1       3.396   2.852  20.682  0.00  0.00    +0.000 A 
ATOM      3  C   UNL     1       2.170   2.450  21.218  0.00  0.00    +0.000 A 
ATOM      4  C   UNL     1       1.013   3.126  20.866  0.00  0.00    +0.000 A 
ATOM      5  C   UNL     1       1.086   4.198  19.979  0.00  0.00    +0.000 A 
ATOM      6  C   UNL     1       2.314   4.597  19.397  0.00  0.00    +0.000 A 
ENDROOT
BRANCH   1  10
ATOM      7  C   UNL     1       6.268   4.475  17.650  0.00  0.00    +0.000 A 
ATOM      8  N   UNL     1       6.825   4.914  18.758  0.00  0.00    +0.000 NA
ATOM      9  N   UNL     1       5.886   4.770  19.758  0.00  0.00    +0.000 NA
ATOM     10  C   UNL     1       4.812   4.252  19.202  0.00  0.00    +0.000 A 
ATOM     11  O   UNL     1       4.985   4.039  17.853  0.00  0.00    +0.000 OA
BRANCH   7  12
ATOM     12  S   UNL     1       7.075   4.439  16.114  0.00  0.00    +0.000 S 
BRANCH  12  13
ATOM     13  C   UNL     1       5.720   4.924  15.012  0.00  0.00    +0.000 C 
BRANCH  13  19
ATOM     14  C   UNL     1       3.433   3.021  10.938  0.00  0.00    +0.000 C 
ATOM     15  C   UNL     1       4.692   3.290  11.710  0.00  0.00    +0.000 A 
ATOM     16  C   UNL     1       5.937   2.895  11.208  0.00  0.00    +0.000 A 
ATOM     17  C   UNL     1       7.101   3.156  11.929  0.00  0.00    +0.000 A 
ATOM     18  C   UNL     1       7.033   3.810  13.161  0.00  0.00    +0.000 A 
ATOM     19  C   UNL     1       5.795   4.203  13.688  0.00  0.00    +0.000 A 
ATOM     20  C   UNL     1       4.628   3.943  12.948  0.00  0.00    +0.000 A 
ENDBRANCH  13  19
ENDBRANCH  12  13
ENDBRANCH   7  12
ENDBRANCH   1  10
BRANCH   6  21
ATOM     21  C   UNL     1       2.241   5.709  18.363  0.00  0.00    +0.000 C 
BRANCH  21  22
ATOM     22  O   UNL     1       2.894   6.883  18.831  0.00  0.00    +0.000 OA
BRANCH  22  23
ATOM     23  C   UNL     1       2.137   8.027  18.942  0.00  0.00    +0.000 A 
ATOM     24  C   UNL     1       2.250   8.874  17.827  0.00  0.00    +0.000 A 
ATOM     25  C   UNL     1       1.606  10.114  17.784  0.00  0.00    +0.000 A 
ATOM     26  C   UNL     1       0.839  10.529  18.863  0.00  0.00    +0.000 A 
ATOM     27  C   UNL     1       0.722   9.704  19.980  0.00  0.00    +0.000 A 
ATOM     28  C   UNL     1       1.375   8.454  20.047  0.00  0.00    +0.000 A 
ATOM     29  C   UNL     1       1.218   7.694  21.331  0.00  0.00    +0.000 C 
ENDBRANCH  22  23
ENDBRANCH  21  22
ENDBRANCH   6  21
TORSDOF 7
ENDMDL
