MODEL 1
REMARK VINA RESULT:      -8.6      0.000      0.000
REMARK  Name = 
REMARK  7 active torsions:
REMARK  status: ('A' for Active; 'I' for Inactive)
REMARK    1  A    between atoms: S_2  and  N_4
REMARK    2  A    between atoms: S_2  and  C_25
REMARK    3  A    between atoms: N_4  and  C_5
REMARK    4  A    between atoms: C_9  and  N_10
REMARK    5  A    between atoms: C_13  and  C_14
REMARK    6  A    between atoms: C_17  and  O_18
REMARK    7  A    between atoms: C_20  and  C_21
REMARK                            x       y       z     vdW  Elec       q    Type
REMARK                         _______ _______ _______ _____ _____    ______ ____
ROOT
ATOM      1  C   UNL     1       4.366   3.830  17.009  0.00  0.00    +0.000 A 
ATOM      2  C   UNL     1       3.314   3.010  16.606  0.00  0.00    +0.000 A 
ATOM      3  C   UNL     1       2.002   3.346  16.943  0.00  0.00    +0.000 A 
ATOM      4  C   UNL     1       1.745   4.511  17.667  0.00  0.00    +0.000 A 
ATOM      5  C   UNL     1       2.800   5.364  18.026  0.00  0.00    +0.000 A 
ATOM      6  C   UNL     1       4.116   5.015  17.705  0.00  0.00    +0.000 A 
ENDROOT
BRANCH   5   7
ATOM      7  N   UNL     1       2.517   6.540  18.771  0.00  0.00    +0.000 N 
ATOM      8  N   UNL     1       2.740   7.751  18.182  0.00  0.00    +0.000 NA
ATOM      9  C   UNL     1       2.135   8.631  18.980  0.00  0.00    +0.000 A 
ATOM     10  C   UNL     1       1.631   8.034  20.142  0.00  0.00    +0.000 A 
ATOM     11  C   UNL     1       1.908   6.686  20.009  0.00  0.00    +0.000 A 
BRANCH  10  12
ATOM     12  C   UNL     1       1.065   8.737  21.318  0.00  0.00    +0.000 A 
ATOM     13  N   UNL     1       1.795   9.215  22.315  0.00  0.00    +0.000 NA
ATOM     14  N   UNL     1       0.914   9.690  23.272  0.00  0.00    +0.000 NA
ATOM     15  C   UNL     1      -0.271   9.475  22.767  0.00  0.00    +0.000 A 
ATOM     16  O   UNL     1      -0.283   8.906  21.547  0.00  0.00    +0.000 OA
BRANCH  15  17
ATOM     17  O   UNL     1      -1.429   9.704  23.342  0.00  0.00    +0.000 OA
ATOM     18  H   UNL     1      -1.312   9.287  24.212  0.00  0.00    +0.000 HD
ENDBRANCH  15  17
ENDBRANCH  10  12
BRANCH  11  19
ATOM     19  C   UNL     1       1.675   5.675  21.127  0.00  0.00    +0.000 C 
ATOM     20  C   UNL     1       1.237   4.253  20.952  0.00  0.00    +0.000 C 
ATOM     21  C   UNL     1       2.681   4.550  21.221  0.00  0.00    +0.000 C 
ENDBRANCH  11  19
ENDBRANCH   5   7
BRANCH   1  22
ATOM     22  N   UNL     1       5.711   3.474  16.666  0.00  0.00    +0.000 N 
ATOM     23  H   UNL     1       6.172   2.964  17.419  0.00  0.00    +0.000 HD
BRANCH  22  25
ATOM     24  O   UNL     1       6.009   6.037  16.498  0.00  0.00    +0.000 OA
ATOM     25  S   UNL     1       6.704   4.796  16.237  0.00  0.00    +0.000 S 
ATOM     26  O   UNL     1       8.021   4.518  16.768  0.00  0.00    +0.000 OA
BRANCH  25  27
ATOM     27  C   UNL     1       6.778   4.581  14.473  0.00  0.00    +0.000 A 
ATOM     28  C   UNL     1       5.952   3.627  13.874  0.00  0.00    +0.000 A 
ATOM     29  C   UNL     1       6.054   3.398  12.502  0.00  0.00    +0.000 A 
ATOM     30  C   UNL     1       6.969   4.126  11.738  0.00  0.00    +0.000 A 
ATOM     31  C   UNL     1       7.773   5.098  12.338  0.00  0.00    +0.000 A 
ATOM     32  C   UNL     1       7.680   5.330  13.711  0.00  0.00    +0.000 A 
ENDBRANCH  25  27
ENDBRANCH  22  25
ENDBRANCH   1  22
TORSDOF 7
ENDMDL
MODEL 2
REMARK VINA RESULT:      -8.5      1.903      2.805
REMARK  Name = 
REMARK  7 active torsions:
REMARK  status: ('A' for Active; 'I' for Inactive)
REMARK    1  A    between atoms: S_2  and  N_4
REMARK    2  A    between atoms: S_2  and  C_25
REMARK    3  A    between atoms: N_4  and  C_5
REMARK    4  A    between atoms: C_9  and  N_10
REMARK    5  A    between atoms: C_13  and  C_14
REMARK    6  A    between atoms: C_17  and  O_18
REMARK    7  A    between atoms: C_20  and  C_21
REMARK                            x       y       z     vdW  Elec       q    Type
REMARK                         _______ _______ _______ _____ _____    ______ ____
ROOT
ATOM      1  C   UNL     1       4.539   4.163  18.748  0.00  0.00    +0.000 A 
ATOM      2  C   UNL     1       3.859   3.422  17.785  0.00  0.00    +0.000 A 
ATOM      3  C   UNL     1       2.518   3.696  17.514  0.00  0.00    +0.000 A 
ATOM      4  C   UNL     1       1.866   4.725  18.196  0.00  0.00    +0.000 A 
ATOM      5  C   UNL     1       2.566   5.506  19.128  0.00  0.00    +0.000 A 
ATOM      6  C   UNL     1       3.905   5.216  19.412  0.00  0.00    +0.000 A 
ENDROOT
BRANCH   5   7
ATOM      7  N   UNL     1       1.881   6.541  19.818  0.00  0.00    +0.000 N 
ATOM      8  N   UNL     1       1.466   6.306  21.097  0.00  0.00    +0.000 NA
ATOM      9  C   UNL     1       1.126   7.506  21.568  0.00  0.00    +0.000 A 
ATOM     10  C   UNL     1       1.190   8.499  20.584  0.00  0.00    +0.000 A 
ATOM     11  C   UNL     1       1.653   7.860  19.449  0.00  0.00    +0.000 A 
BRANCH  10  12
ATOM     12  C   UNL     1       0.712   9.897  20.712  0.00  0.00    +0.000 A 
ATOM     13  N   UNL     1       1.217  10.775  21.566  0.00  0.00    +0.000 NA
ATOM     14  N   UNL     1       0.445  11.920  21.477  0.00  0.00    +0.000 NA
ATOM     15  C   UNL     1      -0.452  11.644  20.568  0.00  0.00    +0.000 A 
ATOM     16  O   UNL     1      -0.356  10.419  20.017  0.00  0.00    +0.000 OA
BRANCH  15  17
ATOM     17  O   UNL     1      -1.449  12.406  20.184  0.00  0.00    +0.000 OA
ATOM     18  H   UNL     1      -1.003  13.249  19.996  0.00  0.00    +0.000 HD
ENDBRANCH  15  17
ENDBRANCH  10  12
BRANCH  11  19
ATOM     19  C   UNL     1       1.722   8.535  18.084  0.00  0.00    +0.000 C 
ATOM     20  C   UNL     1       2.363   9.856  17.785  0.00  0.00    +0.000 C 
ATOM     21  C   UNL     1       3.090   8.592  17.442  0.00  0.00    +0.000 C 
ENDBRANCH  11  19
ENDBRANCH   5   7
BRANCH   1  22
ATOM     22  N   UNL     1       5.914   3.870  19.025  0.00  0.00    +0.000 N 
ATOM     23  H   UNL     1       6.104   3.853  20.027  0.00  0.00    +0.000 HD
BRANCH  22  25
ATOM     24  O   UNL     1       6.863   6.269  18.844  0.00  0.00    +0.000 OA
ATOM     25  S   UNL     1       7.026   4.941  18.294  0.00  0.00    +0.000 S 
ATOM     26  O   UNL     1       8.305   4.264  18.271  0.00  0.00    +0.000 OA
BRANCH  25  27
ATOM     27  C   UNL     1       6.400   4.967  16.630  0.00  0.00    +0.000 A 
ATOM     28  C   UNL     1       6.711   3.906  15.776  0.00  0.00    +0.000 A 
ATOM     29  C   UNL     1       6.288   3.951  14.447  0.00  0.00    +0.000 A 
ATOM     30  C   UNL     1       5.553   5.044  13.985  0.00  0.00    +0.000 A 
ATOM     31  C   UNL     1       5.222   6.088  14.850  0.00  0.00    +0.000 A 
ATOM     32  C   UNL     1       5.644   6.053  16.180  0.00  0.00    +0.000 A 
ENDBRANCH  25  27
ENDBRANCH  22  25
ENDBRANCH   1  22
TORSDOF 7
ENDMDL
MODEL 3
REMARK VINA RESULT:      -8.4      2.371      4.158
REMARK  Name = 
REMARK  7 active torsions:
REMARK  status: ('A' for Active; 'I' for Inactive)
REMARK    1  A    between atoms: S_2  and  N_4
REMARK    2  A    between atoms: S_2  and  C_25
REMARK    3  A    between atoms: N_4  and  C_5
REMARK    4  A    between atoms: C_9  and  N_10
REMARK    5  A    between atoms: C_13  and  C_14
REMARK    6  A    between atoms: C_17  and  O_18
REMARK    7  A    between atoms: C_20  and  C_21
REMARK                            x       y       z     vdW  Elec       q    Type
REMARK                         _______ _______ _______ _____ _____    ______ ____
ROOT
ATOM      1  C   UNL     1       2.865   6.123  18.638  0.00  0.00    +0.000 A 
ATOM      2  C   UNL     1       3.177   6.859  17.497  0.00  0.00    +0.000 A 
ATOM      3  C   UNL     1       2.820   8.206  17.419  0.00  0.00    +0.000 A 
ATOM      4  C   UNL     1       2.168   8.817  18.491  0.00  0.00    +0.000 A 
ATOM      5  C   UNL     1       1.902   8.090  19.661  0.00  0.00    +0.000 A 
ATOM      6  C   UNL     1       2.242   6.734  19.729  0.00  0.00    +0.000 A 
ENDROOT
BRANCH   5   7
ATOM      7  N   UNL     1       1.229   8.728  20.736  0.00  0.00    +0.000 N 
ATOM      8  N   UNL     1       1.645   8.468  22.010  0.00  0.00    +0.000 NA
ATOM      9  C   UNL     1       1.043   9.393  22.758  0.00  0.00    +0.000 A 
ATOM     10  C   UNL     1       0.145  10.171  22.018  0.00  0.00    +0.000 A 
ATOM     11  C   UNL     1       0.253   9.714  20.717  0.00  0.00    +0.000 A 
BRANCH  10  12
ATOM     12  C   UNL     1      -0.816  11.161  22.560  0.00  0.00    +0.000 A 
ATOM     13  N   UNL     1      -0.528  12.439  22.757  0.00  0.00    +0.000 NA
ATOM     14  N   UNL     1      -1.625  13.011  23.378  0.00  0.00    +0.000 NA
ATOM     15  C   UNL     1      -2.488  12.037  23.490  0.00  0.00    +0.000 A 
ATOM     16  O   UNL     1      -2.088  10.852  22.992  0.00  0.00    +0.000 OA
BRANCH  15  17
ATOM     17  O   UNL     1      -3.662  12.084  24.076  0.00  0.00    +0.000 OA
ATOM     18  H   UNL     1      -3.667  11.260  24.591  0.00  0.00    +0.000 HD
ENDBRANCH  15  17
ENDBRANCH  10  12
BRANCH  11  19
ATOM     19  C   UNL     1      -0.671  10.176  19.595  0.00  0.00    +0.000 C 
ATOM     20  C   UNL     1      -1.418  11.475  19.546  0.00  0.00    +0.000 C 
ATOM     21  C   UNL     1      -0.160  11.318  18.746  0.00  0.00    +0.000 C 
ENDBRANCH  11  19
ENDBRANCH   5   7
BRANCH   1  22
ATOM     22  N   UNL     1       3.227   4.738  18.706  0.00  0.00    +0.000 N 
ATOM     23  H   UNL     1       2.659   4.231  19.385  0.00  0.00    +0.000 HD
BRANCH  22  25
ATOM     24  O   UNL     1       5.430   5.611  19.743  0.00  0.00    +0.000 OA
ATOM     25  S   UNL     1       4.871   4.456  19.077  0.00  0.00    +0.000 S 
ATOM     26  O   UNL     1       4.950   3.125  19.638  0.00  0.00    +0.000 OA
BRANCH  25  27
ATOM     27  C   UNL     1       5.562   4.393  17.440  0.00  0.00    +0.000 A 
ATOM     28  C   UNL     1       6.884   4.804  17.249  0.00  0.00    +0.000 A 
ATOM     29  C   UNL     1       7.414   4.829  15.959  0.00  0.00    +0.000 A 
ATOM     30  C   UNL     1       6.628   4.437  14.873  0.00  0.00    +0.000 A 
ATOM     31  C   UNL     1       5.316   4.001  15.074  0.00  0.00    +0.000 A 
ATOM     32  C   UNL     1       4.777   3.977  16.360  0.00  0.00    +0.000 A 
ENDBRANCH  25  27
ENDBRANCH  22  25
ENDBRANCH   1  22
TORSDOF 7
ENDMDL
MODEL 4
REMARK VINA RESULT:      -8.4      2.068      2.931
REMARK  Name = 
REMARK  7 active torsions:
REMARK  status: ('A' for Active; 'I' for Inactive)
REMARK    1  A    between atoms: S_2  and  N_4
REMARK    2  A    between atoms: S_2  and  C_25
REMARK    3  A    between atoms: N_4  and  C_5
REMARK    4  A    between atoms: C_9  and  N_10
REMARK    5  A    between atoms: C_13  and  C_14
REMARK    6  A    between atoms: C_17  and  O_18
REMARK    7  A    between atoms: C_20  and  C_21
REMARK                            x       y       z     vdW  Elec       q    Type
REMARK                         _______ _______ _______ _____ _____    ______ ____
ROOT
ATOM      1  C   UNL     1       4.549   3.885  16.756  0.00  0.00    +0.000 A 
ATOM      2  C   UNL     1       3.584   2.898  16.570  0.00  0.00    +0.000 A 
ATOM      3  C   UNL     1       2.288   3.093  17.047  0.00  0.00    +0.000 A 
ATOM      4  C   UNL     1       1.956   4.285  17.694  0.00  0.00    +0.000 A 
ATOM      5  C   UNL     1       2.913   5.301  17.834  0.00  0.00    +0.000 A 
ATOM      6  C   UNL     1       4.218   5.094  17.372  0.00  0.00    +0.000 A 
ENDROOT
BRANCH   5   7
ATOM      7  N   UNL     1       2.557   6.501  18.504  0.00  0.00    +0.000 N 
ATOM      8  N   UNL     1       2.817   7.691  17.888  0.00  0.00    +0.000 NA
ATOM      9  C   UNL     1       2.139   8.594  18.597  0.00  0.00    +0.000 A 
ATOM     10  C   UNL     1       1.545   8.037  19.735  0.00  0.00    +0.000 A 
ATOM     11  C   UNL     1       1.845   6.688  19.680  0.00  0.00    +0.000 A 
BRANCH  10  12
ATOM     12  C   UNL     1       0.874   8.778  20.830  0.00  0.00    +0.000 A 
ATOM     13  N   UNL     1      -0.008   9.747  20.634  0.00  0.00    +0.000 NA
ATOM     14  N   UNL     1      -0.319  10.271  21.877  0.00  0.00    +0.000 NA
ATOM     15  C   UNL     1       0.388   9.566  22.720  0.00  0.00    +0.000 A 
ATOM     16  O   UNL     1       1.146   8.599  22.169  0.00  0.00    +0.000 OA
BRANCH  15  17
ATOM     17  O   UNL     1       0.473   9.738  24.018  0.00  0.00    +0.000 OA
ATOM     18  H   UNL     1      -0.102  10.508  24.162  0.00  0.00    +0.000 HD
ENDBRANCH  15  17
ENDBRANCH  10  12
BRANCH  11  19
ATOM     19  C   UNL     1       1.528   5.719  20.814  0.00  0.00    +0.000 C 
ATOM     20  C   UNL     1       1.219   4.260  20.667  0.00  0.00    +0.000 C 
ATOM     21  C   UNL     1       2.586   4.680  21.112  0.00  0.00    +0.000 C 
ENDBRANCH  11  19
ENDBRANCH   5   7
BRANCH   1  22
ATOM     22  N   UNL     1       5.880   3.673  16.269  0.00  0.00    +0.000 N 
ATOM     23  H   UNL     1       6.510   3.363  17.010  0.00  0.00    +0.000 HD
BRANCH  22  25
ATOM     24  O   UNL     1       7.712   4.625  14.712  0.00  0.00    +0.000 OA
ATOM     25  S   UNL     1       6.582   5.036  15.514  0.00  0.00    +0.000 S 
ATOM     26  O   UNL     1       5.493   5.821  14.975  0.00  0.00    +0.000 OA
BRANCH  25  27
ATOM     27  C   UNL     1       7.215   5.898  16.935  0.00  0.00    +0.000 A 
ATOM     28  C   UNL     1       7.399   7.281  16.858  0.00  0.00    +0.000 A 
ATOM     29  C   UNL     1       7.963   7.957  17.939  0.00  0.00    +0.000 A 
ATOM     30  C   UNL     1       8.330   7.254  19.089  0.00  0.00    +0.000 A 
ATOM     31  C   UNL     1       8.119   5.876  19.170  0.00  0.00    +0.000 A 
ATOM     32  C   UNL     1       7.558   5.192  18.091  0.00  0.00    +0.000 A 
ENDBRANCH  25  27
ENDBRANCH  22  25
ENDBRANCH   1  22
TORSDOF 7
ENDMDL
MODEL 5
REMARK VINA RESULT:      -8.4      3.019      5.305
REMARK  Name = 
REMARK  7 active torsions:
REMARK  status: ('A' for Active; 'I' for Inactive)
REMARK    1  A    between atoms: S_2  and  N_4
REMARK    2  A    between atoms: S_2  and  C_25
REMARK    3  A    between atoms: N_4  and  C_5
REMARK    4  A    between atoms: C_9  and  N_10
REMARK    5  A    between atoms: C_13  and  C_14
REMARK    6  A    between atoms: C_17  and  O_18
REMARK    7  A    between atoms: C_20  and  C_21
REMARK                            x       y       z     vdW  Elec       q    Type
REMARK                         _______ _______ _______ _____ _____    ______ ____
ROOT
ATOM      1  C   UNL     1       2.584   7.166  19.506  0.00  0.00    +0.000 A 
ATOM      2  C   UNL     1       2.630   7.708  18.224  0.00  0.00    +0.000 A 
ATOM      3  C   UNL     1       1.858   8.828  17.914  0.00  0.00    +0.000 A 
ATOM      4  C   UNL     1       1.055   9.414  18.893  0.00  0.00    +0.000 A 
ATOM      5  C   UNL     1       1.048   8.900  20.199  0.00  0.00    +0.000 A 
ATOM      6  C   UNL     1       1.808   7.764  20.502  0.00  0.00    +0.000 A 
ENDROOT
BRANCH   5   7
ATOM      7  N   UNL     1       0.216   9.505  21.177  0.00  0.00    +0.000 N 
ATOM      8  N   UNL     1       0.174   8.953  22.426  0.00  0.00    +0.000 NA
ATOM      9  C   UNL     1      -0.440   9.867  23.178  0.00  0.00    +0.000 A 
ATOM     10  C   UNL     1      -0.911  10.946  22.422  0.00  0.00    +0.000 A 
ATOM     11  C   UNL     1      -0.505  10.689  21.126  0.00  0.00    +0.000 A 
BRANCH  10  12
ATOM     12  C   UNL     1      -1.787  12.042  22.903  0.00  0.00    +0.000 A 
ATOM     13  N   UNL     1      -1.336  13.195  23.375  0.00  0.00    +0.000 NA
ATOM     14  N   UNL     1      -2.434  13.905  23.830  0.00  0.00    +0.000 NA
ATOM     15  C   UNL     1      -3.455  13.130  23.582  0.00  0.00    +0.000 A 
ATOM     16  O   UNL     1      -3.159  11.958  22.987  0.00  0.00    +0.000 OA
BRANCH  15  17
ATOM     17  O   UNL     1      -4.711  13.351  23.895  0.00  0.00    +0.000 OA
ATOM     18  H   UNL     1      -5.173  12.663  23.388  0.00  0.00    +0.000 HD
ENDBRANCH  15  17
ENDBRANCH  10  12
BRANCH  11  19
ATOM     19  C   UNL     1      -0.945  11.533  19.934  0.00  0.00    +0.000 C 
ATOM     20  C   UNL     1      -1.372  12.969  19.980  0.00  0.00    +0.000 C 
ATOM     21  C   UNL     1       0.009  12.627  19.511  0.00  0.00    +0.000 C 
ENDBRANCH  11  19
ENDBRANCH   5   7
BRANCH   1  22
ATOM     22  N   UNL     1       3.374   6.011  19.815  0.00  0.00    +0.000 N 
ATOM     23  H   UNL     1       4.372   6.201  19.730  0.00  0.00    +0.000 HD
BRANCH  22  25
ATOM     24  O   UNL     1       2.917   3.468  19.712  0.00  0.00    +0.000 OA
ATOM     25  S   UNL     1       3.015   4.636  18.866  0.00  0.00    +0.000 S 
ATOM     26  O   UNL     1       1.962   5.022  17.952  0.00  0.00    +0.000 OA
BRANCH  25  27
ATOM     27  C   UNL     1       4.518   4.494  17.926  0.00  0.00    +0.000 A 
ATOM     28  C   UNL     1       5.735   4.770  18.554  0.00  0.00    +0.000 A 
ATOM     29  C   UNL     1       6.914   4.735  17.809  0.00  0.00    +0.000 A 
ATOM     30  C   UNL     1       6.872   4.416  16.450  0.00  0.00    +0.000 A 
ATOM     31  C   UNL     1       5.655   4.115  15.834  0.00  0.00    +0.000 A 
ATOM     32  C   UNL     1       4.471   4.152  16.571  0.00  0.00    +0.000 A 
ENDBRANCH  25  27
ENDBRANCH  22  25
ENDBRANCH   1  22
TORSDOF 7
ENDMDL
MODEL 6
REMARK VINA RESULT:      -8.3      3.003      5.250
REMARK  Name = 
REMARK  7 active torsions:
REMARK  status: ('A' for Active; 'I' for Inactive)
REMARK    1  A    between atoms: S_2  and  N_4
REMARK    2  A    between atoms: S_2  and  C_25
REMARK    3  A    between atoms: N_4  and  C_5
REMARK    4  A    between atoms: C_9  and  N_10
REMARK    5  A    between atoms: C_13  and  C_14
REMARK    6  A    between atoms: C_17  and  O_18
REMARK    7  A    between atoms: C_20  and  C_21
REMARK                            x       y       z     vdW  Elec       q    Type
REMARK                         _______ _______ _______ _____ _____    ______ ____
ROOT
ATOM      1  C   UNL     1       2.539   7.180  19.543  0.00  0.00    +0.000 A 
ATOM      2  C   UNL     1       2.638   7.753  18.278  0.00  0.00    +0.000 A 
ATOM      3  C   UNL     1       1.911   8.906  17.977  0.00  0.00    +0.000 A 
ATOM      4  C   UNL     1       1.102   9.493  18.951  0.00  0.00    +0.000 A 
ATOM      5  C   UNL     1       1.044   8.946  20.242  0.00  0.00    +0.000 A 
ATOM      6  C   UNL     1       1.758   7.778  20.535  0.00  0.00    +0.000 A 
ENDROOT
BRANCH   5   7
ATOM      7  N   UNL     1       0.206   9.553  21.215  0.00  0.00    +0.000 N 
ATOM      8  N   UNL     1       0.039   8.922  22.414  0.00  0.00    +0.000 NA
ATOM      9  C   UNL     1      -0.541   9.831  23.197  0.00  0.00    +0.000 A 
ATOM     10  C   UNL     1      -0.870  10.999  22.499  0.00  0.00    +0.000 A 
ATOM     11  C   UNL     1      -0.407  10.798  21.211  0.00  0.00    +0.000 A 
BRANCH  10  12
ATOM     12  C   UNL     1      -1.678  12.132  23.011  0.00  0.00    +0.000 A 
ATOM     13  N   UNL     1      -1.207  13.358  23.180  0.00  0.00    +0.000 NA
ATOM     14  N   UNL     1      -2.210  14.101  23.778  0.00  0.00    +0.000 NA
ATOM     15  C   UNL     1      -3.207  13.267  23.907  0.00  0.00    +0.000 A 
ATOM     16  O   UNL     1      -2.983  12.024  23.439  0.00  0.00    +0.000 OA
BRANCH  15  17
ATOM     17  O   UNL     1      -4.364  13.499  24.482  0.00  0.00    +0.000 OA
ATOM     18  H   UNL     1      -4.772  14.136  23.872  0.00  0.00    +0.000 HD
ENDBRANCH  15  17
ENDBRANCH  10  12
BRANCH  11  19
ATOM     19  C   UNL     1      -0.698  11.758  20.064  0.00  0.00    +0.000 C 
ATOM     20  C   UNL     1      -1.319  11.398  18.748  0.00  0.00    +0.000 C 
ATOM     21  C   UNL     1      -2.157  12.055  19.802  0.00  0.00    +0.000 C 
ENDBRANCH  11  19
ENDBRANCH   5   7
BRANCH   1  22
ATOM     22  N   UNL     1       3.282   5.992  19.841  0.00  0.00    +0.000 N 
ATOM     23  H   UNL     1       4.287   6.166  19.854  0.00  0.00    +0.000 HD
BRANCH  22  25
ATOM     24  O   UNL     1       2.876   3.457  19.527  0.00  0.00    +0.000 OA
ATOM     25  S   UNL     1       2.986   4.688  18.777  0.00  0.00    +0.000 S 
ATOM     26  O   UNL     1       1.963   5.127  17.854  0.00  0.00    +0.000 OA
BRANCH  25  27
ATOM     27  C   UNL     1       4.527   4.642  17.891  0.00  0.00    +0.000 A 
ATOM     28  C   UNL     1       4.523   4.247  16.551  0.00  0.00    +0.000 A 
ATOM     29  C   UNL     1       5.733   4.136  15.866  0.00  0.00    +0.000 A 
ATOM     30  C   UNL     1       6.934   4.427  16.518  0.00  0.00    +0.000 A 
ATOM     31  C   UNL     1       6.929   4.847  17.849  0.00  0.00    +0.000 A 
ATOM     32  C   UNL     1       5.723   4.957  18.542  0.00  0.00    +0.000 A 
ENDBRANCH  25  27
ENDBRANCH  22  25
ENDBRANCH   1  22
TORSDOF 7
ENDMDL
MODEL 7
REMARK VINA RESULT:      -8.3      1.367      2.358
REMARK  Name = 
REMARK  7 active torsions:
REMARK  status: ('A' for Active; 'I' for Inactive)
REMARK    1  A    between atoms: S_2  and  N_4
REMARK    2  A    between atoms: S_2  and  C_25
REMARK    3  A    between atoms: N_4  and  C_5
REMARK    4  A    between atoms: C_9  and  N_10
REMARK    5  A    between atoms: C_13  and  C_14
REMARK    6  A    between atoms: C_17  and  O_18
REMARK    7  A    between atoms: C_20  and  C_21
REMARK                            x       y       z     vdW  Elec       q    Type
REMARK                         _______ _______ _______ _____ _____    ______ ____
ROOT
ATOM      1  C   UNL     1       4.657   4.213  17.470  0.00  0.00    +0.000 A 
ATOM      2  C   UNL     1       3.951   3.093  17.036  0.00  0.00    +0.000 A 
ATOM      3  C   UNL     1       2.629   2.903  17.441  0.00  0.00    +0.000 A 
ATOM      4  C   UNL     1       2.011   3.845  18.265  0.00  0.00    +0.000 A 
ATOM      5  C   UNL     1       2.705   5.000  18.659  0.00  0.00    +0.000 A 
ATOM      6  C   UNL     1       4.037   5.177  18.267  0.00  0.00    +0.000 A 
ENDROOT
BRANCH   5   7
ATOM      7  N   UNL     1       2.060   5.940  19.505  0.00  0.00    +0.000 N 
ATOM      8  N   UNL     1       1.738   5.557  20.775  0.00  0.00    +0.000 NA
ATOM      9  C   UNL     1       1.421   6.692  21.400  0.00  0.00    +0.000 A 
ATOM     10  C   UNL     1       1.407   7.789  20.531  0.00  0.00    +0.000 A 
ATOM     11  C   UNL     1       1.795   7.287  19.302  0.00  0.00    +0.000 A 
BRANCH  10  12
ATOM     12  C   UNL     1       0.927   9.156  20.847  0.00  0.00    +0.000 A 
ATOM     13  N   UNL     1       1.531   9.972  21.698  0.00  0.00    +0.000 NA
ATOM     14  N   UNL     1       0.733  11.097  21.818  0.00  0.00    +0.000 NA
ATOM     15  C   UNL     1      -0.277  10.873  21.021  0.00  0.00    +0.000 A 
ATOM     16  O   UNL     1      -0.237   9.703  20.355  0.00  0.00    +0.000 OA
BRANCH  15  17
ATOM     17  O   UNL     1      -1.331  11.635  20.847  0.00  0.00    +0.000 OA
ATOM     18  H   UNL     1      -1.068  12.178  20.085  0.00  0.00    +0.000 HD
ENDBRANCH  15  17
ENDBRANCH  10  12
BRANCH  11  19
ATOM     19  C   UNL     1       1.763   8.111  18.020  0.00  0.00    +0.000 C 
ATOM     20  C   UNL     1       2.018   9.584  17.912  0.00  0.00    +0.000 C 
ATOM     21  C   UNL     1       3.099   8.620  17.527  0.00  0.00    +0.000 C 
ENDBRANCH  11  19
ENDBRANCH   5   7
BRANCH   1  22
ATOM     22  N   UNL     1       6.016   4.396  17.055  0.00  0.00    +0.000 N 
ATOM     23  H   UNL     1       6.647   4.483  17.852  0.00  0.00    +0.000 HD
BRANCH  22  25
ATOM     24  O   UNL     1       5.054   6.521  15.940  0.00  0.00    +0.000 OA
ATOM     25  S   UNL     1       6.268   5.741  16.033  0.00  0.00    +0.000 S 
ATOM     26  O   UNL     1       7.536   6.324  16.414  0.00  0.00    +0.000 OA
BRANCH  25  27
ATOM     27  C   UNL     1       6.500   4.919  14.473  0.00  0.00    +0.000 A 
ATOM     28  C   UNL     1       7.589   5.280  13.676  0.00  0.00    +0.000 A 
ATOM     29  C   UNL     1       7.740   4.696  12.418  0.00  0.00    +0.000 A 
ATOM     30  C   UNL     1       6.813   3.752  11.971  0.00  0.00    +0.000 A 
ATOM     31  C   UNL     1       5.741   3.376  12.783  0.00  0.00    +0.000 A 
ATOM     32  C   UNL     1       5.581   3.958  14.041  0.00  0.00    +0.000 A 
ENDBRANCH  25  27
ENDBRANCH  22  25
ENDBRANCH   1  22
TORSDOF 7
ENDMDL
MODEL 8
REMARK VINA RESULT:      -8.2      1.837      2.650
REMARK  Name = 
REMARK  7 active torsions:
REMARK  status: ('A' for Active; 'I' for Inactive)
REMARK    1  A    between atoms: S_2  and  N_4
REMARK    2  A    between atoms: S_2  and  C_25
REMARK    3  A    between atoms: N_4  and  C_5
REMARK    4  A    between atoms: C_9  and  N_10
REMARK    5  A    between atoms: C_13  and  C_14
REMARK    6  A    between atoms: C_17  and  O_18
REMARK    7  A    between atoms: C_20  and  C_21
REMARK                            x       y       z     vdW  Elec       q    Type
REMARK                         _______ _______ _______ _____ _____    ______ ____
ROOT
ATOM      1  C   UNL     1       3.924   5.053  17.692  0.00  0.00    +0.000 A 
ATOM      2  C   UNL     1       3.692   4.224  18.787  0.00  0.00    +0.000 A 
ATOM      3  C   UNL     1       2.985   4.707  19.888  0.00  0.00    +0.000 A 
ATOM      4  C   UNL     1       2.494   6.014  19.883  0.00  0.00    +0.000 A 
ATOM      5  C   UNL     1       2.681   6.832  18.758  0.00  0.00    +0.000 A 
ATOM      6  C   UNL     1       3.409   6.351  17.663  0.00  0.00    +0.000 A 
ENDROOT
BRANCH   5   7
ATOM      7  N   UNL     1       2.183   8.161  18.777  0.00  0.00    +0.000 N 
ATOM      8  N   UNL     1       2.286   8.910  17.640  0.00  0.00    +0.000 NA
ATOM      9  C   UNL     1       1.505   9.968  17.861  0.00  0.00    +0.000 A 
ATOM     10  C   UNL     1       0.996   9.988  19.165  0.00  0.00    +0.000 A 
ATOM     11  C   UNL     1       1.462   8.829  19.757  0.00  0.00    +0.000 A 
BRANCH  10  12
ATOM     12  C   UNL     1       0.246  11.099  19.800  0.00  0.00    +0.000 A 
ATOM     13  N   UNL     1       0.822  12.132  20.397  0.00  0.00    +0.000 NA
ATOM     14  N   UNL     1      -0.188  12.888  20.965  0.00  0.00    +0.000 NA
ATOM     15  C   UNL     1      -1.289  12.258  20.652  0.00  0.00    +0.000 A 
ATOM     16  O   UNL     1      -1.126  11.146  19.910  0.00  0.00    +0.000 OA
BRANCH  15  17
ATOM     17  O   UNL     1      -2.509  12.565  21.025  0.00  0.00    +0.000 OA
ATOM     18  H   UNL     1      -2.971  12.640  20.174  0.00  0.00    +0.000 HD
ENDBRANCH  15  17
ENDBRANCH  10  12
BRANCH  11  19
ATOM     19  C   UNL     1       1.280   8.521  21.239  0.00  0.00    +0.000 C 
ATOM     20  C   UNL     1       0.489   9.335  22.218  0.00  0.00    +0.000 C 
ATOM     21  C   UNL     1      -0.104   8.078  21.657  0.00  0.00    +0.000 C 
ENDBRANCH  11  19
ENDBRANCH   5   7
BRANCH   1  22
ATOM     22  N   UNL     1       4.658   4.551  16.568  0.00  0.00    +0.000 N 
ATOM     23  H   UNL     1       4.824   3.547  16.641  0.00  0.00    +0.000 HD
BRANCH  22  25
ATOM     24  O   UNL     1       5.986   6.753  16.288  0.00  0.00    +0.000 OA
ATOM     25  S   UNL     1       6.163   5.318  16.309  0.00  0.00    +0.000 S 
ATOM     26  O   UNL     1       7.118   4.667  17.180  0.00  0.00    +0.000 OA
BRANCH  25  27
ATOM     27  C   UNL     1       6.507   4.793  14.645  0.00  0.00    +0.000 A 
ATOM     28  C   UNL     1       7.576   5.377  13.961  0.00  0.00    +0.000 A 
ATOM     29  C   UNL     1       7.811   5.028  12.631  0.00  0.00    +0.000 A 
ATOM     30  C   UNL     1       6.986   4.096  11.998  0.00  0.00    +0.000 A 
ATOM     31  C   UNL     1       5.935   3.496  12.695  0.00  0.00    +0.000 A 
ATOM     32  C   UNL     1       5.692   3.842  14.025  0.00  0.00    +0.000 A 
ENDBRANCH  25  27
ENDBRANCH  22  25
ENDBRANCH   1  22
TORSDOF 7
ENDMDL
MODEL 9
REMARK VINA RESULT:      -8.2      2.903      4.821
REMARK  Name = 
REMARK  7 active torsions:
REMARK  status: ('A' for Active; 'I' for Inactive)
REMARK    1  A    between atoms: S_2  and  N_4
REMARK    2  A    between atoms: S_2  and  C_25
REMARK    3  A    between atoms: N_4  and  C_5
REMARK    4  A    between atoms: C_9  and  N_10
REMARK    5  A    between atoms: C_13  and  C_14
REMARK    6  A    between atoms: C_17  and  O_18
REMARK    7  A    between atoms: C_20  and  C_21
REMARK                            x       y       z     vdW  Elec       q    Type
REMARK                         _______ _______ _______ _____ _____    ______ ____
ROOT
ATOM      1  C   UNL     1       2.984   6.655  19.399  0.00  0.00    +0.000 A 
ATOM      2  C   UNL     1       3.182   7.146  18.110  0.00  0.00    +0.000 A 
ATOM      3  C   UNL     1       2.488   8.278  17.682  0.00  0.00    +0.000 A 
ATOM      4  C   UNL     1       1.609   8.927  18.552  0.00  0.00    +0.000 A 
ATOM      5  C   UNL     1       1.450   8.464  19.867  0.00  0.00    +0.000 A 
ATOM      6  C   UNL     1       2.132   7.316  20.287  0.00  0.00    +0.000 A 
ENDROOT
BRANCH   5   7
ATOM      7  N   UNL     1       0.544   9.133  20.731  0.00  0.00    +0.000 N 
ATOM      8  N   UNL     1      -0.256   8.381  21.543  0.00  0.00    +0.000 NA
ATOM      9  C   UNL     1      -0.770   9.251  22.412  0.00  0.00    +0.000 A 
ATOM     10  C   UNL     1      -0.423  10.572  22.107  0.00  0.00    +0.000 A 
ATOM     11  C   UNL     1       0.404  10.487  21.002  0.00  0.00    +0.000 A 
BRANCH  10  12
ATOM     12  C   UNL     1      -0.962  11.795  22.749  0.00  0.00    +0.000 A 
ATOM     13  N   UNL     1      -2.246  11.984  23.015  0.00  0.00    +0.000 NA
ATOM     14  N   UNL     1      -2.375  13.275  23.500  0.00  0.00    +0.000 NA
ATOM     15  C   UNL     1      -1.158  13.751  23.500  0.00  0.00    +0.000 A 
ATOM     16  O   UNL     1      -0.206  12.900  23.072  0.00  0.00    +0.000 OA
BRANCH  15  17
ATOM     17  O   UNL     1      -0.785  14.968  23.819  0.00  0.00    +0.000 OA
ATOM     18  H   UNL     1      -0.760  14.927  24.789  0.00  0.00    +0.000 HD
ENDBRANCH  15  17
ENDBRANCH  10  12
BRANCH  11  19
ATOM     19  C   UNL     1       0.891  11.709  20.231  0.00  0.00    +0.000 C 
ATOM     20  C   UNL     1       1.069  11.800  18.745  0.00  0.00    +0.000 C 
ATOM     21  C   UNL     1      -0.144  12.409  19.380  0.00  0.00    +0.000 C 
ENDBRANCH  11  19
ENDBRANCH   5   7
BRANCH   1  22
ATOM     22  N   UNL     1       3.695   5.487  19.828  0.00  0.00    +0.000 N 
ATOM     23  H   UNL     1       4.697   5.662  19.906  0.00  0.00    +0.000 HD
BRANCH  22  25
ATOM     24  O   UNL     1       3.666   2.912  19.602  0.00  0.00    +0.000 OA
ATOM     25  S   UNL     1       3.473   4.119  18.830  0.00  0.00    +0.000 S 
ATOM     26  O   UNL     1       2.276   4.358  18.053  0.00  0.00    +0.000 OA
BRANCH  25  27
ATOM     27  C   UNL     1       4.866   4.288  17.738  0.00  0.00    +0.000 A 
ATOM     28  C   UNL     1       4.697   4.010  16.380  0.00  0.00    +0.000 A 
ATOM     29  C   UNL     1       5.798   4.068  15.527  0.00  0.00    +0.000 A 
ATOM     30  C   UNL     1       7.055   4.410  16.031  0.00  0.00    +0.000 A 
ATOM     31  C   UNL     1       7.213   4.713  17.385  0.00  0.00    +0.000 A 
ATOM     32  C   UNL     1       6.117   4.654  18.246  0.00  0.00    +0.000 A 
ENDBRANCH  25  27
ENDBRANCH  22  25
ENDBRANCH   1  22
TORSDOF 7
ENDMDL
