MODEL 1
REMARK VINA RESULT:      -5.7      0.000      0.000
REMARK  Name = 
REMARK  5 active torsions:
REMARK  status: ('A' for Active; 'I' for Inactive)
REMARK    1  A    between atoms: C_1  and  N_2
REMARK    2  A    between atoms: C_3  and  C_4
REMARK    3  A    between atoms: C_3  and  C_5
REMARK    4  A    between atoms: C_9  and  C_10
REMARK    5  A    between atoms: C_9  and  C_11
REMARK                            x       y       z     vdW  Elec       q    Type
REMARK                         _______ _______ _______ _____ _____    ______ ____
ROOT
ATOM      1  C   UNL     1       4.161   2.318  19.772  0.00  0.00    +0.000 C 
ATOM      2  N   UNL     1       3.268   3.437  19.509  0.00  0.00    +0.000 NA
ATOM      3  C   UNL     1       2.010   3.488  20.272  0.00  0.00    +0.000 C 
ATOM      4  C   UNL     1       0.911   2.846  19.397  0.00  0.00    +0.000 C 
ATOM      5  C   UNL     1       2.084   2.719  21.615  0.00  0.00    +0.000 C 
ATOM      6  C   UNL     1       1.525   4.871  20.625  0.00  0.00    +0.000 C 
ATOM      7  C   UNL     1       2.057   6.010  20.168  0.00  0.00    +0.000 C 
ATOM      8  C   UNL     1       3.200   6.024  19.221  0.00  0.00    +0.000 C 
ATOM      9  C   UNL     1       3.857   4.643  18.887  0.00  0.00    +0.000 C 
ATOM     10  C   UNL     1       5.365   4.795  19.230  0.00  0.00    +0.000 C 
ATOM     11  C   UNL     1       3.749   4.441  17.354  0.00  0.00    +0.000 C 
ENDROOT
TORSDOF 0
ENDMDL
MODEL 2
REMARK VINA RESULT:      -5.5      1.009      2.724
REMARK  Name = 
REMARK  5 active torsions:
REMARK  status: ('A' for Active; 'I' for Inactive)
REMARK    1  A    between atoms: C_1  and  N_2
REMARK    2  A    between atoms: C_3  and  C_4
REMARK    3  A    between atoms: C_3  and  C_5
REMARK    4  A    between atoms: C_9  and  C_10
REMARK    5  A    between atoms: C_9  and  C_11
REMARK                            x       y       z     vdW  Elec       q    Type
REMARK                         _______ _______ _______ _____ _____    ______ ____
ROOT
ATOM      1  C   UNL     1       4.195   5.021  19.603  0.00  0.00    +0.000 C 
ATOM      2  N   UNL     1       3.234   3.928  19.624  0.00  0.00    +0.000 NA
ATOM      3  C   UNL     1       2.009   4.124  20.416  0.00  0.00    +0.000 C 
ATOM      4  C   UNL     1       2.247   3.489  21.804  0.00  0.00    +0.000 C 
ATOM      5  C   UNL     1       1.648   5.618  20.614  0.00  0.00    +0.000 C 
ATOM      6  C   UNL     1       0.767   3.479  19.855  0.00  0.00    +0.000 C 
ATOM      7  C   UNL     1       0.742   2.639  18.815  0.00  0.00    +0.000 C 
ATOM      8  C   UNL     1       1.977   2.230  18.100  0.00  0.00    +0.000 C 
ATOM      9  C   UNL     1       3.307   2.939  18.526  0.00  0.00    +0.000 C 
ATOM     10  C   UNL     1       3.894   3.558  17.226  0.00  0.00    +0.000 C 
ATOM     11  C   UNL     1       4.287   1.835  18.996  0.00  0.00    +0.000 C 
ENDROOT
TORSDOF 0
ENDMDL
MODEL 3
REMARK VINA RESULT:      -5.4      0.674      3.376
REMARK  Name = 
REMARK  5 active torsions:
REMARK  status: ('A' for Active; 'I' for Inactive)
REMARK    1  A    between atoms: C_1  and  N_2
REMARK    2  A    between atoms: C_3  and  C_4
REMARK    3  A    between atoms: C_3  and  C_5
REMARK    4  A    between atoms: C_9  and  C_10
REMARK    5  A    between atoms: C_9  and  C_11
REMARK                            x       y       z     vdW  Elec       q    Type
REMARK                         _______ _______ _______ _____ _____    ______ ____
ROOT
ATOM      1  C   UNL     1       3.098   2.265  18.193  0.00  0.00    +0.000 C 
ATOM      2  N   UNL     1       3.135   3.429  19.067  0.00  0.00    +0.000 NA
ATOM      3  C   UNL     1       3.903   4.595  18.602  0.00  0.00    +0.000 C 
ATOM      4  C   UNL     1       5.311   4.504  19.229  0.00  0.00    +0.000 C 
ATOM      5  C   UNL     1       4.053   4.648  17.061  0.00  0.00    +0.000 C 
ATOM      6  C   UNL     1       3.341   5.937  18.999  0.00  0.00    +0.000 C 
ATOM      7  C   UNL     1       2.325   6.122  19.847  0.00  0.00    +0.000 C 
ATOM      8  C   UNL     1       1.640   4.990  20.520  0.00  0.00    +0.000 C 
ATOM      9  C   UNL     1       2.067   3.548  20.082  0.00  0.00    +0.000 C 
ATOM     10  C   UNL     1       0.759   2.835  19.636  0.00  0.00    +0.000 C 
ATOM     11  C   UNL     1       2.583   2.817  21.348  0.00  0.00    +0.000 C 
ENDROOT
TORSDOF 0
ENDMDL
MODEL 4
REMARK VINA RESULT:      -5.4      1.133      2.768
REMARK  Name = 
REMARK  5 active torsions:
REMARK  status: ('A' for Active; 'I' for Inactive)
REMARK    1  A    between atoms: C_1  and  N_2
REMARK    2  A    between atoms: C_3  and  C_4
REMARK    3  A    between atoms: C_3  and  C_5
REMARK    4  A    between atoms: C_9  and  C_10
REMARK    5  A    between atoms: C_9  and  C_11
REMARK                            x       y       z     vdW  Elec       q    Type
REMARK                         _______ _______ _______ _____ _____    ______ ____
ROOT
ATOM      1  C   UNL     1       2.450   5.734  19.979  0.00  0.00    +0.000 C 
ATOM      2  N   UNL     1       2.979   4.436  19.587  0.00  0.00    +0.000 NA
ATOM      3  C   UNL     1       2.199   3.248  19.969  0.00  0.00    +0.000 C 
ATOM      4  C   UNL     1       2.789   2.709  21.291  0.00  0.00    +0.000 C 
ATOM      5  C   UNL     1       0.696   3.554  20.189  0.00  0.00    +0.000 C 
ATOM      6  C   UNL     1       2.238   2.106  18.984  0.00  0.00    +0.000 C 
ATOM      7  C   UNL     1       3.033   2.046  17.911  0.00  0.00    +0.000 C 
ATOM      8  C   UNL     1       4.003   3.122  17.585  0.00  0.00    +0.000 C 
ATOM      9  C   UNL     1       3.955   4.408  18.476  0.00  0.00    +0.000 C 
ATOM     10  C   UNL     1       3.752   5.598  17.496  0.00  0.00    +0.000 C 
ATOM     11  C   UNL     1       5.355   4.574  19.120  0.00  0.00    +0.000 C 
ENDROOT
TORSDOF 0
ENDMDL
MODEL 5
REMARK VINA RESULT:      -5.3      1.617      2.250
REMARK  Name = 
REMARK  5 active torsions:
REMARK  status: ('A' for Active; 'I' for Inactive)
REMARK    1  A    between atoms: C_1  and  N_2
REMARK    2  A    between atoms: C_3  and  C_4
REMARK    3  A    between atoms: C_3  and  C_5
REMARK    4  A    between atoms: C_9  and  C_10
REMARK    5  A    between atoms: C_9  and  C_11
REMARK                            x       y       z     vdW  Elec       q    Type
REMARK                         _______ _______ _______ _____ _____    ______ ____
ROOT
ATOM      1  C   UNL     1       4.336   3.326  19.302  0.00  0.00    +0.000 C 
ATOM      2  N   UNL     1       3.929   4.384  18.388  0.00  0.00    +0.000 NA
ATOM      3  C   UNL     1       2.636   5.037  18.648  0.00  0.00    +0.000 C 
ATOM      4  C   UNL     1       1.577   4.337  17.768  0.00  0.00    +0.000 C 
ATOM      5  C   UNL     1       2.191   4.934  20.129  0.00  0.00    +0.000 C 
ATOM      6  C   UNL     1       2.574   6.505  18.309  0.00  0.00    +0.000 C 
ATOM      7  C   UNL     1       3.528   7.183  17.663  0.00  0.00    +0.000 C 
ATOM      8  C   UNL     1       4.773   6.532  17.182  0.00  0.00    +0.000 C 
ATOM      9  C   UNL     1       4.990   5.036  17.591  0.00  0.00    +0.000 C 
ATOM     10  C   UNL     1       6.368   4.987  18.308  0.00  0.00    +0.000 C 
ATOM     11  C   UNL     1       5.121   4.216  16.282  0.00  0.00    +0.000 C 
ENDROOT
TORSDOF 0
ENDMDL
MODEL 6
REMARK VINA RESULT:      -5.2      1.738      3.867
REMARK  Name = 
REMARK  5 active torsions:
REMARK  status: ('A' for Active; 'I' for Inactive)
REMARK    1  A    between atoms: C_1  and  N_2
REMARK    2  A    between atoms: C_3  and  C_4
REMARK    3  A    between atoms: C_3  and  C_5
REMARK    4  A    between atoms: C_9  and  C_10
REMARK    5  A    between atoms: C_9  and  C_11
REMARK                            x       y       z     vdW  Elec       q    Type
REMARK                         _______ _______ _______ _____ _____    ______ ____
ROOT
ATOM      1  C   UNL     1       3.913   2.952  17.961  0.00  0.00    +0.000 C 
ATOM      2  N   UNL     1       3.932   4.374  18.272  0.00  0.00    +0.000 NA
ATOM      3  C   UNL     1       5.128   5.133  17.872  0.00  0.00    +0.000 C 
ATOM      4  C   UNL     1       6.067   5.200  19.097  0.00  0.00    +0.000 C 
ATOM      5  C   UNL     1       5.897   4.479  16.697  0.00  0.00    +0.000 C 
ATOM      6  C   UNL     1       4.876   6.558  17.446  0.00  0.00    +0.000 C 
ATOM      7  C   UNL     1       3.706   7.196  17.560  0.00  0.00    +0.000 C 
ATOM      8  C   UNL     1       2.509   6.552  18.155  0.00  0.00    +0.000 C 
ATOM      9  C   UNL     1       2.631   5.033  18.516  0.00  0.00    +0.000 C 
ATOM     10  C   UNL     1       1.470   4.322  17.766  0.00  0.00    +0.000 C 
ATOM     11  C   UNL     1       2.351   4.898  20.035  0.00  0.00    +0.000 C 
ENDROOT
TORSDOF 0
ENDMDL
MODEL 7
REMARK VINA RESULT:      -5.2      1.190      2.424
REMARK  Name = 
REMARK  5 active torsions:
REMARK  status: ('A' for Active; 'I' for Inactive)
REMARK    1  A    between atoms: C_1  and  N_2
REMARK    2  A    between atoms: C_3  and  C_4
REMARK    3  A    between atoms: C_3  and  C_5
REMARK    4  A    between atoms: C_9  and  C_10
REMARK    5  A    between atoms: C_9  and  C_11
REMARK                            x       y       z     vdW  Elec       q    Type
REMARK                         _______ _______ _______ _____ _____    ______ ____
ROOT
ATOM      1  C   UNL     1       4.774   4.386  18.808  0.00  0.00    +0.000 C 
ATOM      2  N   UNL     1       3.445   3.860  19.088  0.00  0.00    +0.000 NA
ATOM      3  C   UNL     1       3.364   2.508  19.663  0.00  0.00    +0.000 C 
ATOM      4  C   UNL     1       3.137   1.521  18.497  0.00  0.00    +0.000 C 
ATOM      5  C   UNL     1       4.652   2.091  20.417  0.00  0.00    +0.000 C 
ATOM      6  C   UNL     1       2.236   2.288  20.639  0.00  0.00    +0.000 C 
ATOM      7  C   UNL     1       1.250   3.158  20.880  0.00  0.00    +0.000 C 
ATOM      8  C   UNL     1       1.155   4.460  20.172  0.00  0.00    +0.000 C 
ATOM      9  C   UNL     1       2.345   4.838  19.227  0.00  0.00    +0.000 C 
ATOM     10  C   UNL     1       2.856   6.221  19.720  0.00  0.00    +0.000 C 
ATOM     11  C   UNL     1       1.758   5.042  17.807  0.00  0.00    +0.000 C 
ENDROOT
TORSDOF 0
ENDMDL
MODEL 8
REMARK VINA RESULT:      -5.0      1.266      3.374
REMARK  Name = 
REMARK  5 active torsions:
REMARK  status: ('A' for Active; 'I' for Inactive)
REMARK    1  A    between atoms: C_1  and  N_2
REMARK    2  A    between atoms: C_3  and  C_4
REMARK    3  A    between atoms: C_3  and  C_5
REMARK    4  A    between atoms: C_9  and  C_10
REMARK    5  A    between atoms: C_9  and  C_11
REMARK                            x       y       z     vdW  Elec       q    Type
REMARK                         _______ _______ _______ _____ _____    ______ ____
ROOT
ATOM      1  C   UNL     1       5.176   4.291  19.347  0.00  0.00    +0.000 C 
ATOM      2  N   UNL     1       3.723   4.268  19.265  0.00  0.00    +0.000 NA
ATOM      3  C   UNL     1       3.072   5.377  18.549  0.00  0.00    +0.000 C 
ATOM      4  C   UNL     1       2.657   6.429  19.602  0.00  0.00    +0.000 C 
ATOM      5  C   UNL     1       4.001   6.058  17.513  0.00  0.00    +0.000 C 
ATOM      6  C   UNL     1       1.822   5.010  17.791  0.00  0.00    +0.000 C 
ATOM      7  C   UNL     1       1.203   3.827  17.859  0.00  0.00    +0.000 C 
ATOM      8  C   UNL     1       1.691   2.729  18.731  0.00  0.00    +0.000 C 
ATOM      9  C   UNL     1       3.052   2.965  19.467  0.00  0.00    +0.000 C 
ATOM     10  C   UNL     1       3.966   1.774  19.065  0.00  0.00    +0.000 C 
ATOM     11  C   UNL     1       2.780   2.845  20.989  0.00  0.00    +0.000 C 
ENDROOT
TORSDOF 0
ENDMDL
MODEL 9
REMARK VINA RESULT:      -5.0      2.366      3.967
REMARK  Name = 
REMARK  5 active torsions:
REMARK  status: ('A' for Active; 'I' for Inactive)
REMARK    1  A    between atoms: C_1  and  N_2
REMARK    2  A    between atoms: C_3  and  C_4
REMARK    3  A    between atoms: C_3  and  C_5
REMARK    4  A    between atoms: C_9  and  C_10
REMARK    5  A    between atoms: C_9  and  C_11
REMARK                            x       y       z     vdW  Elec       q    Type
REMARK                         _______ _______ _______ _____ _____    ______ ____
ROOT
ATOM      1  C   UNL     1       4.072   3.694  16.745  0.00  0.00    +0.000 C 
ATOM      2  N   UNL     1       4.872   4.763  17.325  0.00  0.00    +0.000 NA
ATOM      3  C   UNL     1       4.974   4.805  18.793  0.00  0.00    +0.000 C 
ATOM      4  C   UNL     1       3.902   5.792  19.305  0.00  0.00    +0.000 C 
ATOM      5  C   UNL     1       4.732   3.427  19.458  0.00  0.00    +0.000 C 
ATOM      6  C   UNL     1       6.296   5.288  19.335  0.00  0.00    +0.000 C 
ATOM      7  C   UNL     1       7.281   5.812  18.598  0.00  0.00    +0.000 C 
ATOM      8  C   UNL     1       7.158   5.995  17.130  0.00  0.00    +0.000 C 
ATOM      9  C   UNL     1       5.873   5.413  16.451  0.00  0.00    +0.000 C 
ATOM     10  C   UNL     1       6.377   4.457  15.335  0.00  0.00    +0.000 C 
ATOM     11  C   UNL     1       5.145   6.592  15.756  0.00  0.00    +0.000 C 
ENDROOT
TORSDOF 0
ENDMDL
