MODEL 1
REMARK VINA RESULT:      -7.8      0.000      0.000
REMARK  Name = 
REMARK  6 active torsions:
REMARK  status: ('A' for Active; 'I' for Inactive)
REMARK    1  A    between atoms: C_1  and  O_2
REMARK    2  A    between atoms: O_2  and  C_3
REMARK    3  A    between atoms: C_8  and  C_9
REMARK    4  A    between atoms: C_12  and  N_13
REMARK    5  A    between atoms: C_14  and  C_16
REMARK    6  A    between atoms: C_16  and  C_17
REMARK                            x       y       z     vdW  Elec       q    Type
REMARK                         _______ _______ _______ _____ _____    ______ ____
ROOT
ATOM      1  C   UNL     1       2.466   7.151  18.460  0.00  0.00    +0.000 A 
ATOM      2  C   UNL     1       2.257   8.211  17.565  0.00  0.00    +0.000 A 
ATOM      3  C   UNL     1       1.691   9.422  17.970  0.00  0.00    +0.000 A 
ATOM      4  C   UNL     1       1.257   9.603  19.280  0.00  0.00    +0.000 A 
ATOM      5  C   UNL     1       1.472   8.576  20.200  0.00  0.00    +0.000 A 
ATOM      6  C   UNL     1       2.063   7.365  19.792  0.00  0.00    +0.000 A 
ENDROOT
BRANCH   1  12
ATOM      7  C   UNL     1       2.695   3.435  17.644  0.00  0.00    +0.000 A 
ATOM      8  C   UNL     1       3.935   3.336  17.026  0.00  0.00    +0.000 A 
ATOM      9  C   UNL     1       4.745   4.464  16.925  0.00  0.00    +0.000 A 
ATOM     10  C   UNL     1       4.318   5.700  17.434  0.00  0.00    +0.000 A 
ATOM     11 CL   UNL     1       5.494   6.973  17.366  0.00  0.00    +0.000 Cl
ATOM     12  C   UNL     1       3.033   5.854  18.001  0.00  0.00    +0.000 A 
ATOM     13  C   UNL     1       2.242   4.684  18.091  0.00  0.00    +0.000 A 
BRANCH   7  15
ATOM     14  C   UNL     1       0.790   2.618  18.784  0.00  0.00    +0.000 C 
ATOM     15  O   UNL     1       1.831   2.390  17.837  0.00  0.00    +0.000 OA
ENDBRANCH   7  15
ENDBRANCH   1  12
BRANCH   4  16
ATOM     16  N   UNL     1       0.614  10.782  19.710  0.00  0.00    +0.000 N 
ATOM     17  C   UNL     1      -0.699  11.135  19.416  0.00  0.00    +0.000 C 
ATOM     18  O   UNL     1      -1.524  10.438  18.834  0.00  0.00    +0.000 OA
ATOM     19  H   UNL     1       1.126  11.373  20.353  0.00  0.00    +0.000 HD
BRANCH  17  20
ATOM     20  C   UNL     1      -1.079  12.527  19.901  0.00  0.00    +0.000 C 
BRANCH  20  21
ATOM     21  C   UNL     1      -2.022  12.472  21.077  0.00  0.00    +0.000 A 
ATOM     22  C   UNL     1      -3.335  12.954  20.956  0.00  0.00    +0.000 A 
ATOM     23  C   UNL     1      -4.192  12.958  22.055  0.00  0.00    +0.000 A 
ATOM     24  C   UNL     1      -3.751  12.471  23.283  0.00  0.00    +0.000 A 
ATOM     25  C   UNL     1      -2.459  11.960  23.407  0.00  0.00    +0.000 A 
ATOM     26  C   UNL     1      -1.601  11.956  22.308  0.00  0.00    +0.000 A 
ENDBRANCH  20  21
ENDBRANCH  17  20
ENDBRANCH   4  16
TORSDOF 5
ENDMDL
MODEL 2
REMARK VINA RESULT:      -7.8      2.856      9.469
REMARK  Name = 
REMARK  6 active torsions:
REMARK  status: ('A' for Active; 'I' for Inactive)
REMARK    1  A    between atoms: C_1  and  O_2
REMARK    2  A    between atoms: O_2  and  C_3
REMARK    3  A    between atoms: C_8  and  C_9
REMARK    4  A    between atoms: C_12  and  N_13
REMARK    5  A    between atoms: C_14  and  C_16
REMARK    6  A    between atoms: C_16  and  C_17
REMARK                            x       y       z     vdW  Elec       q    Type
REMARK                         _______ _______ _______ _____ _____    ______ ____
ROOT
ATOM      1  C   UNL     1       0.952   9.579  19.519  0.00  0.00    +0.000 A 
ATOM      2  C   UNL     1       1.502   9.342  18.251  0.00  0.00    +0.000 A 
ATOM      3  C   UNL     1       2.225   8.182  17.962  0.00  0.00    +0.000 A 
ATOM      4  C   UNL     1       2.475   7.233  18.948  0.00  0.00    +0.000 A 
ATOM      5  C   UNL     1       1.921   7.428  20.214  0.00  0.00    +0.000 A 
ATOM      6  C   UNL     1       1.175   8.589  20.496  0.00  0.00    +0.000 A 
ENDROOT
BRANCH   1  12
ATOM      7  C   UNL     1       0.180  12.996  21.021  0.00  0.00    +0.000 A 
ATOM      8  C   UNL     1      -0.995  13.353  20.372  0.00  0.00    +0.000 A 
ATOM      9  C   UNL     1      -1.591  12.459  19.487  0.00  0.00    +0.000 A 
ATOM     10  C   UNL     1      -1.013  11.206  19.236  0.00  0.00    +0.000 A 
ATOM     11 CL   UNL     1      -1.947  10.149  18.227  0.00  0.00    +0.000 Cl
ATOM     12  C   UNL     1       0.221  10.840  19.820  0.00  0.00    +0.000 A 
ATOM     13  C   UNL     1       0.792  11.771  20.718  0.00  0.00    +0.000 A 
BRANCH   7  15
ATOM     14  C   UNL     1       1.890  14.580  21.422  0.00  0.00    +0.000 C 
ATOM     15  O   UNL     1       0.834  13.772  21.939  0.00  0.00    +0.000 OA
ENDBRANCH   7  15
ENDBRANCH   1  12
BRANCH   4  16
ATOM     16  N   UNL     1       3.261   6.086  18.716  0.00  0.00    +0.000 N 
ATOM     17  C   UNL     1       2.796   4.886  18.188  0.00  0.00    +0.000 C 
ATOM     18  O   UNL     1       1.669   4.674  17.749  0.00  0.00    +0.000 OA
ATOM     19  H   UNL     1       4.257   6.176  18.868  0.00  0.00    +0.000 HD
BRANCH  17  20
ATOM     20  C   UNL     1       3.842   3.779  18.175  0.00  0.00    +0.000 C 
BRANCH  20  21
ATOM     21  C   UNL     1       5.004   4.117  17.276  0.00  0.00    +0.000 A 
ATOM     22  C   UNL     1       6.270   4.383  17.823  0.00  0.00    +0.000 A 
ATOM     23  C   UNL     1       7.333   4.753  17.000  0.00  0.00    +0.000 A 
ATOM     24  C   UNL     1       7.146   4.851  15.624  0.00  0.00    +0.000 A 
ATOM     25  C   UNL     1       5.902   4.558  15.066  0.00  0.00    +0.000 A 
ATOM     26  C   UNL     1       4.837   4.188  15.888  0.00  0.00    +0.000 A 
ENDBRANCH  20  21
ENDBRANCH  17  20
ENDBRANCH   4  16
TORSDOF 5
ENDMDL
MODEL 3
REMARK VINA RESULT:      -7.8      2.612      9.182
REMARK  Name = 
REMARK  6 active torsions:
REMARK  status: ('A' for Active; 'I' for Inactive)
REMARK    1  A    between atoms: C_1  and  O_2
REMARK    2  A    between atoms: O_2  and  C_3
REMARK    3  A    between atoms: C_8  and  C_9
REMARK    4  A    between atoms: C_12  and  N_13
REMARK    5  A    between atoms: C_14  and  C_16
REMARK    6  A    between atoms: C_16  and  C_17
REMARK                            x       y       z     vdW  Elec       q    Type
REMARK                         _______ _______ _______ _____ _____    ______ ____
ROOT
ATOM      1  C   UNL     1       0.751   9.620  19.173  0.00  0.00    +0.000 A 
ATOM      2  C   UNL     1       1.041   8.804  20.276  0.00  0.00    +0.000 A 
ATOM      3  C   UNL     1       1.933   7.733  20.191  0.00  0.00    +0.000 A 
ATOM      4  C   UNL     1       2.532   7.398  18.980  0.00  0.00    +0.000 A 
ATOM      5  C   UNL     1       2.282   8.204  17.870  0.00  0.00    +0.000 A 
ATOM      6  C   UNL     1       1.399   9.297  17.965  0.00  0.00    +0.000 A 
ENDROOT
BRANCH   1  12
ATOM      7  C   UNL     1      -2.519  11.546  18.820  0.00  0.00    +0.000 A 
ATOM      8  C   UNL     1      -2.259  12.715  19.523  0.00  0.00    +0.000 A 
ATOM      9  C   UNL     1      -0.994  12.925  20.065  0.00  0.00    +0.000 A 
ATOM     10  C   UNL     1       0.018  11.965  19.916  0.00  0.00    +0.000 A 
ATOM     11 CL   UNL     1       1.576  12.434  20.516  0.00  0.00    +0.000 Cl
ATOM     12  C   UNL     1      -0.233  10.732  19.273  0.00  0.00    +0.000 A 
ATOM     13  C   UNL     1      -1.528  10.558  18.731  0.00  0.00    +0.000 A 
BRANCH   7  15
ATOM     14  C   UNL     1      -3.697  11.285  16.785  0.00  0.00    +0.000 C 
ATOM     15  O   UNL     1      -3.708  11.247  18.211  0.00  0.00    +0.000 OA
ENDBRANCH   7  15
ENDBRANCH   1  12
BRANCH   4  16
ATOM     16  N   UNL     1       3.380   6.281  18.836  0.00  0.00    +0.000 N 
ATOM     17  C   UNL     1       2.957   4.965  18.680  0.00  0.00    +0.000 C 
ATOM     18  O   UNL     1       1.797   4.588  18.539  0.00  0.00    +0.000 OA
ATOM     19  H   UNL     1       4.371   6.467  18.756  0.00  0.00    +0.000 HD
BRANCH  17  20
ATOM     20  C   UNL     1       4.095   3.953  18.684  0.00  0.00    +0.000 C 
BRANCH  20  21
ATOM     21  C   UNL     1       5.088   4.224  17.580  0.00  0.00    +0.000 A 
ATOM     22  C   UNL     1       4.695   4.133  16.236  0.00  0.00    +0.000 A 
ATOM     23  C   UNL     1       5.622   4.325  15.213  0.00  0.00    +0.000 A 
ATOM     24  C   UNL     1       6.948   4.620  15.522  0.00  0.00    +0.000 A 
ATOM     25  C   UNL     1       7.342   4.745  16.854  0.00  0.00    +0.000 A 
ATOM     26  C   UNL     1       6.415   4.552  17.878  0.00  0.00    +0.000 A 
ENDBRANCH  20  21
ENDBRANCH  17  20
ENDBRANCH   4  16
TORSDOF 5
ENDMDL
MODEL 4
REMARK VINA RESULT:      -7.8      2.832      9.465
REMARK  Name = 
REMARK  6 active torsions:
REMARK  status: ('A' for Active; 'I' for Inactive)
REMARK    1  A    between atoms: C_1  and  O_2
REMARK    2  A    between atoms: O_2  and  C_3
REMARK    3  A    between atoms: C_8  and  C_9
REMARK    4  A    between atoms: C_12  and  N_13
REMARK    5  A    between atoms: C_14  and  C_16
REMARK    6  A    between atoms: C_16  and  C_17
REMARK                            x       y       z     vdW  Elec       q    Type
REMARK                         _______ _______ _______ _____ _____    ______ ____
ROOT
ATOM      1  C   UNL     1       0.924   9.595  19.551  0.00  0.00    +0.000 A 
ATOM      2  C   UNL     1       1.448   9.380  18.269  0.00  0.00    +0.000 A 
ATOM      3  C   UNL     1       2.170   8.229  17.947  0.00  0.00    +0.000 A 
ATOM      4  C   UNL     1       2.446   7.266  18.913  0.00  0.00    +0.000 A 
ATOM      5  C   UNL     1       1.919   7.440  20.193  0.00  0.00    +0.000 A 
ATOM      6  C   UNL     1       1.173   8.591  20.508  0.00  0.00    +0.000 A 
ENDROOT
BRANCH   1  12
ATOM      7  C   UNL     1       0.146  12.965  21.154  0.00  0.00    +0.000 A 
ATOM      8  C   UNL     1      -1.025  13.343  20.509  0.00  0.00    +0.000 A 
ATOM      9  C   UNL     1      -1.616  12.478  19.592  0.00  0.00    +0.000 A 
ATOM     10  C   UNL     1      -1.038  11.233  19.307  0.00  0.00    +0.000 A 
ATOM     11 CL   UNL     1      -1.967  10.209  18.260  0.00  0.00    +0.000 Cl
ATOM     12  C   UNL     1       0.192  10.847  19.887  0.00  0.00    +0.000 A 
ATOM     13  C   UNL     1       0.759  11.750  20.817  0.00  0.00    +0.000 A 
BRANCH   7  15
ATOM     14  C   UNL     1       0.739  15.125  21.914  0.00  0.00    +0.000 C 
ATOM     15  O   UNL     1       0.795  13.711  22.100  0.00  0.00    +0.000 OA
ENDBRANCH   7  15
ENDBRANCH   1  12
BRANCH   4  16
ATOM     16  N   UNL     1       3.234   6.128  18.647  0.00  0.00    +0.000 N 
ATOM     17  C   UNL     1       2.763   4.931  18.116  0.00  0.00    +0.000 C 
ATOM     18  O   UNL     1       1.627   4.718  17.704  0.00  0.00    +0.000 OA
ATOM     19  H   UNL     1       4.233   6.223  18.775  0.00  0.00    +0.000 HD
BRANCH  17  20
ATOM     20  C   UNL     1       3.816   3.832  18.064  0.00  0.00    +0.000 C 
BRANCH  20  21
ATOM     21  C   UNL     1       4.979   4.212  17.182  0.00  0.00    +0.000 A 
ATOM     22  C   UNL     1       4.800   4.359  15.797  0.00  0.00    +0.000 A 
ATOM     23  C   UNL     1       5.884   4.654  14.971  0.00  0.00    +0.000 A 
ATOM     24  C   UNL     1       7.154   4.814  15.520  0.00  0.00    +0.000 A 
ATOM     25  C   UNL     1       7.338   4.702  16.898  0.00  0.00    +0.000 A 
ATOM     26  C   UNL     1       6.254   4.407  17.726  0.00  0.00    +0.000 A 
ENDBRANCH  20  21
ENDBRANCH  17  20
ENDBRANCH   4  16
TORSDOF 5
ENDMDL
MODEL 5
REMARK VINA RESULT:      -7.8      2.600      9.160
REMARK  Name = 
REMARK  6 active torsions:
REMARK  status: ('A' for Active; 'I' for Inactive)
REMARK    1  A    between atoms: C_1  and  O_2
REMARK    2  A    between atoms: O_2  and  C_3
REMARK    3  A    between atoms: C_8  and  C_9
REMARK    4  A    between atoms: C_12  and  N_13
REMARK    5  A    between atoms: C_14  and  C_16
REMARK    6  A    between atoms: C_16  and  C_17
REMARK                            x       y       z     vdW  Elec       q    Type
REMARK                         _______ _______ _______ _____ _____    ______ ____
ROOT
ATOM      1  C   UNL     1       0.815   9.628  19.229  0.00  0.00    +0.000 A 
ATOM      2  C   UNL     1       1.070   8.786  20.321  0.00  0.00    +0.000 A 
ATOM      3  C   UNL     1       1.929   7.688  20.226  0.00  0.00    +0.000 A 
ATOM      4  C   UNL     1       2.529   7.355  19.016  0.00  0.00    +0.000 A 
ATOM      5  C   UNL     1       2.314   8.187  17.916  0.00  0.00    +0.000 A 
ATOM      6  C   UNL     1       1.464   9.304  18.022  0.00  0.00    +0.000 A 
ENDROOT
BRANCH   1  12
ATOM      7  C   UNL     1      -2.386  11.664  18.869  0.00  0.00    +0.000 A 
ATOM      8  C   UNL     1      -2.101  12.809  19.601  0.00  0.00    +0.000 A 
ATOM      9  C   UNL     1      -0.838  12.967  20.167  0.00  0.00    +0.000 A 
ATOM     10  C   UNL     1       0.144  11.979  20.012  0.00  0.00    +0.000 A 
ATOM     11 CL   UNL     1       1.707  12.384  20.646  0.00  0.00    +0.000 Cl
ATOM     12  C   UNL     1      -0.135  10.768  19.339  0.00  0.00    +0.000 A 
ATOM     13  C   UNL     1      -1.426  10.647  18.773  0.00  0.00    +0.000 A 
BRANCH   7  15
ATOM     14  C   UNL     1      -3.651  10.176  17.534  0.00  0.00    +0.000 C 
ATOM     15  O   UNL     1      -3.574  11.416  18.235  0.00  0.00    +0.000 OA
ENDBRANCH   7  15
ENDBRANCH   1  12
BRANCH   4  16
ATOM     16  N   UNL     1       3.343   6.214  18.861  0.00  0.00    +0.000 N 
ATOM     17  C   UNL     1       2.881   4.920  18.646  0.00  0.00    +0.000 C 
ATOM     18  O   UNL     1       1.715   4.588  18.455  0.00  0.00    +0.000 OA
ATOM     19  H   UNL     1       4.342   6.368  18.819  0.00  0.00    +0.000 HD
BRANCH  17  20
ATOM     20  C   UNL     1       3.984   3.870  18.652  0.00  0.00    +0.000 C 
BRANCH  20  21
ATOM     21  C   UNL     1       5.034   4.155  17.607  0.00  0.00    +0.000 A 
ATOM     22  C   UNL     1       6.356   4.435  17.987  0.00  0.00    +0.000 A 
ATOM     23  C   UNL     1       7.316   4.756  17.029  0.00  0.00    +0.000 A 
ATOM     24  C   UNL     1       6.968   4.790  15.681  0.00  0.00    +0.000 A 
ATOM     25  C   UNL     1       5.666   4.482  15.288  0.00  0.00    +0.000 A 
ATOM     26  C   UNL     1       4.705   4.161  16.246  0.00  0.00    +0.000 A 
ENDBRANCH  20  21
ENDBRANCH  17  20
ENDBRANCH   4  16
TORSDOF 5
ENDMDL
MODEL 6
REMARK VINA RESULT:      -7.8      2.674      9.472
REMARK  Name = 
REMARK  6 active torsions:
REMARK  status: ('A' for Active; 'I' for Inactive)
REMARK    1  A    between atoms: C_1  and  O_2
REMARK    2  A    between atoms: O_2  and  C_3
REMARK    3  A    between atoms: C_8  and  C_9
REMARK    4  A    between atoms: C_12  and  N_13
REMARK    5  A    between atoms: C_14  and  C_16
REMARK    6  A    between atoms: C_16  and  C_17
REMARK                            x       y       z     vdW  Elec       q    Type
REMARK                         _______ _______ _______ _____ _____    ______ ____
ROOT
ATOM      1  C   UNL     1       1.115   9.547  19.289  0.00  0.00    +0.000 A 
ATOM      2  C   UNL     1       1.257   8.535  20.249  0.00  0.00    +0.000 A 
ATOM      3  C   UNL     1       2.023   7.392  20.012  0.00  0.00    +0.000 A 
ATOM      4  C   UNL     1       2.637   7.186  18.781  0.00  0.00    +0.000 A 
ATOM      5  C   UNL     1       2.534   8.186  17.812  0.00  0.00    +0.000 A 
ATOM      6  C   UNL     1       1.778   9.347  18.062  0.00  0.00    +0.000 A 
ENDROOT
BRANCH   1  12
ATOM      7  C   UNL     1      -0.154  12.763  20.894  0.00  0.00    +0.000 A 
ATOM      8  C   UNL     1      -1.197  13.130  20.054  0.00  0.00    +0.000 A 
ATOM      9  C   UNL     1      -1.548  12.302  18.991  0.00  0.00    +0.000 A 
ATOM     10  C   UNL     1      -0.854  11.106  18.755  0.00  0.00    +0.000 A 
ATOM     11 CL   UNL     1      -1.501  10.113  17.489  0.00  0.00    +0.000 Cl
ATOM     12  C   UNL     1       0.261  10.739  19.543  0.00  0.00    +0.000 A 
ATOM     13  C   UNL     1       0.583  11.602  20.616  0.00  0.00    +0.000 A 
BRANCH   7  15
ATOM     14  C   UNL     1      -0.772  13.823  22.916  0.00  0.00    +0.000 C 
ATOM     15  O   UNL     1       0.255  13.474  21.990  0.00  0.00    +0.000 OA
ENDBRANCH   7  15
ENDBRANCH   1  12
BRANCH   4  16
ATOM     16  N   UNL     1       3.357   6.013  18.477  0.00  0.00    +0.000 N 
ATOM     17  C   UNL     1       2.803   4.831  17.997  0.00  0.00    +0.000 C 
ATOM     18  O   UNL     1       1.634   4.660  17.666  0.00  0.00    +0.000 OA
ATOM     19  H   UNL     1       4.366   6.068  18.535  0.00  0.00    +0.000 HD
BRANCH  17  20
ATOM     20  C   UNL     1       3.804   3.688  17.888  0.00  0.00    +0.000 C 
BRANCH  20  21
ATOM     21  C   UNL     1       5.004   4.072  17.060  0.00  0.00    +0.000 A 
ATOM     22  C   UNL     1       6.247   4.296  17.674  0.00  0.00    +0.000 A 
ATOM     23  C   UNL     1       7.345   4.707  16.920  0.00  0.00    +0.000 A 
ATOM     24  C   UNL     1       7.217   4.889  15.545  0.00  0.00    +0.000 A 
ATOM     25  C   UNL     1       5.995   4.639  14.920  0.00  0.00    +0.000 A 
ATOM     26  C   UNL     1       4.896   4.228  15.673  0.00  0.00    +0.000 A 
ENDBRANCH  20  21
ENDBRANCH  17  20
ENDBRANCH   4  16
TORSDOF 5
ENDMDL
MODEL 7
REMARK VINA RESULT:      -7.8      2.801      9.442
REMARK  Name = 
REMARK  6 active torsions:
REMARK  status: ('A' for Active; 'I' for Inactive)
REMARK    1  A    between atoms: C_1  and  O_2
REMARK    2  A    between atoms: O_2  and  C_3
REMARK    3  A    between atoms: C_8  and  C_9
REMARK    4  A    between atoms: C_12  and  N_13
REMARK    5  A    between atoms: C_14  and  C_16
REMARK    6  A    between atoms: C_16  and  C_17
REMARK                            x       y       z     vdW  Elec       q    Type
REMARK                         _______ _______ _______ _____ _____    ______ ____
ROOT
ATOM      1  C   UNL     1       1.143   9.543  19.387  0.00  0.00    +0.000 A 
ATOM      2  C   UNL     1       1.289   8.487  20.298  0.00  0.00    +0.000 A 
ATOM      3  C   UNL     1       2.025   7.340  19.992  0.00  0.00    +0.000 A 
ATOM      4  C   UNL     1       2.602   7.177  18.736  0.00  0.00    +0.000 A 
ATOM      5  C   UNL     1       2.495   8.220  17.815  0.00  0.00    +0.000 A 
ATOM      6  C   UNL     1       1.770   9.384  18.135  0.00  0.00    +0.000 A 
ENDROOT
BRANCH   1  12
ATOM      7  C   UNL     1       0.126  12.865  20.954  0.00  0.00    +0.000 A 
ATOM      8  C   UNL     1      -1.079  13.141  20.322  0.00  0.00    +0.000 A 
ATOM      9  C   UNL     1      -1.614  12.219  19.427  0.00  0.00    +0.000 A 
ATOM     10  C   UNL     1      -0.944  11.018  19.150  0.00  0.00    +0.000 A 
ATOM     11 CL   UNL     1      -1.805   9.909  18.132  0.00  0.00    +0.000 Cl
ATOM     12  C   UNL     1       0.320  10.738  19.716  0.00  0.00    +0.000 A 
ATOM     13  C   UNL     1       0.828  11.696  20.624  0.00  0.00    +0.000 A 
BRANCH   7  15
ATOM     14  C   UNL     1       1.862  14.404  21.415  0.00  0.00    +0.000 C 
ATOM     15  O   UNL     1       0.728  13.674  21.879  0.00  0.00    +0.000 OA
ENDBRANCH   7  15
ENDBRANCH   1  12
BRANCH   4  16
ATOM     16  N   UNL     1       3.290   6.004  18.363  0.00  0.00    +0.000 N 
ATOM     17  C   UNL     1       2.694   4.837  17.897  0.00  0.00    +0.000 C 
ATOM     18  O   UNL     1       1.504   4.682  17.641  0.00  0.00    +0.000 OA
ATOM     19  H   UNL     1       4.301   6.050  18.355  0.00  0.00    +0.000 HD
BRANCH  17  20
ATOM     20  C   UNL     1       3.675   3.689  17.700  0.00  0.00    +0.000 C 
BRANCH  20  21
ATOM     21  C   UNL     1       4.917   4.132  16.967  0.00  0.00    +0.000 A 
ATOM     22  C   UNL     1       4.877   4.370  15.584  0.00  0.00    +0.000 A 
ATOM     23  C   UNL     1       6.035   4.724  14.894  0.00  0.00    +0.000 A 
ATOM     24  C   UNL     1       7.241   4.855  15.578  0.00  0.00    +0.000 A 
ATOM     25  C   UNL     1       7.286   4.653  16.957  0.00  0.00    +0.000 A 
ATOM     26  C   UNL     1       6.128   4.298  17.649  0.00  0.00    +0.000 A 
ENDBRANCH  20  21
ENDBRANCH  17  20
ENDBRANCH   4  16
TORSDOF 5
ENDMDL
MODEL 8
REMARK VINA RESULT:      -7.7      1.784      2.381
REMARK  Name = 
REMARK  6 active torsions:
REMARK  status: ('A' for Active; 'I' for Inactive)
REMARK    1  A    between atoms: C_1  and  O_2
REMARK    2  A    between atoms: O_2  and  C_3
REMARK    3  A    between atoms: C_8  and  C_9
REMARK    4  A    between atoms: C_12  and  N_13
REMARK    5  A    between atoms: C_14  and  C_16
REMARK    6  A    between atoms: C_16  and  C_17
REMARK                            x       y       z     vdW  Elec       q    Type
REMARK                         _______ _______ _______ _____ _____    ______ ____
ROOT
ATOM      1  C   UNL     1       2.655   7.144  18.755  0.00  0.00    +0.000 A 
ATOM      2  C   UNL     1       2.525   8.093  17.731  0.00  0.00    +0.000 A 
ATOM      3  C   UNL     1       1.837   9.294  17.915  0.00  0.00    +0.000 A 
ATOM      4  C   UNL     1       1.201   9.574  19.121  0.00  0.00    +0.000 A 
ATOM      5  C   UNL     1       1.330   8.660  20.168  0.00  0.00    +0.000 A 
ATOM      6  C   UNL     1       2.043   7.460  19.984  0.00  0.00    +0.000 A 
ENDROOT
BRANCH   1  12
ATOM      7  C   UNL     1       5.457   4.563  18.657  0.00  0.00    +0.000 A 
ATOM      8  C   UNL     1       4.789   3.406  18.277  0.00  0.00    +0.000 A 
ATOM      9  C   UNL     1       3.430   3.462  17.981  0.00  0.00    +0.000 A 
ATOM     10  C   UNL     1       2.727   4.671  18.071  0.00  0.00    +0.000 A 
ATOM     11 CL   UNL     1       1.080   4.611  17.529  0.00  0.00    +0.000 Cl
ATOM     12  C   UNL     1       3.356   5.852  18.527  0.00  0.00    +0.000 A 
ATOM     13  C   UNL     1       4.738   5.757  18.813  0.00  0.00    +0.000 A 
BRANCH   7  15
ATOM     14  C   UNL     1       7.660   4.650  17.799  0.00  0.00    +0.000 C 
ATOM     15  O   UNL     1       6.795   4.639  18.934  0.00  0.00    +0.000 OA
ENDBRANCH   7  15
ENDBRANCH   1  12
BRANCH   4  16
ATOM     16  N   UNL     1       0.435  10.740  19.323  0.00  0.00    +0.000 N 
ATOM     17  C   UNL     1      -0.895  10.904  18.950  0.00  0.00    +0.000 C 
ATOM     18  O   UNL     1      -1.631  10.037  18.489  0.00  0.00    +0.000 OA
ATOM     19  H   UNL     1       0.867  11.483  19.857  0.00  0.00    +0.000 HD
BRANCH  17  20
ATOM     20  C   UNL     1      -1.421  12.316  19.172  0.00  0.00    +0.000 C 
BRANCH  20  21
ATOM     21  C   UNL     1      -2.301  12.399  20.394  0.00  0.00    +0.000 A 
ATOM     22  C   UNL     1      -3.669  12.686  20.265  0.00  0.00    +0.000 A 
ATOM     23  C   UNL     1      -4.473  12.822  21.395  0.00  0.00    +0.000 A 
ATOM     24  C   UNL     1      -3.923  12.662  22.664  0.00  0.00    +0.000 A 
ATOM     25  C   UNL     1      -2.572  12.344  22.804  0.00  0.00    +0.000 A 
ATOM     26  C   UNL     1      -1.766  12.209  21.674  0.00  0.00    +0.000 A 
ENDBRANCH  20  21
ENDBRANCH  17  20
ENDBRANCH   4  16
TORSDOF 5
ENDMDL
MODEL 9
REMARK VINA RESULT:      -7.7      1.777      2.643
REMARK  Name = 
REMARK  6 active torsions:
REMARK  status: ('A' for Active; 'I' for Inactive)
REMARK    1  A    between atoms: C_1  and  O_2
REMARK    2  A    between atoms: O_2  and  C_3
REMARK    3  A    between atoms: C_8  and  C_9
REMARK    4  A    between atoms: C_12  and  N_13
REMARK    5  A    between atoms: C_14  and  C_16
REMARK    6  A    between atoms: C_16  and  C_17
REMARK                            x       y       z     vdW  Elec       q    Type
REMARK                         _______ _______ _______ _____ _____    ______ ____
ROOT
ATOM      1  C   UNL     1       2.734   7.239  18.379  0.00  0.00    +0.000 A 
ATOM      2  C   UNL     1       2.216   7.351  19.677  0.00  0.00    +0.000 A 
ATOM      3  C   UNL     1       1.478   8.464  20.087  0.00  0.00    +0.000 A 
ATOM      4  C   UNL     1       1.274   9.540  19.229  0.00  0.00    +0.000 A 
ATOM      5  C   UNL     1       1.758   9.449  17.923  0.00  0.00    +0.000 A 
ATOM      6  C   UNL     1       2.482   8.316  17.507  0.00  0.00    +0.000 A 
ENDROOT
BRANCH   1  12
ATOM      7  C   UNL     1       5.795   5.135  17.524  0.00  0.00    +0.000 A 
ATOM      8  C   UNL     1       5.253   3.868  17.351  0.00  0.00    +0.000 A 
ATOM      9  C   UNL     1       3.874   3.691  17.442  0.00  0.00    +0.000 A 
ATOM     10  C   UNL     1       3.030   4.777  17.716  0.00  0.00    +0.000 A 
ATOM     11 CL   UNL     1       1.332   4.427  17.652  0.00  0.00    +0.000 Cl
ATOM     12  C   UNL     1       3.553   6.064  17.973  0.00  0.00    +0.000 A 
ATOM     13  C   UNL     1       4.956   6.205  17.865  0.00  0.00    +0.000 A 
BRANCH   7  15
ATOM     14  C   UNL     1       7.616   6.395  18.355  0.00  0.00    +0.000 C 
ATOM     15  O   UNL     1       7.126   5.437  17.419  0.00  0.00    +0.000 OA
ENDBRANCH   7  15
ENDBRANCH   1  12
BRANCH   4  16
ATOM     16  N   UNL     1       0.599  10.712  19.628  0.00  0.00    +0.000 N 
ATOM     17  C   UNL     1      -0.735  11.001  19.361  0.00  0.00    +0.000 C 
ATOM     18  O   UNL     1      -1.550  10.248  18.838  0.00  0.00    +0.000 OA
ATOM     19  H   UNL     1       1.106  11.350  20.227  0.00  0.00    +0.000 HD
BRANCH  17  20
ATOM     20  C   UNL     1      -1.155  12.398  19.798  0.00  0.00    +0.000 C 
BRANCH  20  21
ATOM     21  C   UNL     1      -2.028  12.362  21.028  0.00  0.00    +0.000 A 
ATOM     22  C   UNL     1      -3.353  12.820  20.969  0.00  0.00    +0.000 A 
ATOM     23  C   UNL     1      -4.145  12.842  22.117  0.00  0.00    +0.000 A 
ATOM     24  C   UNL     1      -3.626  12.398  23.330  0.00  0.00    +0.000 A 
ATOM     25  C   UNL     1      -2.321  11.911  23.393  0.00  0.00    +0.000 A 
ATOM     26  C   UNL     1      -1.527  11.888  22.246  0.00  0.00    +0.000 A 
ENDBRANCH  20  21
ENDBRANCH  17  20
ENDBRANCH   4  16
TORSDOF 5
ENDMDL
