MODEL 1
REMARK VINA RESULT:      -7.9      0.000      0.000
REMARK  Name = 
REMARK  10 active torsions:
REMARK  status: ('A' for Active; 'I' for Inactive)
REMARK    1  A    between atoms: C_1  and  C_2
REMARK    2  A    between atoms: C_2  and  C_3
REMARK    3  A    between atoms: C_3  and  N_4
REMARK    4  A    between atoms: C_5  and  C_7
REMARK    5  A    between atoms: C_7  and  N_8
REMARK    6  A    between atoms: C_10  and  C_11
REMARK    7  A    between atoms: C_14  and  C_15
REMARK    8  A    between atoms: C_16  and  C_17
REMARK    9  A    between atoms: C_25  and  O_26
REMARK   10  A    between atoms: O_26  and  C_27
REMARK                            x       y       z     vdW  Elec       q    Type
REMARK                         _______ _______ _______ _____ _____    ______ ____
ROOT
ATOM      1  N   UNL     1       2.820   5.969  20.026  0.00  0.00    +0.000 N 
ATOM      2  N   UNL     1       3.763   5.325  19.296  0.00  0.00    +0.000 NA
ATOM      3  C   UNL     1       3.969   6.111  18.232  0.00  0.00    +0.000 A 
ATOM      4  C   UNL     1       3.133   7.264  18.292  0.00  0.00    +0.000 A 
ATOM      5  C   UNL     1       2.911   8.354  17.449  0.00  0.00    +0.000 A 
ATOM      6  N   UNL     1       2.051   9.334  17.792  0.00  0.00    +0.000 NA
ATOM      7  C   UNL     1       1.397   9.272  18.956  0.00  0.00    +0.000 A 
ATOM      8  C   UNL     1       0.528  10.309  19.243  0.00  0.00    +0.000 A 
ATOM      9  C   UNL     1      -0.216  10.351  20.425  0.00  0.00    +0.000 A 
ATOM     10  C   UNL     1      -0.081   9.336  21.363  0.00  0.00    +0.000 A 
ATOM     11  C   UNL     1       0.800   8.279  21.107  0.00  0.00    +0.000 A 
ATOM     12  C   UNL     1       1.532   8.222  19.895  0.00  0.00    +0.000 A 
ATOM     13  C   UNL     1       2.430   7.180  19.498  0.00  0.00    +0.000 A 
ENDROOT
BRANCH   3  14
ATOM     14  C   UNL     1       4.954   5.756  17.205  0.00  0.00    +0.000 A 
ATOM     15  C   UNL     1       6.274   6.208  17.293  0.00  0.00    +0.000 A 
ATOM     16  C   UNL     1       7.197   5.902  16.287  0.00  0.00    +0.000 A 
ATOM     17  C   UNL     1       6.822   5.143  15.166  0.00  0.00    +0.000 A 
ATOM     18  C   UNL     1       7.834   4.893  14.081  0.00  0.00    +0.000 C 
ATOM     19  C   UNL     1       5.500   4.671  15.071  0.00  0.00    +0.000 A 
ATOM     20  C   UNL     1       4.996   3.849  13.916  0.00  0.00    +0.000 C 
ATOM     21  C   UNL     1       4.584   4.987  16.093  0.00  0.00    +0.000 A 
ENDBRANCH   3  14
BRANCH  10  22
ATOM     22  O   UNL     1      -0.749   9.262  22.555  0.00  0.00    +0.000 OA
ATOM     23  C   UNL     1      -1.089  10.497  23.175  0.00  0.00    +0.000 C 
ENDBRANCH  10  22
BRANCH   1  24
ATOM     24  C   UNL     1       2.300   5.261  21.180  0.00  0.00    +0.000 C 
BRANCH  24  26
ATOM     25  N   UNL     1       1.295   3.787  19.510  0.00  0.00    +0.000 N 
ATOM     26  C   UNL     1       1.731   3.911  20.811  0.00  0.00    +0.000 C 
ATOM     27  O   UNL     1       1.617   3.012  21.642  0.00  0.00    +0.000 OA
ATOM     28  H   UNL     1       1.457   4.562  18.867  0.00  0.00    +0.000 HD
BRANCH  25  29
ATOM     29  C   UNL     1       0.715   2.563  18.995  0.00  0.00    +0.000 C 
BRANCH  29  31
ATOM     30  C   UNL     1       2.889   2.218  17.730  0.00  0.00    +0.000 C 
ATOM     31  C   UNL     1       1.765   1.562  18.516  0.00  0.00    +0.000 C 
ENDBRANCH  29  31
ENDBRANCH  25  29
ENDBRANCH  24  26
ENDBRANCH   1  24
TORSDOF 6
ENDMDL
MODEL 2
REMARK VINA RESULT:      -7.4      0.925      1.340
REMARK  Name = 
REMARK  10 active torsions:
REMARK  status: ('A' for Active; 'I' for Inactive)
REMARK    1  A    between atoms: C_1  and  C_2
REMARK    2  A    between atoms: C_2  and  C_3
REMARK    3  A    between atoms: C_3  and  N_4
REMARK    4  A    between atoms: C_5  and  C_7
REMARK    5  A    between atoms: C_7  and  N_8
REMARK    6  A    between atoms: C_10  and  C_11
REMARK    7  A    between atoms: C_14  and  C_15
REMARK    8  A    between atoms: C_16  and  C_17
REMARK    9  A    between atoms: C_25  and  O_26
REMARK   10  A    between atoms: O_26  and  C_27
REMARK                            x       y       z     vdW  Elec       q    Type
REMARK                         _______ _______ _______ _____ _____    ______ ____
ROOT
ATOM      1  N   UNL     1       2.215   6.532  20.063  0.00  0.00    +0.000 N 
ATOM      2  N   UNL     1       3.138   5.829  19.362  0.00  0.00    +0.000 NA
ATOM      3  C   UNL     1       3.503   6.642  18.363  0.00  0.00    +0.000 A 
ATOM      4  C   UNL     1       2.789   7.874  18.434  0.00  0.00    +0.000 A 
ATOM      5  C   UNL     1       2.743   9.023  17.645  0.00  0.00    +0.000 A 
ATOM      6  N   UNL     1       1.967  10.071  17.986  0.00  0.00    +0.000 NA
ATOM      7  C   UNL     1       1.226  10.021  19.097  0.00  0.00    +0.000 A 
ATOM      8  C   UNL     1       0.451  11.128  19.385  0.00  0.00    +0.000 A 
ATOM      9  C   UNL     1      -0.370  11.189  20.514  0.00  0.00    +0.000 A 
ATOM     10  C   UNL     1      -0.411  10.118  21.398  0.00  0.00    +0.000 A 
ATOM     11  C   UNL     1       0.372   8.987  21.139  0.00  0.00    +0.000 A 
ATOM     12  C   UNL     1       1.181   8.915  19.979  0.00  0.00    +0.000 A 
ATOM     13  C   UNL     1       1.993   7.804  19.583  0.00  0.00    +0.000 A 
ENDROOT
BRANCH   3  14
ATOM     14  C   UNL     1       4.519   6.237  17.386  0.00  0.00    +0.000 A 
ATOM     15  C   UNL     1       4.344   6.495  16.024  0.00  0.00    +0.000 A 
ATOM     16  C   UNL     1       5.296   6.066  15.093  0.00  0.00    +0.000 A 
ATOM     17  C   UNL     1       6.443   5.363  15.500  0.00  0.00    +0.000 A 
ATOM     18  C   UNL     1       7.406   4.869  14.456  0.00  0.00    +0.000 C 
ATOM     19  C   UNL     1       6.637   5.108  16.869  0.00  0.00    +0.000 A 
ATOM     20  C   UNL     1       7.829   4.367  17.412  0.00  0.00    +0.000 C 
ATOM     21  C   UNL     1       5.670   5.548  17.793  0.00  0.00    +0.000 A 
ENDBRANCH   3  14
BRANCH  10  22
ATOM     22  O   UNL     1      -1.169  10.055  22.534  0.00  0.00    +0.000 OA
ATOM     23  C   UNL     1      -1.525  11.295  23.136  0.00  0.00    +0.000 C 
ENDBRANCH  10  22
BRANCH   1  24
ATOM     24  C   UNL     1       1.541   5.825  21.135  0.00  0.00    +0.000 C 
BRANCH  24  26
ATOM     25  N   UNL     1       1.011   3.892  19.737  0.00  0.00    +0.000 N 
ATOM     26  C   UNL     1       1.553   4.329  20.926  0.00  0.00    +0.000 C 
ATOM     27  O   UNL     1       1.969   3.562  21.792  0.00  0.00    +0.000 OA
ATOM     28  H   UNL     1       0.721   4.588  19.051  0.00  0.00    +0.000 HD
BRANCH  25  29
ATOM     29  C   UNL     1       0.936   2.489  19.383  0.00  0.00    +0.000 C 
BRANCH  29  31
ATOM     30  C   UNL     1       2.549   2.892  17.464  0.00  0.00    +0.000 C 
ATOM     31  C   UNL     1       2.174   1.997  18.635  0.00  0.00    +0.000 C 
ENDBRANCH  29  31
ENDBRANCH  25  29
ENDBRANCH  24  26
ENDBRANCH   1  24
TORSDOF 6
ENDMDL
MODEL 3
REMARK VINA RESULT:      -7.4      3.061      5.564
REMARK  Name = 
REMARK  10 active torsions:
REMARK  status: ('A' for Active; 'I' for Inactive)
REMARK    1  A    between atoms: C_1  and  C_2
REMARK    2  A    between atoms: C_2  and  C_3
REMARK    3  A    between atoms: C_3  and  N_4
REMARK    4  A    between atoms: C_5  and  C_7
REMARK    5  A    between atoms: C_7  and  N_8
REMARK    6  A    between atoms: C_10  and  C_11
REMARK    7  A    between atoms: C_14  and  C_15
REMARK    8  A    between atoms: C_16  and  C_17
REMARK    9  A    between atoms: C_25  and  O_26
REMARK   10  A    between atoms: O_26  and  C_27
REMARK                            x       y       z     vdW  Elec       q    Type
REMARK                         _______ _______ _______ _____ _____    ______ ____
ROOT
ATOM      1  N   UNL     1       1.270  10.480  18.698  0.00  0.00    +0.000 N 
ATOM      2  N   UNL     1       1.983   9.629  17.921  0.00  0.00    +0.000 NA
ATOM      3  C   UNL     1       2.098   8.512  18.651  0.00  0.00    +0.000 A 
ATOM      4  C   UNL     1       1.453   8.670  19.912  0.00  0.00    +0.000 A 
ATOM      5  C   UNL     1       1.310   7.866  21.044  0.00  0.00    +0.000 A 
ATOM      6  N   UNL     1       0.602   8.287  22.111  0.00  0.00    +0.000 NA
ATOM      7  C   UNL     1       0.020   9.490  22.095  0.00  0.00    +0.000 A 
ATOM      8  C   UNL     1      -0.688   9.859  23.223  0.00  0.00    +0.000 A 
ATOM      9  C   UNL     1      -1.332  11.095  23.327  0.00  0.00    +0.000 A 
ATOM     10  C   UNL     1      -1.285  11.990  22.266  0.00  0.00    +0.000 A 
ATOM     11  C   UNL     1      -0.585  11.640  21.105  0.00  0.00    +0.000 A 
ATOM     12  C   UNL     1       0.092  10.399  21.013  0.00  0.00    +0.000 A 
ATOM     13  C   UNL     1       0.871   9.943  19.902  0.00  0.00    +0.000 A 
ENDROOT
BRANCH   3  14
ATOM     14  C   UNL     1       2.798   7.334  18.131  0.00  0.00    +0.000 A 
ATOM     15  C   UNL     1       4.024   7.463  17.472  0.00  0.00    +0.000 A 
ATOM     16  C   UNL     1       4.665   6.340  16.939  0.00  0.00    +0.000 A 
ATOM     17  C   UNL     1       4.095   5.060  17.047  0.00  0.00    +0.000 A 
ATOM     18  C   UNL     1       4.792   3.892  16.404  0.00  0.00    +0.000 C 
ATOM     19  C   UNL     1       2.868   4.914  17.720  0.00  0.00    +0.000 A 
ATOM     20  C   UNL     1       2.173   3.590  17.894  0.00  0.00    +0.000 C 
ATOM     21  C   UNL     1       2.236   6.055  18.251  0.00  0.00    +0.000 A 
ENDBRANCH   3  14
BRANCH  10  22
ATOM     22  O   UNL     1      -1.872  13.225  22.243  0.00  0.00    +0.000 OA
ATOM     23  C   UNL     1      -1.625  14.073  23.360  0.00  0.00    +0.000 C 
ENDBRANCH  10  22
BRANCH   1  24
ATOM     24  C   UNL     1       1.115  11.834  18.201  0.00  0.00    +0.000 C 
BRANCH  24  26
ATOM     25  N   UNL     1      -1.091  11.127  17.423  0.00  0.00    +0.000 N 
ATOM     26  C   UNL     1      -0.327  12.169  17.902  0.00  0.00    +0.000 C 
ATOM     27  O   UNL     1      -0.761  13.313  18.029  0.00  0.00    +0.000 OA
ATOM     28  H   UNL     1      -0.674  10.198  17.381  0.00  0.00    +0.000 HD
BRANCH  25  29
ATOM     29  C   UNL     1      -2.490  11.281  17.079  0.00  0.00    +0.000 C 
BRANCH  29  31
ATOM     30  C   UNL     1      -2.905  10.156  14.841  0.00  0.00    +0.000 C 
ATOM     31  C   UNL     1      -3.061  10.065  16.350  0.00  0.00    +0.000 C 
ENDBRANCH  29  31
ENDBRANCH  25  29
ENDBRANCH  24  26
ENDBRANCH   1  24
TORSDOF 6
ENDMDL
MODEL 4
REMARK VINA RESULT:      -7.3      3.485      6.375
REMARK  Name = 
REMARK  10 active torsions:
REMARK  status: ('A' for Active; 'I' for Inactive)
REMARK    1  A    between atoms: C_1  and  C_2
REMARK    2  A    between atoms: C_2  and  C_3
REMARK    3  A    between atoms: C_3  and  N_4
REMARK    4  A    between atoms: C_5  and  C_7
REMARK    5  A    between atoms: C_7  and  N_8
REMARK    6  A    between atoms: C_10  and  C_11
REMARK    7  A    between atoms: C_14  and  C_15
REMARK    8  A    between atoms: C_16  and  C_17
REMARK    9  A    between atoms: C_25  and  O_26
REMARK   10  A    between atoms: O_26  and  C_27
REMARK                            x       y       z     vdW  Elec       q    Type
REMARK                         _______ _______ _______ _____ _____    ______ ____
ROOT
ATOM      1  N   UNL     1      -0.471  10.678  18.631  0.00  0.00    +0.000 N 
ATOM      2  N   UNL     1       0.365   9.767  18.078  0.00  0.00    +0.000 NA
ATOM      3  C   UNL     1       0.994   9.201  19.116  0.00  0.00    +0.000 A 
ATOM      4  C   UNL     1       0.550   9.776  20.343  0.00  0.00    +0.000 A 
ATOM      5  C   UNL     1       0.894   9.601  21.683  0.00  0.00    +0.000 A 
ATOM      6  N   UNL     1       0.265  10.288  22.658  0.00  0.00    +0.000 NA
ATOM      7  C   UNL     1      -0.707  11.152  22.347  0.00  0.00    +0.000 A 
ATOM      8  C   UNL     1      -1.308  11.824  23.394  0.00  0.00    +0.000 A 
ATOM      9  C   UNL     1      -2.329  12.756  23.192  0.00  0.00    +0.000 A 
ATOM     10  C   UNL     1      -2.783  13.017  21.906  0.00  0.00    +0.000 A 
ATOM     11  C   UNL     1      -2.202  12.342  20.825  0.00  0.00    +0.000 A 
ATOM     12  C   UNL     1      -1.147  11.420  21.028  0.00  0.00    +0.000 A 
ATOM     13  C   UNL     1      -0.446  10.699  20.009  0.00  0.00    +0.000 A 
ENDROOT
BRANCH   3  14
ATOM     14  C   UNL     1       1.980   8.134  18.918  0.00  0.00    +0.000 A 
ATOM     15  C   UNL     1       2.892   8.190  17.861  0.00  0.00    +0.000 A 
ATOM     16  C   UNL     1       3.800   7.147  17.651  0.00  0.00    +0.000 A 
ATOM     17  C   UNL     1       3.814   6.019  18.489  0.00  0.00    +0.000 A 
ATOM     18  C   UNL     1       4.768   4.895  18.186  0.00  0.00    +0.000 C 
ATOM     19  C   UNL     1       2.910   5.955  19.564  0.00  0.00    +0.000 A 
ATOM     20  C   UNL     1       2.843   4.796  20.521  0.00  0.00    +0.000 C 
ATOM     21  C   UNL     1       2.003   7.014  19.761  0.00  0.00    +0.000 A 
ENDBRANCH   3  14
BRANCH  10  22
ATOM     22  O   UNL     1      -3.773  13.902  21.577  0.00  0.00    +0.000 OA
ATOM     23  C   UNL     1      -4.932  13.361  20.951  0.00  0.00    +0.000 C 
ENDBRANCH  10  22
BRANCH   1  24
ATOM     24  C   UNL     1      -1.184  11.544  17.712  0.00  0.00    +0.000 C 
BRANCH  24  26
ATOM     25  N   UNL     1      -2.594  11.244  15.739  0.00  0.00    +0.000 N 
ATOM     26  C   UNL     1      -2.325  10.831  17.027  0.00  0.00    +0.000 C 
ATOM     27  O   UNL     1      -2.996   9.982  17.610  0.00  0.00    +0.000 OA
ATOM     28  H   UNL     1      -1.971  11.924  15.307  0.00  0.00    +0.000 HD
BRANCH  25  29
ATOM     29  C   UNL     1      -3.660  10.669  14.944  0.00  0.00    +0.000 C 
BRANCH  29  31
ATOM     30  C   UNL     1      -4.044   9.812  12.585  0.00  0.00    +0.000 C 
ATOM     31  C   UNL     1      -3.146   9.781  13.812  0.00  0.00    +0.000 C 
ENDBRANCH  29  31
ENDBRANCH  25  29
ENDBRANCH  24  26
ENDBRANCH   1  24
TORSDOF 6
ENDMDL
MODEL 5
REMARK VINA RESULT:      -7.2      3.150      5.844
REMARK  Name = 
REMARK  10 active torsions:
REMARK  status: ('A' for Active; 'I' for Inactive)
REMARK    1  A    between atoms: C_1  and  C_2
REMARK    2  A    between atoms: C_2  and  C_3
REMARK    3  A    between atoms: C_3  and  N_4
REMARK    4  A    between atoms: C_5  and  C_7
REMARK    5  A    between atoms: C_7  and  N_8
REMARK    6  A    between atoms: C_10  and  C_11
REMARK    7  A    between atoms: C_14  and  C_15
REMARK    8  A    between atoms: C_16  and  C_17
REMARK    9  A    between atoms: C_25  and  O_26
REMARK   10  A    between atoms: O_26  and  C_27
REMARK                            x       y       z     vdW  Elec       q    Type
REMARK                         _______ _______ _______ _____ _____    ______ ____
ROOT
ATOM      1  N   UNL     1       0.122  10.192  18.576  0.00  0.00    +0.000 N 
ATOM      2  N   UNL     1       0.957   9.289  18.008  0.00  0.00    +0.000 NA
ATOM      3  C   UNL     1       1.496   8.625  19.039  0.00  0.00    +0.000 A 
ATOM      4  C   UNL     1       0.997   9.128  20.275  0.00  0.00    +0.000 A 
ATOM      5  C   UNL     1       1.248   8.845  21.618  0.00  0.00    +0.000 A 
ATOM      6  N   UNL     1       0.584   9.486  22.600  0.00  0.00    +0.000 NA
ATOM      7  C   UNL     1      -0.333  10.410  22.295  0.00  0.00    +0.000 A 
ATOM      8  C   UNL     1      -0.973  11.030  23.351  0.00  0.00    +0.000 A 
ATOM      9  C   UNL     1      -1.943  12.016  23.157  0.00  0.00    +0.000 A 
ATOM     10  C   UNL     1      -2.304  12.388  21.868  0.00  0.00    +0.000 A 
ATOM     11  C   UNL     1      -1.682  11.768  20.778  0.00  0.00    +0.000 A 
ATOM     12  C   UNL     1      -0.677  10.790  20.976  0.00  0.00    +0.000 A 
ATOM     13  C   UNL     1       0.059  10.114  19.950  0.00  0.00    +0.000 A 
ENDROOT
BRANCH   3  14
ATOM     14  C   UNL     1       2.451   7.533  18.822  0.00  0.00    +0.000 A 
ATOM     15  C   UNL     1       2.559   6.485  19.740  0.00  0.00    +0.000 A 
ATOM     16  C   UNL     1       3.504   5.470  19.550  0.00  0.00    +0.000 A 
ATOM     17  C   UNL     1       4.367   5.482  18.442  0.00  0.00    +0.000 A 
ATOM     18  C   UNL     1       5.406   4.402  18.314  0.00  0.00    +0.000 C 
ATOM     19  C   UNL     1       4.260   6.524  17.504  0.00  0.00    +0.000 A 
ATOM     20  C   UNL     1       5.133   6.630  16.282  0.00  0.00    +0.000 C 
ATOM     21  C   UNL     1       3.304   7.537  17.709  0.00  0.00    +0.000 A 
ENDBRANCH   3  14
BRANCH  10  22
ATOM     22  O   UNL     1      -3.238  13.334  21.546  0.00  0.00    +0.000 OA
ATOM     23  C   UNL     1      -4.554  12.867  21.271  0.00  0.00    +0.000 C 
ENDBRANCH  10  22
BRANCH   1  24
ATOM     24  C   UNL     1      -0.498  11.152  17.682  0.00  0.00    +0.000 C 
BRANCH  24  26
ATOM     25  N   UNL     1      -2.438  11.431  16.222  0.00  0.00    +0.000 N 
ATOM     26  C   UNL     1      -1.894  10.737  17.282  0.00  0.00    +0.000 C 
ATOM     27  O   UNL     1      -2.514   9.877  17.905  0.00  0.00    +0.000 OA
ATOM     28  H   UNL     1      -1.851  12.103  15.730  0.00  0.00    +0.000 HD
BRANCH  25  29
ATOM     29  C   UNL     1      -3.770  11.164  15.717  0.00  0.00    +0.000 C 
BRANCH  29  31
ATOM     30  C   UNL     1      -2.891   9.891  13.704  0.00  0.00    +0.000 C 
ATOM     31  C   UNL     1      -3.847   9.884  14.887  0.00  0.00    +0.000 C 
ENDBRANCH  29  31
ENDBRANCH  25  29
ENDBRANCH  24  26
ENDBRANCH   1  24
TORSDOF 6
ENDMDL
MODEL 6
REMARK VINA RESULT:      -7.2      3.338      6.399
REMARK  Name = 
REMARK  10 active torsions:
REMARK  status: ('A' for Active; 'I' for Inactive)
REMARK    1  A    between atoms: C_1  and  C_2
REMARK    2  A    between atoms: C_2  and  C_3
REMARK    3  A    between atoms: C_3  and  N_4
REMARK    4  A    between atoms: C_5  and  C_7
REMARK    5  A    between atoms: C_7  and  N_8
REMARK    6  A    between atoms: C_10  and  C_11
REMARK    7  A    between atoms: C_14  and  C_15
REMARK    8  A    between atoms: C_16  and  C_17
REMARK    9  A    between atoms: C_25  and  O_26
REMARK   10  A    between atoms: O_26  and  C_27
REMARK                            x       y       z     vdW  Elec       q    Type
REMARK                         _______ _______ _______ _____ _____    ______ ____
ROOT
ATOM      1  N   UNL     1      -0.320  10.367  18.475  0.00  0.00    +0.000 N 
ATOM      2  N   UNL     1       0.520   9.437  17.960  0.00  0.00    +0.000 NA
ATOM      3  C   UNL     1       1.147   8.914  19.022  0.00  0.00    +0.000 A 
ATOM      4  C   UNL     1       0.697   9.535  20.224  0.00  0.00    +0.000 A 
ATOM      5  C   UNL     1       1.038   9.414  21.571  0.00  0.00    +0.000 A 
ATOM      6  N   UNL     1       0.404  10.138  22.516  0.00  0.00    +0.000 NA
ATOM      7  C   UNL     1      -0.568  10.987  22.168  0.00  0.00    +0.000 A 
ATOM      8  C   UNL     1      -1.173  11.699  23.187  0.00  0.00    +0.000 A 
ATOM      9  C   UNL     1      -2.195  12.620  22.945  0.00  0.00    +0.000 A 
ATOM     10  C   UNL     1      -2.645  12.830  21.648  0.00  0.00    +0.000 A 
ATOM     11  C   UNL     1      -2.061  12.114  20.597  0.00  0.00    +0.000 A 
ATOM     12  C   UNL     1      -1.004  11.202  20.839  0.00  0.00    +0.000 A 
ATOM     13  C   UNL     1      -0.300  10.443  19.851  0.00  0.00    +0.000 A 
ENDROOT
BRANCH   3  14
ATOM     14  C   UNL     1       2.134   7.841  18.869  0.00  0.00    +0.000 A 
ATOM     15  C   UNL     1       2.254   6.836  19.833  0.00  0.00    +0.000 A 
ATOM     16  C   UNL     1       3.229   5.841  19.703  0.00  0.00    +0.000 A 
ATOM     17  C   UNL     1       4.111   5.828  18.609  0.00  0.00    +0.000 A 
ATOM     18  C   UNL     1       5.181   4.773  18.545  0.00  0.00    +0.000 C 
ATOM     19  C   UNL     1       3.992   6.826  17.625  0.00  0.00    +0.000 A 
ATOM     20  C   UNL     1       4.882   6.904  16.414  0.00  0.00    +0.000 C 
ATOM     21  C   UNL     1       3.006   7.820  17.771  0.00  0.00    +0.000 A 
ENDBRANCH   3  14
BRANCH  10  22
ATOM     22  O   UNL     1      -3.636  13.699  21.282  0.00  0.00    +0.000 OA
ATOM     23  C   UNL     1      -4.844  13.646  22.034  0.00  0.00    +0.000 C 
ENDBRANCH  10  22
BRANCH   1  24
ATOM     24  C   UNL     1      -1.031  11.196  17.521  0.00  0.00    +0.000 C 
BRANCH  24  26
ATOM     25  N   UNL     1      -3.368  11.817  17.165  0.00  0.00    +0.000 N 
ATOM     26  C   UNL     1      -2.478  10.787  17.380  0.00  0.00    +0.000 C 
ATOM     27  O   UNL     1      -2.831   9.616  17.506  0.00  0.00    +0.000 OA
ATOM     28  H   UNL     1      -2.998  12.758  17.031  0.00  0.00    +0.000 HD
BRANCH  25  29
ATOM     29  C   UNL     1      -4.793  11.599  17.015  0.00  0.00    +0.000 C 
BRANCH  29  31
ATOM     30  C   UNL     1      -6.740  10.831  18.452  0.00  0.00    +0.000 C 
ATOM     31  C   UNL     1      -5.564  11.786  18.320  0.00  0.00    +0.000 C 
ENDBRANCH  29  31
ENDBRANCH  25  29
ENDBRANCH  24  26
ENDBRANCH   1  24
TORSDOF 6
ENDMDL
MODEL 7
REMARK VINA RESULT:      -7.2      2.983      5.978
REMARK  Name = 
REMARK  10 active torsions:
REMARK  status: ('A' for Active; 'I' for Inactive)
REMARK    1  A    between atoms: C_1  and  C_2
REMARK    2  A    between atoms: C_2  and  C_3
REMARK    3  A    between atoms: C_3  and  N_4
REMARK    4  A    between atoms: C_5  and  C_7
REMARK    5  A    between atoms: C_7  and  N_8
REMARK    6  A    between atoms: C_10  and  C_11
REMARK    7  A    between atoms: C_14  and  C_15
REMARK    8  A    between atoms: C_16  and  C_17
REMARK    9  A    between atoms: C_25  and  O_26
REMARK   10  A    between atoms: O_26  and  C_27
REMARK                            x       y       z     vdW  Elec       q    Type
REMARK                         _______ _______ _______ _____ _____    ______ ____
ROOT
ATOM      1  N   UNL     1       0.117  10.163  18.392  0.00  0.00    +0.000 N 
ATOM      2  N   UNL     1       0.900   9.333  17.661  0.00  0.00    +0.000 NA
ATOM      3  C   UNL     1       1.500   8.544  18.562  0.00  0.00    +0.000 A 
ATOM      4  C   UNL     1       1.092   8.892  19.883  0.00  0.00    +0.000 A 
ATOM      5  C   UNL     1       1.430   8.443  21.159  0.00  0.00    +0.000 A 
ATOM      6  N   UNL     1       0.844   8.961  22.257  0.00  0.00    +0.000 NA
ATOM      7  C   UNL     1      -0.080   9.919  22.132  0.00  0.00    +0.000 A 
ATOM      8  C   UNL     1      -0.638  10.408  23.298  0.00  0.00    +0.000 A 
ATOM      9  C   UNL     1      -1.607  11.414  23.295  0.00  0.00    +0.000 A 
ATOM     10  C   UNL     1      -2.049  11.944  22.090  0.00  0.00    +0.000 A 
ATOM     11  C   UNL     1      -1.511  11.461  20.891  0.00  0.00    +0.000 A 
ATOM     12  C   UNL     1      -0.508  10.462  20.897  0.00  0.00    +0.000 A 
ATOM     13  C   UNL     1       0.148   9.915  19.747  0.00  0.00    +0.000 A 
ENDROOT
BRANCH   3  14
ATOM     14  C   UNL     1       2.423   7.483  18.147  0.00  0.00    +0.000 A 
ATOM     15  C   UNL     1       3.653   7.794  17.561  0.00  0.00    +0.000 A 
ATOM     16  C   UNL     1       4.510   6.778  17.127  0.00  0.00    +0.000 A 
ATOM     17  C   UNL     1       4.157   5.425  17.262  0.00  0.00    +0.000 A 
ATOM     18  C   UNL     1       5.084   4.369  16.724  0.00  0.00    +0.000 C 
ATOM     19  C   UNL     1       2.927   5.097  17.862  0.00  0.00    +0.000 A 
ATOM     20  C   UNL     1       2.454   3.682  18.058  0.00  0.00    +0.000 C 
ATOM     21  C   UNL     1       2.077   6.133  18.294  0.00  0.00    +0.000 A 
ENDBRANCH   3  14
BRANCH  10  22
ATOM     22  O   UNL     1      -2.990  12.928  21.952  0.00  0.00    +0.000 OA
ATOM     23  C   UNL     1      -3.770  13.233  23.103  0.00  0.00    +0.000 C 
ENDBRANCH  10  22
BRANCH   1  24
ATOM     24  C   UNL     1      -0.549  11.228  17.669  0.00  0.00    +0.000 C 
BRANCH  24  26
ATOM     25  N   UNL     1      -2.908  11.848  17.515  0.00  0.00    +0.000 N 
ATOM     26  C   UNL     1      -1.967  10.864  17.298  0.00  0.00    +0.000 C 
ATOM     27  O   UNL     1      -2.256   9.743  16.884  0.00  0.00    +0.000 OA
ATOM     28  H   UNL     1      -2.589  12.765  17.822  0.00  0.00    +0.000 HD
BRANCH  25  29
ATOM     29  C   UNL     1      -4.315  11.659  17.221  0.00  0.00    +0.000 C 
BRANCH  29  31
ATOM     30  C   UNL     1      -6.630  11.207  18.159  0.00  0.00    +0.000 C 
ATOM     31  C   UNL     1      -5.159  11.429  18.472  0.00  0.00    +0.000 C 
ENDBRANCH  29  31
ENDBRANCH  25  29
ENDBRANCH  24  26
ENDBRANCH   1  24
TORSDOF 6
ENDMDL
MODEL 8
REMARK VINA RESULT:      -7.2      2.844      7.347
REMARK  Name = 
REMARK  10 active torsions:
REMARK  status: ('A' for Active; 'I' for Inactive)
REMARK    1  A    between atoms: C_1  and  C_2
REMARK    2  A    between atoms: C_2  and  C_3
REMARK    3  A    between atoms: C_3  and  N_4
REMARK    4  A    between atoms: C_5  and  C_7
REMARK    5  A    between atoms: C_7  and  N_8
REMARK    6  A    between atoms: C_10  and  C_11
REMARK    7  A    between atoms: C_14  and  C_15
REMARK    8  A    between atoms: C_16  and  C_17
REMARK    9  A    between atoms: C_25  and  O_26
REMARK   10  A    between atoms: O_26  and  C_27
REMARK                            x       y       z     vdW  Elec       q    Type
REMARK                         _______ _______ _______ _____ _____    ______ ____
ROOT
ATOM      1  N   UNL     1       3.627   6.739  17.789  0.00  0.00    +0.000 N 
ATOM      2  N   UNL     1       3.255   8.001  17.465  0.00  0.00    +0.000 NA
ATOM      3  C   UNL     1       2.337   8.334  18.381  0.00  0.00    +0.000 A 
ATOM      4  C   UNL     1       2.123   7.257  19.290  0.00  0.00    +0.000 A 
ATOM      5  C   UNL     1       1.271   7.049  20.375  0.00  0.00    +0.000 A 
ATOM      6  N   UNL     1       1.312   5.903  21.083  0.00  0.00    +0.000 NA
ATOM      7  C   UNL     1       2.181   4.943  20.750  0.00  0.00    +0.000 A 
ATOM      8  C   UNL     1       2.168   3.792  21.516  0.00  0.00    +0.000 A 
ATOM      9  C   UNL     1       3.024   2.719  21.260  0.00  0.00    +0.000 A 
ATOM     10  C   UNL     1       3.937   2.795  20.217  0.00  0.00    +0.000 A 
ATOM     11  C   UNL     1       3.983   3.953  19.431  0.00  0.00    +0.000 A 
ATOM     12  C   UNL     1       3.094   5.029  19.673  0.00  0.00    +0.000 A 
ATOM     13  C   UNL     1       3.014   6.244  18.920  0.00  0.00    +0.000 A 
ENDROOT
BRANCH   3  14
ATOM     14  C   UNL     1       1.704   9.657  18.376  0.00  0.00    +0.000 A 
ATOM     15  C   UNL     1       2.475  10.818  18.271  0.00  0.00    +0.000 A 
ATOM     16  C   UNL     1       1.869  12.078  18.312  0.00  0.00    +0.000 A 
ATOM     17  C   UNL     1       0.478  12.209  18.464  0.00  0.00    +0.000 A 
ATOM     18  C   UNL     1      -0.120  13.586  18.564  0.00  0.00    +0.000 C 
ATOM     19  C   UNL     1      -0.310  11.048  18.558  0.00  0.00    +0.000 A 
ATOM     20  C   UNL     1      -1.807  11.076  18.721  0.00  0.00    +0.000 C 
ATOM     21  C   UNL     1       0.315   9.788  18.515  0.00  0.00    +0.000 A 
ENDBRANCH   3  14
BRANCH  10  22
ATOM     22  O   UNL     1       4.827   1.817  19.866  0.00  0.00    +0.000 OA
ATOM     23  C   UNL     1       5.339   1.010  20.921  0.00  0.00    +0.000 C 
ENDBRANCH  10  22
BRANCH   1  24
ATOM     24  C   UNL     1       4.524   6.071  16.865  0.00  0.00    +0.000 C 
BRANCH  24  26
ATOM     25  N   UNL     1       6.455   7.501  17.311  0.00  0.00    +0.000 N 
ATOM     26  C   UNL     1       5.971   6.211  17.274  0.00  0.00    +0.000 C 
ATOM     27  O   UNL     1       6.673   5.228  17.502  0.00  0.00    +0.000 OA
ATOM     28  H   UNL     1       5.804   8.269  17.148  0.00  0.00    +0.000 HD
BRANCH  25  29
ATOM     29  C   UNL     1       7.823   7.811  17.675  0.00  0.00    +0.000 C 
BRANCH  29  31
ATOM     30  C   UNL     1       9.023   9.684  18.899  0.00  0.00    +0.000 C 
ATOM     31  C   UNL     1       8.093   9.312  17.755  0.00  0.00    +0.000 C 
ENDBRANCH  29  31
ENDBRANCH  25  29
ENDBRANCH  24  26
ENDBRANCH   1  24
TORSDOF 6
ENDMDL
MODEL 9
REMARK VINA RESULT:      -7.1      2.947      6.349
REMARK  Name = 
REMARK  10 active torsions:
REMARK  status: ('A' for Active; 'I' for Inactive)
REMARK    1  A    between atoms: C_1  and  C_2
REMARK    2  A    between atoms: C_2  and  C_3
REMARK    3  A    between atoms: C_3  and  N_4
REMARK    4  A    between atoms: C_5  and  C_7
REMARK    5  A    between atoms: C_7  and  N_8
REMARK    6  A    between atoms: C_10  and  C_11
REMARK    7  A    between atoms: C_14  and  C_15
REMARK    8  A    between atoms: C_16  and  C_17
REMARK    9  A    between atoms: C_25  and  O_26
REMARK   10  A    between atoms: O_26  and  C_27
REMARK                            x       y       z     vdW  Elec       q    Type
REMARK                         _______ _______ _______ _____ _____    ______ ____
ROOT
ATOM      1  N   UNL     1       1.187  10.394  18.542  0.00  0.00    +0.000 N 
ATOM      2  N   UNL     1       1.923   9.543  17.786  0.00  0.00    +0.000 NA
ATOM      3  C   UNL     1       2.094   8.460  18.555  0.00  0.00    +0.000 A 
ATOM      4  C   UNL     1       1.461   8.639  19.819  0.00  0.00    +0.000 A 
ATOM      5  C   UNL     1       1.367   7.873  20.982  0.00  0.00    +0.000 A 
ATOM      6  N   UNL     1       0.657   8.305  22.043  0.00  0.00    +0.000 NA
ATOM      7  C   UNL     1       0.028   9.483  21.993  0.00  0.00    +0.000 A 
ATOM      8  C   UNL     1      -0.679   9.865  23.118  0.00  0.00    +0.000 A 
ATOM      9  C   UNL     1      -1.370  11.077  23.186  0.00  0.00    +0.000 A 
ATOM     10  C   UNL     1      -1.375  11.933  22.092  0.00  0.00    +0.000 A 
ATOM     11  C   UNL     1      -0.678  11.568  20.934  0.00  0.00    +0.000 A 
ATOM     12  C   UNL     1       0.047  10.353  20.877  0.00  0.00    +0.000 A 
ATOM     13  C   UNL     1       0.828   9.886  19.771  0.00  0.00    +0.000 A 
ENDROOT
BRANCH   3  14
ATOM     14  C   UNL     1       2.834   7.292  18.067  0.00  0.00    +0.000 A 
ATOM     15  C   UNL     1       4.079   7.440  17.450  0.00  0.00    +0.000 A 
ATOM     16  C   UNL     1       4.759   6.326  16.948  0.00  0.00    +0.000 A 
ATOM     17  C   UNL     1       4.209   5.036  17.045  0.00  0.00    +0.000 A 
ATOM     18  C   UNL     1       4.950   3.878  16.435  0.00  0.00    +0.000 C 
ATOM     19  C   UNL     1       2.963   4.871  17.675  0.00  0.00    +0.000 A 
ATOM     20  C   UNL     1       2.287   3.536  17.834  0.00  0.00    +0.000 C 
ATOM     21  C   UNL     1       2.292   6.003  18.176  0.00  0.00    +0.000 A 
ENDBRANCH   3  14
BRANCH  10  22
ATOM     22  O   UNL     1      -2.012  13.142  22.032  0.00  0.00    +0.000 OA
ATOM     23  C   UNL     1      -2.882  13.461  23.113  0.00  0.00    +0.000 C 
ENDBRANCH  10  22
BRANCH   1  24
ATOM     24  C   UNL     1       0.971  11.721  17.998  0.00  0.00    +0.000 C 
BRANCH  24  26
ATOM     25  N   UNL     1       2.555  13.529  17.554  0.00  0.00    +0.000 N 
ATOM     26  C   UNL     1       1.983  12.718  18.511  0.00  0.00    +0.000 C 
ATOM     27  O   UNL     1       2.306  12.754  19.697  0.00  0.00    +0.000 OA
ATOM     28  H   UNL     1       2.209  13.469  16.598  0.00  0.00    +0.000 HD
BRANCH  25  29
ATOM     29  C   UNL     1       3.549  14.533  17.876  0.00  0.00    +0.000 C 
BRANCH  29  31
ATOM     30  C   UNL     1       3.001  16.879  17.075  0.00  0.00    +0.000 C 
ATOM     31  C   UNL     1       2.935  15.887  18.226  0.00  0.00    +0.000 C 
ENDBRANCH  29  31
ENDBRANCH  25  29
ENDBRANCH  24  26
ENDBRANCH   1  24
TORSDOF 6
ENDMDL
