MODEL 1
REMARK VINA RESULT:      -6.5      0.000      0.000
REMARK  Name = 
REMARK  16 active torsions:
REMARK  status: ('A' for Active; 'I' for Inactive)
REMARK    1  A    between atoms: C_1  and  C_2
REMARK    2  A    between atoms: C_2  and  O_4
REMARK    3  A    between atoms: O_4  and  C_5
REMARK    4  A    between atoms: C_6  and  C_7
REMARK    5  A    between atoms: N_9  and  C_10
REMARK    6  A    between atoms: C_10  and  C_11
REMARK    7  A    between atoms: C_11  and  C_12
REMARK    8  A    between atoms: C_15  and  O_16
REMARK    9  A    between atoms: O_16  and  C_17
REMARK   10  A    between atoms: C_17  and  C_18
REMARK   11  A    between atoms: C_20  and  O_21
REMARK   12  A    between atoms: O_21  and  C_22
REMARK   13  A    between atoms: C_22  and  C_23
REMARK   14  A    between atoms: C_25  and  O_26
REMARK   15  A    between atoms: O_26  and  C_27
REMARK   16  A    between atoms: C_27  and  C_28
REMARK                            x       y       z     vdW  Elec       q    Type
REMARK                         _______ _______ _______ _____ _____    ______ ____
ROOT
ATOM      1  C   UNL     1       3.657   5.438  19.560  0.00  0.00    +0.000 C 
ATOM      2  C   UNL     1       3.132   5.724  18.124  0.00  0.00    +0.000 C 
ATOM      3  O   UNL     1       3.416   4.741  17.132  0.00  0.00    +0.000 OA
ATOM      4  C   UNL     1       4.615   3.964  17.183  0.00  0.00    +0.000 C 
ATOM      5  C   UNL     1       5.014   3.552  18.614  0.00  0.00    +0.000 C 
ATOM      6  C   UNL     1       5.063   4.831  19.487  0.00  0.00    +0.000 C 
ENDROOT
BRANCH   2   7
ATOM      7  C   UNL     1       3.473   7.210  17.762  0.00  0.00    +0.000 C 
ATOM      8  O   UNL     1       4.609   7.605  17.511  0.00  0.00    +0.000 OA
ATOM      9  N   UNL     1       2.380   8.070  17.803  0.00  0.00    +0.000 N 
ATOM     10  H   UNL     1       1.452   7.669  17.919  0.00  0.00    +0.000 HD
BRANCH   9  11
ATOM     11  C   UNL     1       2.493   9.517  17.685  0.00  0.00    +0.000 C 
BRANCH  11  12
ATOM     12  C   UNL     1       1.529  10.314  18.564  0.00  0.00    +0.000 C 
BRANCH  12  13
ATOM     13  C   UNL     1       0.918   9.475  19.672  0.00  0.00    +0.000 C 
ATOM     14 BR   UNL     1      -0.390  10.533  20.660  0.00  0.00    +0.000 Br
ENDBRANCH  12  13
ENDBRANCH  11  12
ENDBRANCH   9  11
ENDBRANCH   2   7
BRANCH   1  15
ATOM     15  O   UNL     1       2.857   4.547  20.369  0.00  0.00    +0.000 OA
BRANCH  15  17
ATOM     16  C   UNL     1       0.717   3.641  20.487  0.00  0.00    +0.000 C 
ATOM     17  C   UNL     1       1.562   4.875  20.593  0.00  0.00    +0.000 C 
ATOM     18  O   UNL     1       1.172   5.975  20.953  0.00  0.00    +0.000 OA
ENDBRANCH  15  17
ENDBRANCH   1  15
BRANCH   4  19
ATOM     19  O   UNL     1       5.753   4.630  16.609  0.00  0.00    +0.000 OA
BRANCH  19  20
ATOM     20  C   UNL     1       5.651   5.025  15.318  0.00  0.00    +0.000 C 
ATOM     21  C   UNL     1       5.786   3.844  14.398  0.00  0.00    +0.000 C 
ATOM     22  O   UNL     1       5.405   6.160  14.935  0.00  0.00    +0.000 OA
ENDBRANCH  19  20
ENDBRANCH   4  19
BRANCH   5  23
ATOM     23  O   UNL     1       4.054   2.608  19.183  0.00  0.00    +0.000 OA
BRANCH  23  24
ATOM     24  C   UNL     1       3.554   1.644  18.368  0.00  0.00    +0.000 C 
ATOM     25  C   UNL     1       2.095   1.870  18.069  0.00  0.00    +0.000 C 
ATOM     26  O   UNL     1       4.217   0.720  17.899  0.00  0.00    +0.000 OA
ENDBRANCH  23  24
ENDBRANCH   5  23
BRANCH   6  27
ATOM     27  O   UNL     1       5.878   5.904  18.960  0.00  0.00    +0.000 OA
BRANCH  27  28
ATOM     28  C   UNL     1       7.199   5.976  19.218  0.00  0.00    +0.000 C 
ATOM     29  C   UNL     1       7.868   6.903  18.239  0.00  0.00    +0.000 C 
ATOM     30  O   UNL     1       7.765   5.365  20.114  0.00  0.00    +0.000 OA
ENDBRANCH  27  28
ENDBRANCH   6  27
TORSDOF 12
ENDMDL
MODEL 2
REMARK VINA RESULT:      -6.5      0.891      1.016
REMARK  Name = 
REMARK  16 active torsions:
REMARK  status: ('A' for Active; 'I' for Inactive)
REMARK    1  A    between atoms: C_1  and  C_2
REMARK    2  A    between atoms: C_2  and  O_4
REMARK    3  A    between atoms: O_4  and  C_5
REMARK    4  A    between atoms: C_6  and  C_7
REMARK    5  A    between atoms: N_9  and  C_10
REMARK    6  A    between atoms: C_10  and  C_11
REMARK    7  A    between atoms: C_11  and  C_12
REMARK    8  A    between atoms: C_15  and  O_16
REMARK    9  A    between atoms: O_16  and  C_17
REMARK   10  A    between atoms: C_17  and  C_18
REMARK   11  A    between atoms: C_20  and  O_21
REMARK   12  A    between atoms: O_21  and  C_22
REMARK   13  A    between atoms: C_22  and  C_23
REMARK   14  A    between atoms: C_25  and  O_26
REMARK   15  A    between atoms: O_26  and  C_27
REMARK   16  A    between atoms: C_27  and  C_28
REMARK                            x       y       z     vdW  Elec       q    Type
REMARK                         _______ _______ _______ _____ _____    ______ ____
ROOT
ATOM      1  C   UNL     1       3.761   5.620  19.447  0.00  0.00    +0.000 C 
ATOM      2  C   UNL     1       3.002   5.868  18.112  0.00  0.00    +0.000 C 
ATOM      3  O   UNL     1       3.199   4.909  17.077  0.00  0.00    +0.000 OA
ATOM      4  C   UNL     1       4.443   4.219  16.935  0.00  0.00    +0.000 C 
ATOM      5  C   UNL     1       5.086   3.836  18.283  0.00  0.00    +0.000 C 
ATOM      6  C   UNL     1       5.178   5.115  19.152  0.00  0.00    +0.000 C 
ENDROOT
BRANCH   2   7
ATOM      7  C   UNL     1       3.178   7.375  17.718  0.00  0.00    +0.000 C 
ATOM      8  O   UNL     1       4.144   7.807  17.094  0.00  0.00    +0.000 OA
ATOM      9  N   UNL     1       2.167   8.206  18.189  0.00  0.00    +0.000 N 
ATOM     10  H   UNL     1       1.346   7.779  18.613  0.00  0.00    +0.000 HD
BRANCH   9  11
ATOM     11  C   UNL     1       2.217   9.659  18.104  0.00  0.00    +0.000 C 
BRANCH  11  12
ATOM     12  C   UNL     1       1.041  10.387  18.754  0.00  0.00    +0.000 C 
BRANCH  12  13
ATOM     13  C   UNL     1      -0.289  10.039  18.109  0.00  0.00    +0.000 C 
ATOM     14 BR   UNL     1      -1.519  11.544  18.274  0.00  0.00    +0.000 Br
ENDBRANCH  12  13
ENDBRANCH  11  12
ENDBRANCH   9  11
ENDBRANCH   2   7
BRANCH   1  15
ATOM     15  O   UNL     1       3.161   4.674  20.360  0.00  0.00    +0.000 OA
BRANCH  15  17
ATOM     16  C   UNL     1       1.238   3.571  21.069  0.00  0.00    +0.000 C 
ATOM     17  C   UNL     1       1.882   4.888  20.752  0.00  0.00    +0.000 C 
ATOM     18  O   UNL     1       1.383   5.986  20.942  0.00  0.00    +0.000 OA
ENDBRANCH  15  17
ENDBRANCH   1  15
BRANCH   4  19
ATOM     19  O   UNL     1       5.429   4.964  16.201  0.00  0.00    +0.000 OA
BRANCH  19  20
ATOM     20  C   UNL     1       6.439   4.262  15.635  0.00  0.00    +0.000 C 
ATOM     21  C   UNL     1       6.011   3.714  14.302  0.00  0.00    +0.000 C 
ATOM     22  O   UNL     1       7.570   4.144  16.087  0.00  0.00    +0.000 OA
ENDBRANCH  19  20
ENDBRANCH   4  19
BRANCH   5  23
ATOM     23  O   UNL     1       4.294   2.826  18.982  0.00  0.00    +0.000 OA
BRANCH  23  24
ATOM     24  C   UNL     1       3.711   1.852  18.238  0.00  0.00    +0.000 C 
ATOM     25  C   UNL     1       2.219   2.037  18.150  0.00  0.00    +0.000 C 
ATOM     26  O   UNL     1       4.326   0.949  17.673  0.00  0.00    +0.000 OA
ENDBRANCH  23  24
ENDBRANCH   5  23
BRANCH   6  27
ATOM     27  O   UNL     1       5.825   6.244  18.518  0.00  0.00    +0.000 OA
BRANCH  27  28
ATOM     28  C   UNL     1       7.161   6.413  18.576  0.00  0.00    +0.000 C 
ATOM     29  C   UNL     1       7.594   7.458  17.582  0.00  0.00    +0.000 C 
ATOM     30  O   UNL     1       7.907   5.794  19.322  0.00  0.00    +0.000 OA
ENDBRANCH  27  28
ENDBRANCH   6  27
TORSDOF 12
ENDMDL
MODEL 3
REMARK VINA RESULT:      -6.4      5.739      9.694
REMARK  Name = 
REMARK  16 active torsions:
REMARK  status: ('A' for Active; 'I' for Inactive)
REMARK    1  A    between atoms: C_1  and  C_2
REMARK    2  A    between atoms: C_2  and  O_4
REMARK    3  A    between atoms: O_4  and  C_5
REMARK    4  A    between atoms: C_6  and  C_7
REMARK    5  A    between atoms: N_9  and  C_10
REMARK    6  A    between atoms: C_10  and  C_11
REMARK    7  A    between atoms: C_11  and  C_12
REMARK    8  A    between atoms: C_15  and  O_16
REMARK    9  A    between atoms: O_16  and  C_17
REMARK   10  A    between atoms: C_17  and  C_18
REMARK   11  A    between atoms: C_20  and  O_21
REMARK   12  A    between atoms: O_21  and  C_22
REMARK   13  A    between atoms: C_22  and  C_23
REMARK   14  A    between atoms: C_25  and  O_26
REMARK   15  A    between atoms: O_26  and  C_27
REMARK   16  A    between atoms: C_27  and  C_28
REMARK                            x       y       z     vdW  Elec       q    Type
REMARK                         _______ _______ _______ _____ _____    ______ ____
ROOT
ATOM      1  C   UNL     1      -0.583  11.060  20.841  0.00  0.00    +0.000 C 
ATOM      2  C   UNL     1       0.759  11.821  20.640  0.00  0.00    +0.000 C 
ATOM      3  O   UNL     1       0.735  13.227  20.865  0.00  0.00    +0.000 OA
ATOM      4  C   UNL     1      -0.435  14.001  20.590  0.00  0.00    +0.000 C 
ATOM      5  C   UNL     1      -1.745  13.279  20.963  0.00  0.00    +0.000 C 
ATOM      6  C   UNL     1      -1.741  11.890  20.277  0.00  0.00    +0.000 C 
ENDROOT
BRANCH   2   7
ATOM      7  C   UNL     1       1.404  11.333  19.298  0.00  0.00    +0.000 C 
ATOM      8  O   UNL     1       1.981  12.078  18.510  0.00  0.00    +0.000 OA
ATOM      9  N   UNL     1       1.219   9.978  19.039  0.00  0.00    +0.000 N 
ATOM     10  H   UNL     1       0.822   9.395  19.771  0.00  0.00    +0.000 HD
BRANCH   9  11
ATOM     11  C   UNL     1       1.569   9.348  17.774  0.00  0.00    +0.000 C 
BRANCH  11  12
ATOM     12  C   UNL     1       2.675   8.296  17.859  0.00  0.00    +0.000 C 
BRANCH  12  13
ATOM     13  C   UNL     1       2.429   7.280  18.961  0.00  0.00    +0.000 C 
ATOM     14 BR   UNL     1       2.443   5.478  18.214  0.00  0.00    +0.000 Br
ENDBRANCH  12  13
ENDBRANCH  11  12
ENDBRANCH   9  11
ENDBRANCH   2   7
BRANCH   1  15
ATOM     15  O   UNL     1      -0.932  10.725  22.204  0.00  0.00    +0.000 OA
BRANCH  15  17
ATOM     16  C   UNL     1      -0.373   8.492  21.866  0.00  0.00    +0.000 C 
ATOM     17  C   UNL     1      -0.305   9.675  22.785  0.00  0.00    +0.000 C 
ATOM     18  O   UNL     1       0.327   9.728  23.829  0.00  0.00    +0.000 OA
ENDBRANCH  15  17
ENDBRANCH   1  15
BRANCH   4  19
ATOM     19  O   UNL     1      -0.553  14.390  19.211  0.00  0.00    +0.000 OA
BRANCH  19  20
ATOM     20  C   UNL     1       0.212  15.427  18.794  0.00  0.00    +0.000 C 
ATOM     21  C   UNL     1      -0.612  16.681  18.706  0.00  0.00    +0.000 C 
ATOM     22  O   UNL     1       1.418  15.390  18.591  0.00  0.00    +0.000 OA
ENDBRANCH  19  20
ENDBRANCH   4  19
BRANCH   5  23
ATOM     23  O   UNL     1      -1.867  13.110  22.410  0.00  0.00    +0.000 OA
BRANCH  23  24
ATOM     24  C   UNL     1      -3.110  13.162  22.952  0.00  0.00    +0.000 C 
ATOM     25  C   UNL     1      -3.599  14.580  23.088  0.00  0.00    +0.000 C 
ATOM     26  O   UNL     1      -3.774  12.173  23.260  0.00  0.00    +0.000 OA
ENDBRANCH  23  24
ENDBRANCH   5  23
BRANCH   6  27
ATOM     27  O   UNL     1      -1.493  11.909  18.852  0.00  0.00    +0.000 OA
BRANCH  27  28
ATOM     28  C   UNL     1      -2.140  11.077  18.013  0.00  0.00    +0.000 C 
ATOM     29  C   UNL     1      -3.585  11.483  17.892  0.00  0.00    +0.000 C 
ATOM     30  O   UNL     1      -1.624  10.124  17.446  0.00  0.00    +0.000 OA
ENDBRANCH  27  28
ENDBRANCH   6  27
TORSDOF 12
ENDMDL
MODEL 4
REMARK VINA RESULT:      -6.3      0.968      1.151
REMARK  Name = 
REMARK  16 active torsions:
REMARK  status: ('A' for Active; 'I' for Inactive)
REMARK    1  A    between atoms: C_1  and  C_2
REMARK    2  A    between atoms: C_2  and  O_4
REMARK    3  A    between atoms: O_4  and  C_5
REMARK    4  A    between atoms: C_6  and  C_7
REMARK    5  A    between atoms: N_9  and  C_10
REMARK    6  A    between atoms: C_10  and  C_11
REMARK    7  A    between atoms: C_11  and  C_12
REMARK    8  A    between atoms: C_15  and  O_16
REMARK    9  A    between atoms: O_16  and  C_17
REMARK   10  A    between atoms: C_17  and  C_18
REMARK   11  A    between atoms: C_20  and  O_21
REMARK   12  A    between atoms: O_21  and  C_22
REMARK   13  A    between atoms: C_22  and  C_23
REMARK   14  A    between atoms: C_25  and  O_26
REMARK   15  A    between atoms: O_26  and  C_27
REMARK   16  A    between atoms: C_27  and  C_28
REMARK                            x       y       z     vdW  Elec       q    Type
REMARK                         _______ _______ _______ _____ _____    ______ ____
ROOT
ATOM      1  C   UNL     1       3.773   5.709  19.400  0.00  0.00    +0.000 C 
ATOM      2  C   UNL     1       2.823   5.880  18.179  0.00  0.00    +0.000 C 
ATOM      3  O   UNL     1       2.889   4.874  17.173  0.00  0.00    +0.000 OA
ATOM      4  C   UNL     1       4.115   4.197  16.883  0.00  0.00    +0.000 C 
ATOM      5  C   UNL     1       4.954   3.890  18.140  0.00  0.00    +0.000 C 
ATOM      6  C   UNL     1       5.143   5.211  18.926  0.00  0.00    +0.000 C 
ENDROOT
BRANCH   2   7
ATOM      7  C   UNL     1       2.908   7.368  17.695  0.00  0.00    +0.000 C 
ATOM      8  O   UNL     1       3.647   7.748  16.791  0.00  0.00    +0.000 OA
ATOM      9  N   UNL     1       2.109   8.247  18.421  0.00  0.00    +0.000 N 
ATOM     10  H   UNL     1       1.448   7.860  19.090  0.00  0.00    +0.000 HD
BRANCH   9  11
ATOM     11  C   UNL     1       2.167   9.694  18.270  0.00  0.00    +0.000 C 
BRANCH  11  12
ATOM     12  C   UNL     1       0.842  10.421  18.498  0.00  0.00    +0.000 C 
BRANCH  12  13
ATOM     13  C   UNL     1       0.006   9.783  19.593  0.00  0.00    +0.000 C 
ATOM     14 BR   UNL     1       0.742  10.240  21.340  0.00  0.00    +0.000 Br
ENDBRANCH  12  13
ENDBRANCH  11  12
ENDBRANCH   9  11
ENDBRANCH   2   7
BRANCH   1  15
ATOM     15  O   UNL     1       3.331   4.799  20.433  0.00  0.00    +0.000 OA
BRANCH  15  17
ATOM     16  C   UNL     1       1.630   3.599  21.473  0.00  0.00    +0.000 C 
ATOM     17  C   UNL     1       2.056   4.908  20.878  0.00  0.00    +0.000 C 
ATOM     18  O   UNL     1       1.411   5.944  20.907  0.00  0.00    +0.000 OA
ENDBRANCH  15  17
ENDBRANCH   1  15
BRANCH   4  19
ATOM     19  O   UNL     1       4.968   4.920  15.979  0.00  0.00    +0.000 OA
BRANCH  19  20
ATOM     20  C   UNL     1       5.901   4.206  15.307  0.00  0.00    +0.000 C 
ATOM     21  C   UNL     1       5.444   3.946  13.898  0.00  0.00    +0.000 C 
ATOM     22  O   UNL     1       6.998   3.878  15.736  0.00  0.00    +0.000 OA
ENDBRANCH  19  20
ENDBRANCH   4  19
BRANCH   5  23
ATOM     23  O   UNL     1       4.294   2.903  18.992  0.00  0.00    +0.000 OA
BRANCH  23  24
ATOM     24  C   UNL     1       3.666   1.862  18.387  0.00  0.00    +0.000 C 
ATOM     25  C   UNL     1       2.171   1.947  18.546  0.00  0.00    +0.000 C 
ATOM     26  O   UNL     1       4.242   0.978  17.756  0.00  0.00    +0.000 OA
ENDBRANCH  23  24
ENDBRANCH   5  23
BRANCH   6  27
ATOM     27  O   UNL     1       5.666   6.317  18.153  0.00  0.00    +0.000 OA
BRANCH  27  28
ATOM     28  C   UNL     1       6.992   6.494  17.987  0.00  0.00    +0.000 C 
ATOM     29  C   UNL     1       7.744   5.894  19.144  0.00  0.00    +0.000 C 
ATOM     30  O   UNL     1       7.501   7.072  17.036  0.00  0.00    +0.000 OA
ENDBRANCH  27  28
ENDBRANCH   6  27
TORSDOF 12
ENDMDL
MODEL 5
REMARK VINA RESULT:      -6.2      0.952      1.131
REMARK  Name = 
REMARK  16 active torsions:
REMARK  status: ('A' for Active; 'I' for Inactive)
REMARK    1  A    between atoms: C_1  and  C_2
REMARK    2  A    between atoms: C_2  and  O_4
REMARK    3  A    between atoms: O_4  and  C_5
REMARK    4  A    between atoms: C_6  and  C_7
REMARK    5  A    between atoms: N_9  and  C_10
REMARK    6  A    between atoms: C_10  and  C_11
REMARK    7  A    between atoms: C_11  and  C_12
REMARK    8  A    between atoms: C_15  and  O_16
REMARK    9  A    between atoms: O_16  and  C_17
REMARK   10  A    between atoms: C_17  and  C_18
REMARK   11  A    between atoms: C_20  and  O_21
REMARK   12  A    between atoms: O_21  and  C_22
REMARK   13  A    between atoms: C_22  and  C_23
REMARK   14  A    between atoms: C_25  and  O_26
REMARK   15  A    between atoms: O_26  and  C_27
REMARK   16  A    between atoms: C_27  and  C_28
REMARK                            x       y       z     vdW  Elec       q    Type
REMARK                         _______ _______ _______ _____ _____    ______ ____
ROOT
ATOM      1  C   UNL     1       3.646   5.783  19.507  0.00  0.00    +0.000 C 
ATOM      2  C   UNL     1       2.983   6.066  18.129  0.00  0.00    +0.000 C 
ATOM      3  O   UNL     1       3.178   5.087  17.113  0.00  0.00    +0.000 OA
ATOM      4  C   UNL     1       4.383   4.320  17.047  0.00  0.00    +0.000 C 
ATOM      5  C   UNL     1       4.921   3.910  18.432  0.00  0.00    +0.000 C 
ATOM      6  C   UNL     1       5.043   5.187  19.299  0.00  0.00    +0.000 C 
ENDROOT
BRANCH   2   7
ATOM      7  C   UNL     1       3.276   7.556  17.739  0.00  0.00    +0.000 C 
ATOM      8  O   UNL     1       4.316   7.926  17.200  0.00  0.00    +0.000 OA
ATOM      9  N   UNL     1       2.274   8.447  18.109  0.00  0.00    +0.000 N 
ATOM     10  H   UNL     1       1.397   8.071  18.461  0.00  0.00    +0.000 HD
BRANCH   9  11
ATOM     11  C   UNL     1       2.412   9.894  18.015  0.00  0.00    +0.000 C 
BRANCH  11  12
ATOM     12  C   UNL     1       1.283  10.695  18.663  0.00  0.00    +0.000 C 
BRANCH  12  13
ATOM     13  C   UNL     1       0.322   9.819  19.447  0.00  0.00    +0.000 C 
ATOM     14 BR   UNL     1       0.707   9.957  21.355  0.00  0.00    +0.000 Br
ENDBRANCH  12  13
ENDBRANCH  11  12
ENDBRANCH   9  11
ENDBRANCH   2   7
BRANCH   1  15
ATOM     15  O   UNL     1       2.935   4.884  20.388  0.00  0.00    +0.000 OA
BRANCH  15  17
ATOM     16  C   UNL     1       0.876   3.799  20.399  0.00  0.00    +0.000 C 
ATOM     17  C   UNL     1       1.611   5.094  20.582  0.00  0.00    +0.000 C 
ATOM     18  O   UNL     1       1.118   6.141  20.972  0.00  0.00    +0.000 OA
ENDBRANCH  15  17
ENDBRANCH   1  15
BRANCH   4  19
ATOM     19  O   UNL     1       5.455   4.996  16.367  0.00  0.00    +0.000 OA
BRANCH  19  20
ATOM     20  C   UNL     1       6.411   4.222  15.800  0.00  0.00    +0.000 C 
ATOM     21  C   UNL     1       5.899   3.609  14.527  0.00  0.00    +0.000 C 
ATOM     22  O   UNL     1       7.558   4.091  16.204  0.00  0.00    +0.000 OA
ENDBRANCH  19  20
ENDBRANCH   4  19
BRANCH   5  23
ATOM     23  O   UNL     1       4.028   2.957  19.089  0.00  0.00    +0.000 OA
BRANCH  23  24
ATOM     24  C   UNL     1       4.569   1.805  19.563  0.00  0.00    +0.000 C 
ATOM     25  C   UNL     1       4.244   0.632  18.676  0.00  0.00    +0.000 C 
ATOM     26  O   UNL     1       5.268   1.732  20.572  0.00  0.00    +0.000 OA
ENDBRANCH  23  24
ENDBRANCH   5  23
BRANCH   6  27
ATOM     27  O   UNL     1       5.795   6.268  18.698  0.00  0.00    +0.000 OA
BRANCH  27  28
ATOM     28  C   UNL     1       7.142   6.303  18.751  0.00  0.00    +0.000 C 
ATOM     29  C   UNL     1       7.671   7.336  17.793  0.00  0.00    +0.000 C 
ATOM     30  O   UNL     1       7.826   5.586  19.469  0.00  0.00    +0.000 OA
ENDBRANCH  27  28
ENDBRANCH   6  27
TORSDOF 12
ENDMDL
MODEL 6
REMARK VINA RESULT:      -6.1      5.920      9.780
REMARK  Name = 
REMARK  16 active torsions:
REMARK  status: ('A' for Active; 'I' for Inactive)
REMARK    1  A    between atoms: C_1  and  C_2
REMARK    2  A    between atoms: C_2  and  O_4
REMARK    3  A    between atoms: O_4  and  C_5
REMARK    4  A    between atoms: C_6  and  C_7
REMARK    5  A    between atoms: N_9  and  C_10
REMARK    6  A    between atoms: C_10  and  C_11
REMARK    7  A    between atoms: C_11  and  C_12
REMARK    8  A    between atoms: C_15  and  O_16
REMARK    9  A    between atoms: O_16  and  C_17
REMARK   10  A    between atoms: C_17  and  C_18
REMARK   11  A    between atoms: C_20  and  O_21
REMARK   12  A    between atoms: O_21  and  C_22
REMARK   13  A    between atoms: C_22  and  C_23
REMARK   14  A    between atoms: C_25  and  O_26
REMARK   15  A    between atoms: O_26  and  C_27
REMARK   16  A    between atoms: C_27  and  C_28
REMARK                            x       y       z     vdW  Elec       q    Type
REMARK                         _______ _______ _______ _____ _____    ______ ____
ROOT
ATOM      1  C   UNL     1      -0.317  13.225  21.055  0.00  0.00    +0.000 C 
ATOM      2  C   UNL     1      -0.133  13.220  19.511  0.00  0.00    +0.000 C 
ATOM      3  O   UNL     1      -1.292  12.940  18.731  0.00  0.00    +0.000 OA
ATOM      4  C   UNL     1      -2.313  12.062  19.211  0.00  0.00    +0.000 C 
ATOM      5  C   UNL     1      -2.589  12.217  20.721  0.00  0.00    +0.000 C 
ATOM      6  C   UNL     1      -1.242  12.076  21.473  0.00  0.00    +0.000 C 
ENDROOT
BRANCH   2   7
ATOM      7  C   UNL     1       1.159  12.400  19.172  0.00  0.00    +0.000 C 
ATOM      8  O   UNL     1       2.297  12.798  19.404  0.00  0.00    +0.000 OA
ATOM      9  N   UNL     1       0.912  11.193  18.526  0.00  0.00    +0.000 N 
ATOM     10  H   UNL     1      -0.050  10.872  18.450  0.00  0.00    +0.000 HD
BRANCH   9  11
ATOM     11  C   UNL     1       1.961  10.359  17.955  0.00  0.00    +0.000 C 
BRANCH  11  12
ATOM     12  C   UNL     1       1.723   8.854  18.067  0.00  0.00    +0.000 C 
BRANCH  12  13
ATOM     13  C   UNL     1       2.972   8.042  17.772  0.00  0.00    +0.000 C 
ATOM     14 BR   UNL     1       2.741   6.215  18.415  0.00  0.00    +0.000 Br
ENDBRANCH  12  13
ENDBRANCH  11  12
ENDBRANCH   9  11
ENDBRANCH   2   7
BRANCH   1  15
ATOM     15  O   UNL     1      -0.863  14.433  21.632  0.00  0.00    +0.000 OA
BRANCH  15  17
ATOM     16  C   UNL     1       0.754  15.868  22.493  0.00  0.00    +0.000 C 
ATOM     17  C   UNL     1      -0.334  14.881  22.796  0.00  0.00    +0.000 C 
ATOM     18  O   UNL     1      -0.766  14.620  23.907  0.00  0.00    +0.000 OA
ENDBRANCH  15  17
ENDBRANCH   1  15
BRANCH   4  19
ATOM     19  O   UNL     1      -2.028  10.672  18.980  0.00  0.00    +0.000 OA
BRANCH  19  20
ATOM     20  C   UNL     1      -2.346  10.171  17.764  0.00  0.00    +0.000 C 
ATOM     21  C   UNL     1      -3.818  10.330  17.501  0.00  0.00    +0.000 C 
ATOM     22  O   UNL     1      -1.555   9.721  16.947  0.00  0.00    +0.000 OA
ENDBRANCH  19  20
ENDBRANCH   4  19
BRANCH   5  23
ATOM     23  O   UNL     1      -3.185  13.517  21.023  0.00  0.00    +0.000 OA
BRANCH  23  24
ATOM     24  C   UNL     1      -4.140  13.567  21.985  0.00  0.00    +0.000 C 
ATOM     25  C   UNL     1      -4.310  14.962  22.528  0.00  0.00    +0.000 C 
ATOM     26  O   UNL     1      -4.812  12.603  22.346  0.00  0.00    +0.000 OA
ENDBRANCH  23  24
ENDBRANCH   5  23
BRANCH   6  27
ATOM     27  O   UNL     1      -0.483  10.886  21.156  0.00  0.00    +0.000 OA
BRANCH  27  28
ATOM     28  C   UNL     1      -0.156   9.986  22.105  0.00  0.00    +0.000 C 
ATOM     29  C   UNL     1      -0.082   8.606  21.507  0.00  0.00    +0.000 C 
ATOM     30  O   UNL     1       0.040  10.259  23.281  0.00  0.00    +0.000 OA
ENDBRANCH  27  28
ENDBRANCH   6  27
TORSDOF 12
ENDMDL
MODEL 7
REMARK VINA RESULT:      -6.1      5.140      8.499
REMARK  Name = 
REMARK  16 active torsions:
REMARK  status: ('A' for Active; 'I' for Inactive)
REMARK    1  A    between atoms: C_1  and  C_2
REMARK    2  A    between atoms: C_2  and  O_4
REMARK    3  A    between atoms: O_4  and  C_5
REMARK    4  A    between atoms: C_6  and  C_7
REMARK    5  A    between atoms: N_9  and  C_10
REMARK    6  A    between atoms: C_10  and  C_11
REMARK    7  A    between atoms: C_11  and  C_12
REMARK    8  A    between atoms: C_15  and  O_16
REMARK    9  A    between atoms: O_16  and  C_17
REMARK   10  A    between atoms: C_17  and  C_18
REMARK   11  A    between atoms: C_20  and  O_21
REMARK   12  A    between atoms: O_21  and  C_22
REMARK   13  A    between atoms: C_22  and  C_23
REMARK   14  A    between atoms: C_25  and  O_26
REMARK   15  A    between atoms: O_26  and  C_27
REMARK   16  A    between atoms: C_27  and  C_28
REMARK                            x       y       z     vdW  Elec       q    Type
REMARK                         _______ _______ _______ _____ _____    ______ ____
ROOT
ATOM      1  C   UNL     1      -1.323  10.848  19.009  0.00  0.00    +0.000 C 
ATOM      2  C   UNL     1      -0.955  12.351  18.855  0.00  0.00    +0.000 C 
ATOM      3  O   UNL     1       0.433  12.666  18.793  0.00  0.00    +0.000 OA
ATOM      4  C   UNL     1       1.401  11.887  19.499  0.00  0.00    +0.000 C 
ATOM      5  C   UNL     1       1.094  10.376  19.485  0.00  0.00    +0.000 C 
ATOM      6  C   UNL     1      -0.356  10.174  19.990  0.00  0.00    +0.000 C 
ENDROOT
BRANCH   2   7
ATOM      7  C   UNL     1      -1.821  13.175  19.869  0.00  0.00    +0.000 C 
ATOM      8  O   UNL     1      -1.507  14.288  20.283  0.00  0.00    +0.000 OA
ATOM      9  N   UNL     1      -2.960  12.511  20.313  0.00  0.00    +0.000 N 
ATOM     10  H   UNL     1      -3.218  11.637  19.862  0.00  0.00    +0.000 HD
BRANCH   9  11
ATOM     11  C   UNL     1      -3.807  13.005  21.389  0.00  0.00    +0.000 C 
BRANCH  11  12
ATOM     12  C   UNL     1      -3.440  12.501  22.785  0.00  0.00    +0.000 C 
BRANCH  12  13
ATOM     13  C   UNL     1      -2.571  13.483  23.550  0.00  0.00    +0.000 C 
ATOM     14 BR   UNL     1      -3.671  14.934  24.251  0.00  0.00    +0.000 Br
ENDBRANCH  12  13
ENDBRANCH  11  12
ENDBRANCH   9  11
ENDBRANCH   2   7
BRANCH   1  15
ATOM     15  O   UNL     1      -1.309  10.057  17.799  0.00  0.00    +0.000 OA
BRANCH  15  17
ATOM     16  C   UNL     1      -3.625   9.840  17.732  0.00  0.00    +0.000 C 
ATOM     17  C   UNL     1      -2.373  10.146  16.965  0.00  0.00    +0.000 C 
ATOM     18  O   UNL     1      -2.326  10.541  15.811  0.00  0.00    +0.000 OA
ENDBRANCH  15  17
ENDBRANCH   1  15
BRANCH   4  19
ATOM     19  O   UNL     1       1.548  12.269  20.877  0.00  0.00    +0.000 OA
BRANCH  19  20
ATOM     20  C   UNL     1       1.956  13.535  21.127  0.00  0.00    +0.000 C 
ATOM     21  C   UNL     1       3.026  13.941  20.152  0.00  0.00    +0.000 C 
ATOM     22  O   UNL     1       1.482  14.287  21.967  0.00  0.00    +0.000 OA
ENDBRANCH  19  20
ENDBRANCH   4  19
BRANCH   5  23
ATOM     23  O   UNL     1       1.226   9.818  18.140  0.00  0.00    +0.000 OA
BRANCH  23  24
ATOM     24  C   UNL     1       2.101   8.796  17.962  0.00  0.00    +0.000 C 
ATOM     25  C   UNL     1       2.095   7.848  19.132  0.00  0.00    +0.000 C 
ATOM     26  O   UNL     1       2.788   8.640  16.954  0.00  0.00    +0.000 OA
ENDBRANCH  23  24
ENDBRANCH   5  23
BRANCH   6  27
ATOM     27  O   UNL     1      -0.658  10.800  21.259  0.00  0.00    +0.000 OA
BRANCH  27  28
ATOM     28  C   UNL     1      -0.505  10.139  22.424  0.00  0.00    +0.000 C 
ATOM     29  C   UNL     1      -0.505   8.654  22.181  0.00  0.00    +0.000 C 
ATOM     30  O   UNL     1      -0.396  10.677  23.518  0.00  0.00    +0.000 OA
ENDBRANCH  27  28
ENDBRANCH   6  27
TORSDOF 12
ENDMDL
MODEL 8
REMARK VINA RESULT:      -6.0      5.752      9.573
REMARK  Name = 
REMARK  16 active torsions:
REMARK  status: ('A' for Active; 'I' for Inactive)
REMARK    1  A    between atoms: C_1  and  C_2
REMARK    2  A    between atoms: C_2  and  O_4
REMARK    3  A    between atoms: O_4  and  C_5
REMARK    4  A    between atoms: C_6  and  C_7
REMARK    5  A    between atoms: N_9  and  C_10
REMARK    6  A    between atoms: C_10  and  C_11
REMARK    7  A    between atoms: C_11  and  C_12
REMARK    8  A    between atoms: C_15  and  O_16
REMARK    9  A    between atoms: O_16  and  C_17
REMARK   10  A    between atoms: C_17  and  C_18
REMARK   11  A    between atoms: C_20  and  O_21
REMARK   12  A    between atoms: O_21  and  C_22
REMARK   13  A    between atoms: C_22  and  C_23
REMARK   14  A    between atoms: C_25  and  O_26
REMARK   15  A    between atoms: O_26  and  C_27
REMARK   16  A    between atoms: C_27  and  C_28
REMARK                            x       y       z     vdW  Elec       q    Type
REMARK                         _______ _______ _______ _____ _____    ______ ____
ROOT
ATOM      1  C   UNL     1       0.358  13.177  20.961  0.00  0.00    +0.000 C 
ATOM      2  C   UNL     1       0.337  13.169  19.406  0.00  0.00    +0.000 C 
ATOM      3  O   UNL     1      -0.922  12.926  18.785  0.00  0.00    +0.000 OA
ATOM      4  C   UNL     1      -1.898  12.080  19.398  0.00  0.00    +0.000 C 
ATOM      5  C   UNL     1      -1.968  12.240  20.930  0.00  0.00    +0.000 C 
ATOM      6  C   UNL     1      -0.540  12.057  21.499  0.00  0.00    +0.000 C 
ENDROOT
BRANCH   2   7
ATOM      7  C   UNL     1       1.548  12.311  18.903  0.00  0.00    +0.000 C 
ATOM      8  O   UNL     1       2.700  12.732  18.838  0.00  0.00    +0.000 OA
ATOM      9  N   UNL     1       1.199  11.033  18.475  0.00  0.00    +0.000 N 
ATOM     10  H   UNL     1       0.251  10.708  18.645  0.00  0.00    +0.000 HD
BRANCH   9  11
ATOM     11  C   UNL     1       2.124  10.133  17.801  0.00  0.00    +0.000 C 
BRANCH  11  12
ATOM     12  C   UNL     1       1.771   8.650  17.901  0.00  0.00    +0.000 C 
BRANCH  12  13
ATOM     13  C   UNL     1       2.993   7.752  17.816  0.00  0.00    +0.000 C 
ATOM     14 BR   UNL     1       2.510   5.927  18.307  0.00  0.00    +0.000 Br
ENDBRANCH  12  13
ENDBRANCH  11  12
ENDBRANCH   9  11
ENDBRANCH   2   7
BRANCH   1  15
ATOM     15  O   UNL     1      -0.071  14.401  21.602  0.00  0.00    +0.000 OA
BRANCH  15  17
ATOM     16  C   UNL     1       0.286  16.593  22.296  0.00  0.00    +0.000 C 
ATOM     17  C   UNL     1       0.879  15.230  22.096  0.00  0.00    +0.000 C 
ATOM     18  O   UNL     1       1.997  14.885  22.444  0.00  0.00    +0.000 OA
ENDBRANCH  15  17
ENDBRANCH   1  15
BRANCH   4  19
ATOM     19  O   UNL     1      -1.688  10.682  19.135  0.00  0.00    +0.000 OA
BRANCH  19  20
ATOM     20  C   UNL     1      -2.117  10.207  17.942  0.00  0.00    +0.000 C 
ATOM     21  C   UNL     1      -3.599  10.417  17.798  0.00  0.00    +0.000 C 
ATOM     22  O   UNL     1      -1.408   9.743  17.060  0.00  0.00    +0.000 OA
ENDBRANCH  19  20
ENDBRANCH   4  19
BRANCH   5  23
ATOM     23  O   UNL     1      -2.479  13.558  21.304  0.00  0.00    +0.000 OA
BRANCH  23  24
ATOM     24  C   UNL     1      -3.826  13.729  21.338  0.00  0.00    +0.000 C 
ATOM     25  C   UNL     1      -4.477  12.815  22.342  0.00  0.00    +0.000 C 
ATOM     26  O   UNL     1      -4.436  14.553  20.660  0.00  0.00    +0.000 OA
ENDBRANCH  23  24
ENDBRANCH   5  23
BRANCH   6  27
ATOM     27  O   UNL     1       0.135  10.844  21.088  0.00  0.00    +0.000 OA
BRANCH  27  28
ATOM     28  C   UNL     1       0.461   9.885  21.977  0.00  0.00    +0.000 C 
ATOM     29  C   UNL     1       0.819   8.612  21.257  0.00  0.00    +0.000 C 
ATOM     30  O   UNL     1       0.452  10.032  23.191  0.00  0.00    +0.000 OA
ENDBRANCH  27  28
ENDBRANCH   6  27
TORSDOF 12
ENDMDL
MODEL 9
REMARK VINA RESULT:      -6.0      5.339      8.718
REMARK  Name = 
REMARK  16 active torsions:
REMARK  status: ('A' for Active; 'I' for Inactive)
REMARK    1  A    between atoms: C_1  and  C_2
REMARK    2  A    between atoms: C_2  and  O_4
REMARK    3  A    between atoms: O_4  and  C_5
REMARK    4  A    between atoms: C_6  and  C_7
REMARK    5  A    between atoms: N_9  and  C_10
REMARK    6  A    between atoms: C_10  and  C_11
REMARK    7  A    between atoms: C_11  and  C_12
REMARK    8  A    between atoms: C_15  and  O_16
REMARK    9  A    between atoms: O_16  and  C_17
REMARK   10  A    between atoms: C_17  and  C_18
REMARK   11  A    between atoms: C_20  and  O_21
REMARK   12  A    between atoms: O_21  and  C_22
REMARK   13  A    between atoms: C_22  and  C_23
REMARK   14  A    between atoms: C_25  and  O_26
REMARK   15  A    between atoms: O_26  and  C_27
REMARK   16  A    between atoms: C_27  and  C_28
REMARK                            x       y       z     vdW  Elec       q    Type
REMARK                         _______ _______ _______ _____ _____    ______ ____
ROOT
ATOM      1  C   UNL     1      -1.500  10.942  19.410  0.00  0.00    +0.000 C 
ATOM      2  C   UNL     1      -1.119  12.376  18.943  0.00  0.00    +0.000 C 
ATOM      3  O   UNL     1       0.256  12.608  18.651  0.00  0.00    +0.000 OA
ATOM      4  C   UNL     1       1.289  11.920  19.360  0.00  0.00    +0.000 C 
ATOM      5  C   UNL     1       0.947  10.446  19.657  0.00  0.00    +0.000 C 
ATOM      6  C   UNL     1      -0.429  10.406  20.368  0.00  0.00    +0.000 C 
ENDROOT
BRANCH   2   7
ATOM      7  C   UNL     1      -1.822  13.406  19.892  0.00  0.00    +0.000 C 
ATOM      8  O   UNL     1      -1.340  14.495  20.190  0.00  0.00    +0.000 OA
ATOM      9  N   UNL     1      -3.027  12.956  20.423  0.00  0.00    +0.000 N 
ATOM     10  H   UNL     1      -3.422  12.090  20.064  0.00  0.00    +0.000 HD
BRANCH   9  11
ATOM     11  C   UNL     1      -3.757  13.663  21.466  0.00  0.00    +0.000 C 
BRANCH  11  12
ATOM     12  C   UNL     1      -5.163  13.133  21.744  0.00  0.00    +0.000 C 
BRANCH  12  13
ATOM     13  C   UNL     1      -5.966  12.911  20.474  0.00  0.00    +0.000 C 
ATOM     14 BR   UNL     1      -7.276  11.493  20.757  0.00  0.00    +0.000 Br
ENDBRANCH  12  13
ENDBRANCH  11  12
ENDBRANCH   9  11
ENDBRANCH   2   7
BRANCH   1  15
ATOM     15  O   UNL     1      -1.665   9.951  18.371  0.00  0.00    +0.000 OA
BRANCH  15  17
ATOM     16  C   UNL     1      -2.348   9.951  16.146  0.00  0.00    +0.000 C 
ATOM     17  C   UNL     1      -2.765  10.028  17.584  0.00  0.00    +0.000 C 
ATOM     18  O   UNL     1      -3.917  10.025  17.990  0.00  0.00    +0.000 OA
ENDBRANCH  15  17
ENDBRANCH   1  15
BRANCH   4  19
ATOM     19  O   UNL     1       1.626  12.530  20.617  0.00  0.00    +0.000 OA
BRANCH  19  20
ATOM     20  C   UNL     1       2.322  13.691  20.573  0.00  0.00    +0.000 C 
ATOM     21  C   UNL     1       1.848  14.625  21.652  0.00  0.00    +0.000 C 
ATOM     22  O   UNL     1       3.259  13.936  19.826  0.00  0.00    +0.000 OA
ENDBRANCH  19  20
ENDBRANCH   4  19
BRANCH   5  23
ATOM     23  O   UNL     1       0.886   9.655  18.429  0.00  0.00    +0.000 OA
BRANCH  23  24
ATOM     24  C   UNL     1       1.886   8.765  18.199  0.00  0.00    +0.000 C 
ATOM     25  C   UNL     1       2.062   7.816  19.355  0.00  0.00    +0.000 C 
ATOM     26  O   UNL     1       2.543   8.715  17.161  0.00  0.00    +0.000 OA
ENDBRANCH  23  24
ENDBRANCH   5  23
BRANCH   6  27
ATOM     27  O   UNL     1      -0.545  11.259  21.531  0.00  0.00    +0.000 OA
BRANCH  27  28
ATOM     28  C   UNL     1      -0.984  10.782  22.712  0.00  0.00    +0.000 C 
ATOM     29  C   UNL     1      -0.168   9.587  23.125  0.00  0.00    +0.000 C 
ATOM     30  O   UNL     1      -1.920  11.252  23.345  0.00  0.00    +0.000 OA
ENDBRANCH  27  28
ENDBRANCH   6  27
TORSDOF 12
ENDMDL
