MODEL 1
REMARK VINA RESULT:      -8.0      0.000      0.000
REMARK  Name = 
REMARK  7 active torsions:
REMARK  status: ('A' for Active; 'I' for Inactive)
REMARK    1  A    between atoms: C_2  and  C_3
REMARK    2  A    between atoms: C_3  and  O_4
REMARK    3  A    between atoms: O_4  and  C_5
REMARK    4  A    between atoms: N_12  and  N_13
REMARK    5  A    between atoms: C_14  and  C_15
REMARK    6  A    between atoms: C_15  and  C_16
REMARK    7  A    between atoms: C_16  and  C_17
REMARK                            x       y       z     vdW  Elec       q    Type
REMARK                         _______ _______ _______ _____ _____    ______ ____
ROOT
ATOM      1  O   UNL     1       4.953   6.745  16.143  0.00  0.00    +0.000 OA
ATOM      2  C   UNL     1       5.850   6.057  16.627  0.00  0.00    +0.000 C 
ATOM      3  N   UNL     1       7.032   6.553  17.174  0.00  0.00    +0.000 N 
ATOM      4  H   UNL     1       7.738   5.925  17.541  0.00  0.00    +0.000 HD
ENDROOT
BRANCH   3   5
ATOM      5  N   UNL     1       7.250   7.902  17.188  0.00  0.00    +0.000 NA
ATOM      6  C   UNL     1       8.176   8.334  17.979  0.00  0.00    +0.000 C 
BRANCH   6   7
ATOM      7  C   UNL     1       8.433   9.819  18.087  0.00  0.00    +0.000 C 
BRANCH   7   8
ATOM      8  C   UNL     1       9.299  10.158  19.296  0.00  0.00    +0.000 C 
BRANCH   8   9
ATOM      9  C   UNL     1      10.341  11.202  18.975  0.00  0.00    +0.000 A 
ATOM     10  C   UNL     1      10.343  11.870  17.739  0.00  0.00    +0.000 A 
ATOM     11  C   UNL     1      11.328  12.817  17.446  0.00  0.00    +0.000 A 
ATOM     12  C   UNL     1      12.323  13.107  18.379  0.00  0.00    +0.000 A 
ATOM     13  C   UNL     1      12.329  12.452  19.609  0.00  0.00    +0.000 A 
ATOM     14  C   UNL     1      11.347  11.505  19.903  0.00  0.00    +0.000 A 
ENDBRANCH   8   9
ENDBRANCH   7   8
ENDBRANCH   6   7
ENDBRANCH   3   5
BRANCH   2  15
ATOM     15  C   UNL     1       5.728   4.538  16.718  0.00  0.00    +0.000 C 
BRANCH  15  16
ATOM     16  O   UNL     1       4.410   4.103  16.405  0.00  0.00    +0.000 OA
BRANCH  16  17
ATOM     17  C   UNL     1       3.598   3.820  17.471  0.00  0.00    +0.000 A 
ATOM     18  C   UNL     1       2.254   4.187  17.589  0.00  0.00    +0.000 A 
ATOM     19  C   UNL     1       1.532   3.872  18.745  0.00  0.00    +0.000 A 
ATOM     20  C   UNL     1       2.150   3.183  19.785  0.00  0.00    +0.000 A 
ATOM     21 CL   UNL     1       1.260   2.816  21.210  0.00  0.00    +0.000 Cl
ATOM     22  C   UNL     1       3.484   2.797  19.675  0.00  0.00    +0.000 A 
ATOM     23  C   UNL     1       4.204   3.116  18.518  0.00  0.00    +0.000 A 
ENDBRANCH  16  17
ENDBRANCH  15  16
ENDBRANCH   2  15
TORSDOF 7
ENDMDL
MODEL 2
REMARK VINA RESULT:      -7.8      0.723      1.513
REMARK  Name = 
REMARK  7 active torsions:
REMARK  status: ('A' for Active; 'I' for Inactive)
REMARK    1  A    between atoms: C_2  and  C_3
REMARK    2  A    between atoms: C_3  and  O_4
REMARK    3  A    between atoms: O_4  and  C_5
REMARK    4  A    between atoms: N_12  and  N_13
REMARK    5  A    between atoms: C_14  and  C_15
REMARK    6  A    between atoms: C_15  and  C_16
REMARK    7  A    between atoms: C_16  and  C_17
REMARK                            x       y       z     vdW  Elec       q    Type
REMARK                         _______ _______ _______ _____ _____    ______ ____
ROOT
ATOM      1  O   UNL     1       6.765   5.980  15.202  0.00  0.00    +0.000 OA
ATOM      2  C   UNL     1       6.676   5.646  16.383  0.00  0.00    +0.000 C 
ATOM      3  N   UNL     1       6.911   6.484  17.472  0.00  0.00    +0.000 N 
ATOM      4  H   UNL     1       6.836   6.135  18.421  0.00  0.00    +0.000 HD
ENDROOT
BRANCH   3   5
ATOM      5  N   UNL     1       7.271   7.783  17.252  0.00  0.00    +0.000 NA
ATOM      6  C   UNL     1       8.130   8.296  18.070  0.00  0.00    +0.000 C 
BRANCH   6   7
ATOM      7  C   UNL     1       8.531   9.745  17.920  0.00  0.00    +0.000 C 
BRANCH   7   8
ATOM      8  C   UNL     1       9.146  10.298  19.201  0.00  0.00    +0.000 C 
BRANCH   8   9
ATOM      9  C   UNL     1      10.272  11.264  18.921  0.00  0.00    +0.000 A 
ATOM     10  C   UNL     1      11.290  11.486  19.865  0.00  0.00    +0.000 A 
ATOM     11  C   UNL     1      12.312  12.401  19.603  0.00  0.00    +0.000 A 
ATOM     12  C   UNL     1      12.332  13.107  18.400  0.00  0.00    +0.000 A 
ATOM     13  C   UNL     1      11.329  12.893  17.457  0.00  0.00    +0.000 A 
ATOM     14  C   UNL     1      10.306  11.980  17.717  0.00  0.00    +0.000 A 
ENDBRANCH   8   9
ENDBRANCH   7   8
ENDBRANCH   6   7
ENDBRANCH   3   5
BRANCH   2  15
ATOM     15  C   UNL     1       6.244   4.237  16.781  0.00  0.00    +0.000 C 
BRANCH  15  16
ATOM     16  O   UNL     1       4.881   3.998  16.448  0.00  0.00    +0.000 OA
BRANCH  16  17
ATOM     17  C   UNL     1       4.018   3.851  17.501  0.00  0.00    +0.000 A 
ATOM     18  C   UNL     1       4.322   4.100  18.842  0.00  0.00    +0.000 A 
ATOM     19  C   UNL     1       3.365   3.879  19.839  0.00  0.00    +0.000 A 
ATOM     20  C   UNL     1       2.098   3.413  19.496  0.00  0.00    +0.000 A 
ATOM     21 CL   UNL     1       0.934   3.128  20.729  0.00  0.00    +0.000 Cl
ATOM     22  C   UNL     1       1.776   3.176  18.163  0.00  0.00    +0.000 A 
ATOM     23  C   UNL     1       2.736   3.396  17.168  0.00  0.00    +0.000 A 
ENDBRANCH  16  17
ENDBRANCH  15  16
ENDBRANCH   2  15
TORSDOF 7
ENDMDL
MODEL 3
REMARK VINA RESULT:      -7.6      1.159      1.566
REMARK  Name = 
REMARK  7 active torsions:
REMARK  status: ('A' for Active; 'I' for Inactive)
REMARK    1  A    between atoms: C_2  and  C_3
REMARK    2  A    between atoms: C_3  and  O_4
REMARK    3  A    between atoms: O_4  and  C_5
REMARK    4  A    between atoms: N_12  and  N_13
REMARK    5  A    between atoms: C_14  and  C_15
REMARK    6  A    between atoms: C_15  and  C_16
REMARK    7  A    between atoms: C_16  and  C_17
REMARK                            x       y       z     vdW  Elec       q    Type
REMARK                         _______ _______ _______ _____ _____    ______ ____
ROOT
ATOM      1  O   UNL     1       7.756   4.727  16.502  0.00  0.00    +0.000 OA
ATOM      2  C   UNL     1       6.594   5.116  16.605  0.00  0.00    +0.000 C 
ATOM      3  N   UNL     1       6.172   6.175  17.406  0.00  0.00    +0.000 N 
ATOM      4  H   UNL     1       5.192   6.431  17.455  0.00  0.00    +0.000 HD
ENDROOT
BRANCH   3   5
ATOM      5  N   UNL     1       7.089   6.858  18.153  0.00  0.00    +0.000 NA
ATOM      6  C   UNL     1       7.533   7.967  17.660  0.00  0.00    +0.000 C 
BRANCH   6   7
ATOM      7  C   UNL     1       8.591   8.746  18.405  0.00  0.00    +0.000 C 
BRANCH   7   8
ATOM      8  C   UNL     1       8.597  10.218  18.008  0.00  0.00    +0.000 C 
BRANCH   8   9
ATOM      9  C   UNL     1       9.738  10.975  18.644  0.00  0.00    +0.000 A 
ATOM     10  C   UNL     1       9.796  11.169  20.034  0.00  0.00    +0.000 A 
ATOM     11  C   UNL     1      10.845  11.893  20.606  0.00  0.00    +0.000 A 
ATOM     12  C   UNL     1      11.847  12.433  19.800  0.00  0.00    +0.000 A 
ATOM     13  C   UNL     1      11.800  12.244  18.420  0.00  0.00    +0.000 A 
ATOM     14  C   UNL     1      10.753  11.523  17.847  0.00  0.00    +0.000 A 
ENDBRANCH   8   9
ENDBRANCH   7   8
ENDBRANCH   6   7
ENDBRANCH   3   5
BRANCH   2  15
ATOM     15  C   UNL     1       5.467   4.476  15.798  0.00  0.00    +0.000 C 
BRANCH  15  16
ATOM     16  O   UNL     1       4.971   3.305  16.437  0.00  0.00    +0.000 OA
BRANCH  16  17
ATOM     17  C   UNL     1       3.966   3.494  17.349  0.00  0.00    +0.000 A 
ATOM     18  C   UNL     1       2.647   3.841  17.045  0.00  0.00    +0.000 A 
ATOM     19  C   UNL     1       1.713   4.042  18.067  0.00  0.00    +0.000 A 
ATOM     20  C   UNL     1       2.094   3.892  19.397  0.00  0.00    +0.000 A 
ATOM     21 CL   UNL     1       0.944   4.159  20.648  0.00  0.00    +0.000 Cl
ATOM     22  C   UNL     1       3.401   3.531  19.715  0.00  0.00    +0.000 A 
ATOM     23  C   UNL     1       4.334   3.333  18.691  0.00  0.00    +0.000 A 
ENDBRANCH  16  17
ENDBRANCH  15  16
ENDBRANCH   2  15
TORSDOF 7
ENDMDL
MODEL 4
REMARK VINA RESULT:      -7.6      1.263      1.565
REMARK  Name = 
REMARK  7 active torsions:
REMARK  status: ('A' for Active; 'I' for Inactive)
REMARK    1  A    between atoms: C_2  and  C_3
REMARK    2  A    between atoms: C_3  and  O_4
REMARK    3  A    between atoms: O_4  and  C_5
REMARK    4  A    between atoms: N_12  and  N_13
REMARK    5  A    between atoms: C_14  and  C_15
REMARK    6  A    between atoms: C_15  and  C_16
REMARK    7  A    between atoms: C_16  and  C_17
REMARK                            x       y       z     vdW  Elec       q    Type
REMARK                         _______ _______ _______ _____ _____    ______ ____
ROOT
ATOM      1  O   UNL     1       7.554   5.429  14.901  0.00  0.00    +0.000 OA
ATOM      2  C   UNL     1       7.018   5.271  15.997  0.00  0.00    +0.000 C 
ATOM      3  N   UNL     1       7.067   6.183  17.050  0.00  0.00    +0.000 N 
ATOM      4  H   UNL     1       6.615   5.979  17.934  0.00  0.00    +0.000 HD
ENDROOT
BRANCH   3   5
ATOM      5  N   UNL     1       7.753   7.353  16.892  0.00  0.00    +0.000 NA
ATOM      6  C   UNL     1       7.655   8.220  17.846  0.00  0.00    +0.000 C 
BRANCH   6   7
ATOM      7  C   UNL     1       8.343   9.558  17.713  0.00  0.00    +0.000 C 
BRANCH   7   8
ATOM      8  C   UNL     1       9.121   9.924  18.973  0.00  0.00    +0.000 C 
BRANCH   8   9
ATOM      9  C   UNL     1       9.869  11.226  18.823  0.00  0.00    +0.000 A 
ATOM     10  C   UNL     1      11.154  11.263  18.256  0.00  0.00    +0.000 A 
ATOM     11  C   UNL     1      11.846  12.473  18.146  0.00  0.00    +0.000 A 
ATOM     12  C   UNL     1      11.266  13.657  18.601  0.00  0.00    +0.000 A 
ATOM     13  C   UNL     1       9.991  13.631  19.162  0.00  0.00    +0.000 A 
ATOM     14  C   UNL     1       9.300  12.424  19.274  0.00  0.00    +0.000 A 
ENDBRANCH   8   9
ENDBRANCH   7   8
ENDBRANCH   6   7
ENDBRANCH   3   5
BRANCH   2  15
ATOM     15  C   UNL     1       6.183   4.031  16.303  0.00  0.00    +0.000 C 
BRANCH  15  16
ATOM     16  O   UNL     1       4.804   4.254  16.034  0.00  0.00    +0.000 OA
BRANCH  16  17
ATOM     17  C   UNL     1       3.941   4.030  17.074  0.00  0.00    +0.000 A 
ATOM     18  C   UNL     1       3.649   2.783  17.634  0.00  0.00    +0.000 A 
ATOM     19  C   UNL     1       2.720   2.672  18.674  0.00  0.00    +0.000 A 
ATOM     20  C   UNL     1       2.083   3.811  19.162  0.00  0.00    +0.000 A 
ATOM     21 CL   UNL     1       0.929   3.664  20.429  0.00  0.00    +0.000 Cl
ATOM     22  C   UNL     1       2.375   5.062  18.624  0.00  0.00    +0.000 A 
ATOM     23  C   UNL     1       3.303   5.168  17.582  0.00  0.00    +0.000 A 
ENDBRANCH  16  17
ENDBRANCH  15  16
ENDBRANCH   2  15
TORSDOF 7
ENDMDL
MODEL 5
REMARK VINA RESULT:      -7.5      3.785     10.064
REMARK  Name = 
REMARK  7 active torsions:
REMARK  status: ('A' for Active; 'I' for Inactive)
REMARK    1  A    between atoms: C_2  and  C_3
REMARK    2  A    between atoms: C_3  and  O_4
REMARK    3  A    between atoms: O_4  and  C_5
REMARK    4  A    between atoms: N_12  and  N_13
REMARK    5  A    between atoms: C_14  and  C_15
REMARK    6  A    between atoms: C_15  and  C_16
REMARK    7  A    between atoms: C_16  and  C_17
REMARK                            x       y       z     vdW  Elec       q    Type
REMARK                         _______ _______ _______ _____ _____    ______ ____
ROOT
ATOM      1  O   UNL     1       8.051   6.764  18.669  0.00  0.00    +0.000 OA
ATOM      2  C   UNL     1       7.645   7.627  17.893  0.00  0.00    +0.000 C 
ATOM      3  N   UNL     1       6.604   7.459  16.982  0.00  0.00    +0.000 N 
ATOM      4  H   UNL     1       6.333   8.211  16.358  0.00  0.00    +0.000 HD
ENDROOT
BRANCH   3   5
ATOM      5  N   UNL     1       5.960   6.257  16.915  0.00  0.00    +0.000 NA
ATOM      6  C   UNL     1       5.860   5.713  15.747  0.00  0.00    +0.000 C 
BRANCH   6   7
ATOM      7  C   UNL     1       5.112   4.410  15.590  0.00  0.00    +0.000 C 
BRANCH   7   8
ATOM      8  C   UNL     1       5.129   3.589  16.876  0.00  0.00    +0.000 C 
BRANCH   8   9
ATOM      9  C   UNL     1       3.743   3.388  17.441  0.00  0.00    +0.000 A 
ATOM     10  C   UNL     1       2.805   4.434  17.451  0.00  0.00    +0.000 A 
ATOM     11  C   UNL     1       1.534   4.241  18.001  0.00  0.00    +0.000 A 
ATOM     12  C   UNL     1       1.185   3.006  18.547  0.00  0.00    +0.000 A 
ATOM     13  C   UNL     1       2.108   1.962  18.540  0.00  0.00    +0.000 A 
ATOM     14  C   UNL     1       3.377   2.153  17.993  0.00  0.00    +0.000 A 
ENDBRANCH   8   9
ENDBRANCH   7   8
ENDBRANCH   6   7
ENDBRANCH   3   5
BRANCH   2  15
ATOM     15  C   UNL     1       8.242   9.033  17.883  0.00  0.00    +0.000 C 
BRANCH  15  16
ATOM     16  O   UNL     1       8.937   9.311  19.092  0.00  0.00    +0.000 OA
BRANCH  16  17
ATOM     17  C   UNL     1       9.525  10.545  19.182  0.00  0.00    +0.000 A 
ATOM     18  C   UNL     1       9.979  11.309  18.104  0.00  0.00    +0.000 A 
ATOM     19  C   UNL     1      10.598  12.545  18.321  0.00  0.00    +0.000 A 
ATOM     20  C   UNL     1      10.760  13.023  19.619  0.00  0.00    +0.000 A 
ATOM     21 CL   UNL     1      11.538  14.534  19.879  0.00  0.00    +0.000 Cl
ATOM     22  C   UNL     1      10.298  12.280  20.702  0.00  0.00    +0.000 A 
ATOM     23  C   UNL     1       9.681  11.043  20.482  0.00  0.00    +0.000 A 
ENDBRANCH  16  17
ENDBRANCH  15  16
ENDBRANCH   2  15
TORSDOF 7
ENDMDL
MODEL 6
REMARK VINA RESULT:      -7.4      0.993      1.298
REMARK  Name = 
REMARK  7 active torsions:
REMARK  status: ('A' for Active; 'I' for Inactive)
REMARK    1  A    between atoms: C_2  and  C_3
REMARK    2  A    between atoms: C_3  and  O_4
REMARK    3  A    between atoms: O_4  and  C_5
REMARK    4  A    between atoms: N_12  and  N_13
REMARK    5  A    between atoms: C_14  and  C_15
REMARK    6  A    between atoms: C_15  and  C_16
REMARK    7  A    between atoms: C_16  and  C_17
REMARK                            x       y       z     vdW  Elec       q    Type
REMARK                         _______ _______ _______ _____ _____    ______ ____
ROOT
ATOM      1  O   UNL     1       6.817   6.139  15.752  0.00  0.00    +0.000 OA
ATOM      2  C   UNL     1       6.951   5.748  16.911  0.00  0.00    +0.000 C 
ATOM      3  N   UNL     1       7.310   6.552  17.991  0.00  0.00    +0.000 N 
ATOM      4  H   UNL     1       7.419   6.158  18.918  0.00  0.00    +0.000 HD
ENDROOT
BRANCH   3   5
ATOM      5  N   UNL     1       7.543   7.883  17.787  0.00  0.00    +0.000 NA
ATOM      6  C   UNL     1       8.425   8.443  18.548  0.00  0.00    +0.000 C 
BRANCH   6   7
ATOM      7  C   UNL     1       8.693   9.924  18.415  0.00  0.00    +0.000 C 
BRANCH   7   8
ATOM      8  C   UNL     1       9.670  10.421  19.476  0.00  0.00    +0.000 C 
BRANCH   8   9
ATOM      9  C   UNL     1      10.533  11.551  18.970  0.00  0.00    +0.000 A 
ATOM     10  C   UNL     1      10.395  12.040  17.660  0.00  0.00    +0.000 A 
ATOM     11  C   UNL     1      11.219  13.069  17.197  0.00  0.00    +0.000 A 
ATOM     12  C   UNL     1      12.189  13.622  18.032  0.00  0.00    +0.000 A 
ATOM     13  C   UNL     1      12.332  13.147  19.334  0.00  0.00    +0.000 A 
ATOM     14  C   UNL     1      11.512  12.117  19.798  0.00  0.00    +0.000 A 
ENDBRANCH   8   9
ENDBRANCH   7   8
ENDBRANCH   6   7
ENDBRANCH   3   5
BRANCH   2  15
ATOM     15  C   UNL     1       6.683   4.295  17.296  0.00  0.00    +0.000 C 
BRANCH  15  16
ATOM     16  O   UNL     1       5.399   3.869  16.857  0.00  0.00    +0.000 OA
BRANCH  16  17
ATOM     17  C   UNL     1       4.378   3.995  17.762  0.00  0.00    +0.000 A 
ATOM     18  C   UNL     1       4.515   4.410  19.089  0.00  0.00    +0.000 A 
ATOM     19  C   UNL     1       3.400   4.467  19.933  0.00  0.00    +0.000 A 
ATOM     20  C   UNL     1       2.143   4.114  19.449  0.00  0.00    +0.000 A 
ATOM     21 CL   UNL     1       0.781   4.169  20.498  0.00  0.00    +0.000 Cl
ATOM     22  C   UNL     1       1.989   3.714  18.124  0.00  0.00    +0.000 A 
ATOM     23  C   UNL     1       3.106   3.655  17.284  0.00  0.00    +0.000 A 
ENDBRANCH  16  17
ENDBRANCH  15  16
ENDBRANCH   2  15
TORSDOF 7
ENDMDL
MODEL 7
REMARK VINA RESULT:      -7.4      1.096      1.349
REMARK  Name = 
REMARK  7 active torsions:
REMARK  status: ('A' for Active; 'I' for Inactive)
REMARK    1  A    between atoms: C_2  and  C_3
REMARK    2  A    between atoms: C_3  and  O_4
REMARK    3  A    between atoms: O_4  and  C_5
REMARK    4  A    between atoms: N_12  and  N_13
REMARK    5  A    between atoms: C_14  and  C_15
REMARK    6  A    between atoms: C_15  and  C_16
REMARK    7  A    between atoms: C_16  and  C_17
REMARK                            x       y       z     vdW  Elec       q    Type
REMARK                         _______ _______ _______ _____ _____    ______ ____
ROOT
ATOM      1  O   UNL     1       7.997   4.436  16.725  0.00  0.00    +0.000 OA
ATOM      2  C   UNL     1       6.850   4.797  16.984  0.00  0.00    +0.000 C 
ATOM      3  N   UNL     1       6.516   5.915  17.746  0.00  0.00    +0.000 N 
ATOM      4  H   UNL     1       5.546   6.143  17.934  0.00  0.00    +0.000 HD
ENDROOT
BRANCH   3   5
ATOM      5  N   UNL     1       7.510   6.694  18.265  0.00  0.00    +0.000 NA
ATOM      6  C   UNL     1       7.635   7.883  17.774  0.00  0.00    +0.000 C 
BRANCH   6   7
ATOM      7  C   UNL     1       8.750   8.779  18.261  0.00  0.00    +0.000 C 
BRANCH   7   8
ATOM      8  C   UNL     1       8.414  10.255  18.071  0.00  0.00    +0.000 C 
BRANCH   8   9
ATOM      9  C   UNL     1       9.446  11.159  18.703  0.00  0.00    +0.000 A 
ATOM     10  C   UNL     1      10.239  12.014  17.919  0.00  0.00    +0.000 A 
ATOM     11  C   UNL     1      11.207  12.827  18.514  0.00  0.00    +0.000 A 
ATOM     12  C   UNL     1      11.397  12.796  19.895  0.00  0.00    +0.000 A 
ATOM     13  C   UNL     1      10.613  11.954  20.682  0.00  0.00    +0.000 A 
ATOM     14  C   UNL     1       9.647  11.140  20.089  0.00  0.00    +0.000 A 
ENDBRANCH   8   9
ENDBRANCH   7   8
ENDBRANCH   6   7
ENDBRANCH   3   5
BRANCH   2  15
ATOM     15  C   UNL     1       5.637   4.047  16.438  0.00  0.00    +0.000 C 
BRANCH  15  16
ATOM     16  O   UNL     1       4.439   4.788  16.631  0.00  0.00    +0.000 OA
BRANCH  16  17
ATOM     17  C   UNL     1       3.611   4.349  17.630  0.00  0.00    +0.000 A 
ATOM     18  C   UNL     1       2.299   4.780  17.847  0.00  0.00    +0.000 A 
ATOM     19  C   UNL     1       1.559   4.284  18.926  0.00  0.00    +0.000 A 
ATOM     20  C   UNL     1       2.128   3.352  19.790  0.00  0.00    +0.000 A 
ATOM     21 CL   UNL     1       1.218   2.761  21.124  0.00  0.00    +0.000 Cl
ATOM     22  C   UNL     1       3.429   2.902  19.577  0.00  0.00    +0.000 A 
ATOM     23  C   UNL     1       4.167   3.401  18.498  0.00  0.00    +0.000 A 
ENDBRANCH  16  17
ENDBRANCH  15  16
ENDBRANCH   2  15
TORSDOF 7
ENDMDL
MODEL 8
REMARK VINA RESULT:      -7.4      1.303      1.459
REMARK  Name = 
REMARK  7 active torsions:
REMARK  status: ('A' for Active; 'I' for Inactive)
REMARK    1  A    between atoms: C_2  and  C_3
REMARK    2  A    between atoms: C_3  and  O_4
REMARK    3  A    between atoms: O_4  and  C_5
REMARK    4  A    between atoms: N_12  and  N_13
REMARK    5  A    between atoms: C_14  and  C_15
REMARK    6  A    between atoms: C_15  and  C_16
REMARK    7  A    between atoms: C_16  and  C_17
REMARK                            x       y       z     vdW  Elec       q    Type
REMARK                         _______ _______ _______ _____ _____    ______ ____
ROOT
ATOM      1  O   UNL     1       7.686   5.652  14.879  0.00  0.00    +0.000 OA
ATOM      2  C   UNL     1       6.953   5.571  15.864  0.00  0.00    +0.000 C 
ATOM      3  N   UNL     1       6.965   6.452  16.944  0.00  0.00    +0.000 N 
ATOM      4  H   UNL     1       6.342   6.314  17.733  0.00  0.00    +0.000 HD
ENDROOT
BRANCH   3   5
ATOM      5  N   UNL     1       7.845   7.496  16.948  0.00  0.00    +0.000 NA
ATOM      6  C   UNL     1       7.616   8.448  17.792  0.00  0.00    +0.000 C 
BRANCH   6   7
ATOM      7  C   UNL     1       8.517   9.661  17.812  0.00  0.00    +0.000 C 
BRANCH   7   8
ATOM      8  C   UNL     1       9.230   9.815  19.152  0.00  0.00    +0.000 C 
BRANCH   8   9
ATOM      9  C   UNL     1       9.925  11.149  19.277  0.00  0.00    +0.000 A 
ATOM     10  C   UNL     1      11.258  11.314  18.866  0.00  0.00    +0.000 A 
ATOM     11  C   UNL     1      11.897  12.548  19.011  0.00  0.00    +0.000 A 
ATOM     12  C   UNL     1      11.216  13.631  19.568  0.00  0.00    +0.000 A 
ATOM     13  C   UNL     1       9.893  13.478  19.976  0.00  0.00    +0.000 A 
ATOM     14  C   UNL     1       9.254  12.246  19.834  0.00  0.00    +0.000 A 
ENDBRANCH   8   9
ENDBRANCH   7   8
ENDBRANCH   6   7
ENDBRANCH   3   5
BRANCH   2  15
ATOM     15  C   UNL     1       5.892   4.480  15.979  0.00  0.00    +0.000 C 
BRANCH  15  16
ATOM     16  O   UNL     1       5.838   3.945  17.296  0.00  0.00    +0.000 OA
BRANCH  16  17
ATOM     17  C   UNL     1       4.597   3.880  17.873  0.00  0.00    +0.000 A 
ATOM     18  C   UNL     1       3.381   3.861  17.184  0.00  0.00    +0.000 A 
ATOM     19  C   UNL     1       2.170   3.829  17.883  0.00  0.00    +0.000 A 
ATOM     20  C   UNL     1       2.171   3.812  19.276  0.00  0.00    +0.000 A 
ATOM     21 CL   UNL     1       0.678   3.792  20.128  0.00  0.00    +0.000 Cl
ATOM     22  C   UNL     1       3.375   3.816  19.975  0.00  0.00    +0.000 A 
ATOM     23  C   UNL     1       4.585   3.850  19.273  0.00  0.00    +0.000 A 
ENDBRANCH  16  17
ENDBRANCH  15  16
ENDBRANCH   2  15
TORSDOF 7
ENDMDL
MODEL 9
REMARK VINA RESULT:      -7.3      1.841      2.091
REMARK  Name = 
REMARK  7 active torsions:
REMARK  status: ('A' for Active; 'I' for Inactive)
REMARK    1  A    between atoms: C_2  and  C_3
REMARK    2  A    between atoms: C_3  and  O_4
REMARK    3  A    between atoms: O_4  and  C_5
REMARK    4  A    between atoms: N_12  and  N_13
REMARK    5  A    between atoms: C_14  and  C_15
REMARK    6  A    between atoms: C_15  and  C_16
REMARK    7  A    between atoms: C_16  and  C_17
REMARK                            x       y       z     vdW  Elec       q    Type
REMARK                         _______ _______ _______ _____ _____    ______ ____
ROOT
ATOM      1  O   UNL     1       6.634   4.327  18.843  0.00  0.00    +0.000 OA
ATOM      2  C   UNL     1       6.254   4.867  17.806  0.00  0.00    +0.000 C 
ATOM      3  N   UNL     1       6.678   6.114  17.350  0.00  0.00    +0.000 N 
ATOM      4  H   UNL     1       6.308   6.506  16.492  0.00  0.00    +0.000 HD
ENDROOT
BRANCH   3   5
ATOM      5  N   UNL     1       7.584   6.823  18.086  0.00  0.00    +0.000 NA
ATOM      6  C   UNL     1       7.740   8.068  17.775  0.00  0.00    +0.000 C 
BRANCH   6   7
ATOM      7  C   UNL     1       8.766   8.898  18.510  0.00  0.00    +0.000 C 
BRANCH   7   8
ATOM      8  C   UNL     1       8.688  10.371  18.121  0.00  0.00    +0.000 C 
BRANCH   8   9
ATOM      9  C   UNL     1       9.883  11.153  18.611  0.00  0.00    +0.000 A 
ATOM     10  C   UNL     1      10.804  11.711  17.709  0.00  0.00    +0.000 A 
ATOM     11  C   UNL     1      11.919  12.412  18.177  0.00  0.00    +0.000 A 
ATOM     12  C   UNL     1      12.130  12.562  19.547  0.00  0.00    +0.000 A 
ATOM     13  C   UNL     1      11.220  12.015  20.449  0.00  0.00    +0.000 A 
ATOM     14  C   UNL     1      10.107  11.314  19.984  0.00  0.00    +0.000 A 
ENDBRANCH   8   9
ENDBRANCH   7   8
ENDBRANCH   6   7
ENDBRANCH   3   5
BRANCH   2  15
ATOM     15  C   UNL     1       5.273   4.175  16.862  0.00  0.00    +0.000 C 
BRANCH  15  16
ATOM     16  O   UNL     1       4.100   3.755  17.547  0.00  0.00    +0.000 OA
BRANCH  16  17
ATOM     17  C   UNL     1       3.439   4.719  18.262  0.00  0.00    +0.000 A 
ATOM     18  C   UNL     1       3.144   6.007  17.808  0.00  0.00    +0.000 A 
ATOM     19  C   UNL     1       2.493   6.922  18.643  0.00  0.00    +0.000 A 
ATOM     20  C   UNL     1       2.131   6.548  19.935  0.00  0.00    +0.000 A 
ATOM     21 CL   UNL     1       1.347   7.684  20.961  0.00  0.00    +0.000 Cl
ATOM     22  C   UNL     1       2.405   5.263  20.395  0.00  0.00    +0.000 A 
ATOM     23  C   UNL     1       3.058   4.351  19.558  0.00  0.00    +0.000 A 
ENDBRANCH  16  17
ENDBRANCH  15  16
ENDBRANCH   2  15
TORSDOF 7
ENDMDL
