MODEL 1
REMARK VINA RESULT:      -6.8      0.000      0.000
REMARK  Name = 
REMARK  11 active torsions:
REMARK  status: ('A' for Active; 'I' for Inactive)
REMARK    1  A    between atoms: C_1  and  C_2
REMARK    2  A    between atoms: C_2  and  O_3
REMARK    3  A    between atoms: O_3  and  C_4
REMARK    4  A    between atoms: N_6  and  C_7
REMARK    5  A    between atoms: C_8  and  C_9
REMARK    6  A    between atoms: C_9  and  C_10
REMARK    7  A    between atoms: C_18  and  C_19
REMARK    8  A    between atoms: C_19  and  C_20
REMARK    9  A    between atoms: N_22  and  C_23
REMARK   10  A    between atoms: C_23  and  C_24
REMARK   11  A    between atoms: C_24  and  O_25
REMARK                            x       y       z     vdW  Elec       q    Type
REMARK                         _______ _______ _______ _____ _____    ______ ____
ROOT
ATOM      1  C   UNL     1       3.879   5.110  17.242  0.00  0.00    +0.000 A 
ATOM      2  C   UNL     1       5.247   5.036  17.057  0.00  0.00    +0.000 A 
ATOM      3  C   UNL     1       5.713   6.343  17.388  0.00  0.00    +0.000 A 
ATOM      4  N   UNL     1       4.718   7.148  17.765  0.00  0.00    +0.000 NA
ATOM      5  N   UNL     1       3.612   6.386  17.674  0.00  0.00    +0.000 N 
ENDROOT
BRANCH   1   8
ATOM      6  C   UNL     1       2.622   3.132  18.009  0.00  0.00    +0.000 C 
ATOM      7  O   UNL     1       1.839   2.260  17.683  0.00  0.00    +0.000 OA
ATOM      8  N   UNL     1       2.998   4.074  17.010  0.00  0.00    +0.000 N 
ATOM      9  H   UNL     1       2.411   4.075  16.186  0.00  0.00    +0.000 HD
BRANCH   6  10
ATOM     10  O   UNL     1       3.106   3.391  19.241  0.00  0.00    +0.000 OA
BRANCH  10  12
ATOM     11  C   UNL     1       1.290   3.306  20.854  0.00  0.00    +0.000 C 
ATOM     12  C   UNL     1       2.529   2.625  20.309  0.00  0.00    +0.000 C 
ENDBRANCH  10  12
ENDBRANCH   6  10
ENDBRANCH   1   8
BRANCH   3  13
ATOM     13  C   UNL     1       7.111   6.875  17.316  0.00  0.00    +0.000 C 
ATOM     14  C   UNL     1       7.901   6.597  18.585  0.00  0.00    +0.000 C 
ENDBRANCH   3  13
BRANCH   2  15
ATOM     15  C   UNL     1       6.064   3.899  16.542  0.00  0.00    +0.000 C 
BRANCH  15  16
ATOM     16  C   UNL     1       6.393   4.116  15.073  0.00  0.00    +0.000 A 
ATOM     17  C   UNL     1       7.466   4.883  14.585  0.00  0.00    +0.000 A 
ATOM     18  C   UNL     1       7.661   5.066  13.213  0.00  0.00    +0.000 A 
ATOM     19 CL   UNL     1       8.976   6.037  12.673  0.00  0.00    +0.000 Cl
ATOM     20  C   UNL     1       6.801   4.487  12.289  0.00  0.00    +0.000 A 
ATOM     21  C   UNL     1       5.744   3.714  12.751  0.00  0.00    +0.000 A 
ATOM     22 CL   UNL     1       4.669   2.983  11.622  0.00  0.00    +0.000 Cl
ATOM     23  C   UNL     1       5.535   3.529  14.123  0.00  0.00    +0.000 A 
ENDBRANCH  15  16
ENDBRANCH   2  15
BRANCH   5  24
ATOM     24  C   UNL     1       2.368   6.907  18.213  0.00  0.00    +0.000 C 
BRANCH  24  25
ATOM     25  C   UNL     1       2.171   6.590  19.691  0.00  0.00    +0.000 C 
BRANCH  25  26
ATOM     26  O   UNL     1       3.357   6.043  20.256  0.00  0.00    +0.000 OA
ATOM     27  H   UNL     1       4.031   6.037  19.552  0.00  0.00    +0.000 HD
ENDBRANCH  25  26
ENDBRANCH  24  25
ENDBRANCH   5  24
TORSDOF 9
ENDMDL
MODEL 2
REMARK VINA RESULT:      -6.7      0.956      2.057
REMARK  Name = 
REMARK  11 active torsions:
REMARK  status: ('A' for Active; 'I' for Inactive)
REMARK    1  A    between atoms: C_1  and  C_2
REMARK    2  A    between atoms: C_2  and  O_3
REMARK    3  A    between atoms: O_3  and  C_4
REMARK    4  A    between atoms: N_6  and  C_7
REMARK    5  A    between atoms: C_8  and  C_9
REMARK    6  A    between atoms: C_9  and  C_10
REMARK    7  A    between atoms: C_18  and  C_19
REMARK    8  A    between atoms: C_19  and  C_20
REMARK    9  A    between atoms: N_22  and  C_23
REMARK   10  A    between atoms: C_23  and  C_24
REMARK   11  A    between atoms: C_24  and  O_25
REMARK                            x       y       z     vdW  Elec       q    Type
REMARK                         _______ _______ _______ _____ _____    ______ ____
ROOT
ATOM      1  C   UNL     1       3.965   5.083  17.230  0.00  0.00    +0.000 A 
ATOM      2  C   UNL     1       5.339   5.110  17.073  0.00  0.00    +0.000 A 
ATOM      3  C   UNL     1       5.701   6.446  17.415  0.00  0.00    +0.000 A 
ATOM      4  N   UNL     1       4.641   7.175  17.772  0.00  0.00    +0.000 NA
ATOM      5  N   UNL     1       3.596   6.335  17.657  0.00  0.00    +0.000 N 
ENDROOT
BRANCH   1   8
ATOM      6  C   UNL     1       2.610   3.174  18.007  0.00  0.00    +0.000 C 
ATOM      7  O   UNL     1       1.925   2.231  17.660  0.00  0.00    +0.000 OA
ATOM      8  N   UNL     1       3.168   3.985  16.978  0.00  0.00    +0.000 N 
ATOM      9  H   UNL     1       2.762   3.846  16.062  0.00  0.00    +0.000 HD
BRANCH   6  10
ATOM     10  O   UNL     1       2.827   3.624  19.260  0.00  0.00    +0.000 OA
BRANCH  10  12
ATOM     11  C   UNL     1       2.282   3.091  21.568  0.00  0.00    +0.000 C 
ATOM     12  C   UNL     1       2.913   2.613  20.276  0.00  0.00    +0.000 C 
ENDBRANCH  10  12
ENDBRANCH   6  10
ENDBRANCH   1   8
BRANCH   3  13
ATOM     13  C   UNL     1       7.057   7.080  17.373  0.00  0.00    +0.000 C 
ATOM     14  C   UNL     1       7.920   6.676  18.557  0.00  0.00    +0.000 C 
ENDBRANCH   3  13
BRANCH   2  15
ATOM     15  C   UNL     1       6.247   4.038  16.574  0.00  0.00    +0.000 C 
BRANCH  15  16
ATOM     16  C   UNL     1       6.412   4.153  15.066  0.00  0.00    +0.000 A 
ATOM     17  C   UNL     1       5.626   3.483  14.111  0.00  0.00    +0.000 A 
ATOM     18  C   UNL     1       5.884   3.614  12.743  0.00  0.00    +0.000 A 
ATOM     19 CL   UNL     1       4.907   2.749  11.619  0.00  0.00    +0.000 Cl
ATOM     20  C   UNL     1       6.921   4.416  12.287  0.00  0.00    +0.000 A 
ATOM     21  C   UNL     1       7.698   5.098  13.215  0.00  0.00    +0.000 A 
ATOM     22 CL   UNL     1       8.985   6.102  12.670  0.00  0.00    +0.000 Cl
ATOM     23  C   UNL     1       7.453   4.970  14.588  0.00  0.00    +0.000 A 
ENDBRANCH  15  16
ENDBRANCH   2  15
BRANCH   5  24
ATOM     24  C   UNL     1       2.306   6.761  18.171  0.00  0.00    +0.000 C 
BRANCH  24  25
ATOM     25  C   UNL     1       2.261   8.239  18.541  0.00  0.00    +0.000 C 
BRANCH  25  26
ATOM     26  O   UNL     1       2.199   9.053  17.375  0.00  0.00    +0.000 OA
ATOM     27  H   UNL     1       1.789   8.514  16.674  0.00  0.00    +0.000 HD
ENDBRANCH  25  26
ENDBRANCH  24  25
ENDBRANCH   5  24
TORSDOF 9
ENDMDL
MODEL 3
REMARK VINA RESULT:      -6.7      0.540      1.963
REMARK  Name = 
REMARK  11 active torsions:
REMARK  status: ('A' for Active; 'I' for Inactive)
REMARK    1  A    between atoms: C_1  and  C_2
REMARK    2  A    between atoms: C_2  and  O_3
REMARK    3  A    between atoms: O_3  and  C_4
REMARK    4  A    between atoms: N_6  and  C_7
REMARK    5  A    between atoms: C_8  and  C_9
REMARK    6  A    between atoms: C_9  and  C_10
REMARK    7  A    between atoms: C_18  and  C_19
REMARK    8  A    between atoms: C_19  and  C_20
REMARK    9  A    between atoms: N_22  and  C_23
REMARK   10  A    between atoms: C_23  and  C_24
REMARK   11  A    between atoms: C_24  and  O_25
REMARK                            x       y       z     vdW  Elec       q    Type
REMARK                         _______ _______ _______ _____ _____    ______ ____
ROOT
ATOM      1  C   UNL     1       3.790   5.177  17.291  0.00  0.00    +0.000 A 
ATOM      2  C   UNL     1       5.160   5.139  17.099  0.00  0.00    +0.000 A 
ATOM      3  C   UNL     1       5.589   6.465  17.399  0.00  0.00    +0.000 A 
ATOM      4  N   UNL     1       4.573   7.249  17.766  0.00  0.00    +0.000 NA
ATOM      5  N   UNL     1       3.489   6.455  17.697  0.00  0.00    +0.000 N 
ENDROOT
BRANCH   1   8
ATOM      6  C   UNL     1       2.446   3.294  18.143  0.00  0.00    +0.000 C 
ATOM      7  O   UNL     1       1.703   2.381  17.836  0.00  0.00    +0.000 OA
ATOM      8  N   UNL     1       2.939   4.111  17.087  0.00  0.00    +0.000 N 
ATOM      9  H   UNL     1       2.453   4.006  16.206  0.00  0.00    +0.000 HD
BRANCH   6  10
ATOM     10  O   UNL     1       2.784   3.706  19.381  0.00  0.00    +0.000 OA
BRANCH  10  12
ATOM     11  C   UNL     1       4.504   2.128  20.056  0.00  0.00    +0.000 C 
ATOM     12  C   UNL     1       3.111   2.666  20.314  0.00  0.00    +0.000 C 
ENDBRANCH  10  12
ENDBRANCH   6  10
ENDBRANCH   1   8
BRANCH   3  13
ATOM     13  C   UNL     1       6.971   7.036  17.308  0.00  0.00    +0.000 C 
ATOM     14  C   UNL     1       7.849   6.614  18.474  0.00  0.00    +0.000 C 
ENDBRANCH   3  13
BRANCH   2  15
ATOM     15  C   UNL     1       6.007   4.016  16.604  0.00  0.00    +0.000 C 
BRANCH  15  16
ATOM     16  C   UNL     1       6.215   4.142  15.102  0.00  0.00    +0.000 A 
ATOM     17  C   UNL     1       5.414   3.536  14.118  0.00  0.00    +0.000 A 
ATOM     18  C   UNL     1       5.713   3.670  12.759  0.00  0.00    +0.000 A 
ATOM     19 CL   UNL     1       4.714   2.883  11.598  0.00  0.00    +0.000 Cl
ATOM     20  C   UNL     1       6.808   4.415  12.340  0.00  0.00    +0.000 A 
ATOM     21  C   UNL     1       7.601   5.034  13.298  0.00  0.00    +0.000 A 
ATOM     22 CL   UNL     1       8.960   5.966  12.800  0.00  0.00    +0.000 Cl
ATOM     23  C   UNL     1       7.316   4.902  14.662  0.00  0.00    +0.000 A 
ENDBRANCH  15  16
ENDBRANCH   2  15
BRANCH   5  24
ATOM     24  C   UNL     1       2.233   6.950  18.233  0.00  0.00    +0.000 C 
BRANCH  24  25
ATOM     25  C   UNL     1       2.321   7.358  19.698  0.00  0.00    +0.000 C 
BRANCH  25  26
ATOM     26  O   UNL     1       2.226   6.221  20.549  0.00  0.00    +0.000 OA
ATOM     27  H   UNL     1       1.412   5.746  20.299  0.00  0.00    +0.000 HD
ENDBRANCH  25  26
ENDBRANCH  24  25
ENDBRANCH   5  24
TORSDOF 9
ENDMDL
MODEL 4
REMARK VINA RESULT:      -6.6      3.953      6.831
REMARK  Name = 
REMARK  11 active torsions:
REMARK  status: ('A' for Active; 'I' for Inactive)
REMARK    1  A    between atoms: C_1  and  C_2
REMARK    2  A    between atoms: C_2  and  O_3
REMARK    3  A    between atoms: O_3  and  C_4
REMARK    4  A    between atoms: N_6  and  C_7
REMARK    5  A    between atoms: C_8  and  C_9
REMARK    6  A    between atoms: C_9  and  C_10
REMARK    7  A    between atoms: C_18  and  C_19
REMARK    8  A    between atoms: C_19  and  C_20
REMARK    9  A    between atoms: N_22  and  C_23
REMARK   10  A    between atoms: C_23  and  C_24
REMARK   11  A    between atoms: C_24  and  O_25
REMARK                            x       y       z     vdW  Elec       q    Type
REMARK                         _______ _______ _______ _____ _____    ______ ____
ROOT
ATOM      1  C   UNL     1       4.801   5.274  18.031  0.00  0.00    +0.000 A 
ATOM      2  C   UNL     1       3.598   4.881  18.591  0.00  0.00    +0.000 A 
ATOM      3  C   UNL     1       3.958   3.829  19.483  0.00  0.00    +0.000 A 
ATOM      4  N   UNL     1       5.274   3.607  19.489  0.00  0.00    +0.000 NA
ATOM      5  N   UNL     1       5.772   4.491  18.606  0.00  0.00    +0.000 N 
ENDROOT
BRANCH   1   8
ATOM      6  C   UNL     1       5.167   5.983  15.698  0.00  0.00    +0.000 C 
ATOM      7  O   UNL     1       5.273   6.937  14.951  0.00  0.00    +0.000 OA
ATOM      8  N   UNL     1       4.937   6.260  17.076  0.00  0.00    +0.000 N 
ATOM      9  H   UNL     1       4.655   7.210  17.276  0.00  0.00    +0.000 HD
BRANCH   6  10
ATOM     10  O   UNL     1       5.131   4.675  15.371  0.00  0.00    +0.000 OA
BRANCH  10  12
ATOM     11  C   UNL     1       6.147   3.796  13.345  0.00  0.00    +0.000 C 
ATOM     12  C   UNL     1       6.339   4.142  14.808  0.00  0.00    +0.000 C 
ENDBRANCH  10  12
ENDBRANCH   6  10
ENDBRANCH   1   8
BRANCH   3  13
ATOM     13  C   UNL     1       3.057   2.979  20.325  0.00  0.00    +0.000 C 
ATOM     14  C   UNL     1       2.469   3.746  21.498  0.00  0.00    +0.000 C 
ENDBRANCH   3  13
BRANCH   2  15
ATOM     15  C   UNL     1       2.220   5.361  18.283  0.00  0.00    +0.000 C 
BRANCH  15  16
ATOM     16  C   UNL     1       1.991   6.728  18.911  0.00  0.00    +0.000 A 
ATOM     17  C   UNL     1       1.642   6.957  20.254  0.00  0.00    +0.000 A 
ATOM     18  C   UNL     1       1.405   8.250  20.730  0.00  0.00    +0.000 A 
ATOM     19 CL   UNL     1       0.955   8.468  22.377  0.00  0.00    +0.000 Cl
ATOM     20  C   UNL     1       1.515   9.349  19.889  0.00  0.00    +0.000 A 
ATOM     21  C   UNL     1       1.874   9.145  18.563  0.00  0.00    +0.000 A 
ATOM     22 CL   UNL     1       2.020  10.495  17.505  0.00  0.00    +0.000 Cl
ATOM     23  C   UNL     1       2.108   7.854  18.074  0.00  0.00    +0.000 A 
ENDBRANCH  15  16
ENDBRANCH   2  15
BRANCH   5  24
ATOM     24  C   UNL     1       7.214   4.650  18.525  0.00  0.00    +0.000 C 
BRANCH  24  25
ATOM     25  C   UNL     1       7.739   5.820  19.348  0.00  0.00    +0.000 C 
BRANCH  25  26
ATOM     26  O   UNL     1       8.115   5.395  20.653  0.00  0.00    +0.000 OA
ATOM     27  H   UNL     1       7.604   4.588  20.848  0.00  0.00    +0.000 HD
ENDBRANCH  25  26
ENDBRANCH  24  25
ENDBRANCH   5  24
TORSDOF 9
ENDMDL
MODEL 5
REMARK VINA RESULT:      -6.5      3.953      6.770
REMARK  Name = 
REMARK  11 active torsions:
REMARK  status: ('A' for Active; 'I' for Inactive)
REMARK    1  A    between atoms: C_1  and  C_2
REMARK    2  A    between atoms: C_2  and  O_3
REMARK    3  A    between atoms: O_3  and  C_4
REMARK    4  A    between atoms: N_6  and  C_7
REMARK    5  A    between atoms: C_8  and  C_9
REMARK    6  A    between atoms: C_9  and  C_10
REMARK    7  A    between atoms: C_18  and  C_19
REMARK    8  A    between atoms: C_19  and  C_20
REMARK    9  A    between atoms: N_22  and  C_23
REMARK   10  A    between atoms: C_23  and  C_24
REMARK   11  A    between atoms: C_24  and  O_25
REMARK                            x       y       z     vdW  Elec       q    Type
REMARK                         _______ _______ _______ _____ _____    ______ ____
ROOT
ATOM      1  C   UNL     1       4.878   5.457  17.814  0.00  0.00    +0.000 A 
ATOM      2  C   UNL     1       3.697   5.076  18.425  0.00  0.00    +0.000 A 
ATOM      3  C   UNL     1       4.101   4.102  19.384  0.00  0.00    +0.000 A 
ATOM      4  N   UNL     1       5.422   3.914  19.380  0.00  0.00    +0.000 NA
ATOM      5  N   UNL     1       5.880   4.743  18.425  0.00  0.00    +0.000 N 
ENDROOT
BRANCH   1   8
ATOM      6  C   UNL     1       5.222   6.005  15.434  0.00  0.00    +0.000 C 
ATOM      7  O   UNL     1       5.284   6.904  14.617  0.00  0.00    +0.000 OA
ATOM      8  N   UNL     1       4.970   6.373  16.786  0.00  0.00    +0.000 N 
ATOM      9  H   UNL     1       4.639   7.320  16.913  0.00  0.00    +0.000 HD
BRANCH   6  10
ATOM     10  O   UNL     1       5.255   4.676  15.208  0.00  0.00    +0.000 OA
BRANCH  10  12
ATOM     11  C   UNL     1       6.087   3.670  13.158  0.00  0.00    +0.000 C 
ATOM     12  C   UNL     1       6.428   4.188  14.540  0.00  0.00    +0.000 C 
ENDBRANCH  10  12
ENDBRANCH   6  10
ENDBRANCH   1   8
BRANCH   3  13
ATOM     13  C   UNL     1       3.239   3.293  20.304  0.00  0.00    +0.000 C 
ATOM     14  C   UNL     1       2.454   2.221  19.566  0.00  0.00    +0.000 C 
ENDBRANCH   3  13
BRANCH   2  15
ATOM     15  C   UNL     1       2.300   5.497  18.112  0.00  0.00    +0.000 C 
BRANCH  15  16
ATOM     16  C   UNL     1       2.042   6.893  18.656  0.00  0.00    +0.000 A 
ATOM     17  C   UNL     1       2.162   8.087  17.921  0.00  0.00    +0.000 A 
ATOM     18  C   UNL     1       1.950   9.331  18.522  0.00  0.00    +0.000 A 
ATOM     19 CL   UNL     1       2.137  10.760  17.581  0.00  0.00    +0.000 Cl
ATOM     20  C   UNL     1       1.607   9.424  19.864  0.00  0.00    +0.000 A 
ATOM     21  C   UNL     1       1.469   8.256  20.603  0.00  0.00    +0.000 A 
ATOM     22 CL   UNL     1       1.039   8.349  22.267  0.00  0.00    +0.000 Cl
ATOM     23  C   UNL     1       1.684   7.004  20.013  0.00  0.00    +0.000 A 
ENDBRANCH  15  16
ENDBRANCH   2  15
BRANCH   5  24
ATOM     24  C   UNL     1       7.315   4.933  18.303  0.00  0.00    +0.000 C 
BRANCH  24  25
ATOM     25  C   UNL     1       7.883   5.914  19.321  0.00  0.00    +0.000 C 
BRANCH  25  26
ATOM     26  O   UNL     1       8.011   5.303  20.600  0.00  0.00    +0.000 OA
ATOM     27  H   UNL     1       7.503   4.471  20.569  0.00  0.00    +0.000 HD
ENDBRANCH  25  26
ENDBRANCH  24  25
ENDBRANCH   5  24
TORSDOF 9
ENDMDL
MODEL 6
REMARK VINA RESULT:      -6.3      1.662      4.137
REMARK  Name = 
REMARK  11 active torsions:
REMARK  status: ('A' for Active; 'I' for Inactive)
REMARK    1  A    between atoms: C_1  and  C_2
REMARK    2  A    between atoms: C_2  and  O_3
REMARK    3  A    between atoms: O_3  and  C_4
REMARK    4  A    between atoms: N_6  and  C_7
REMARK    5  A    between atoms: C_8  and  C_9
REMARK    6  A    between atoms: C_9  and  C_10
REMARK    7  A    between atoms: C_18  and  C_19
REMARK    8  A    between atoms: C_19  and  C_20
REMARK    9  A    between atoms: N_22  and  C_23
REMARK   10  A    between atoms: C_23  and  C_24
REMARK   11  A    between atoms: C_24  and  O_25
REMARK                            x       y       z     vdW  Elec       q    Type
REMARK                         _______ _______ _______ _____ _____    ______ ____
ROOT
ATOM      1  C   UNL     1       4.661   6.047  16.967  0.00  0.00    +0.000 A 
ATOM      2  C   UNL     1       4.610   4.672  16.831  0.00  0.00    +0.000 A 
ATOM      3  C   UNL     1       3.330   4.319  17.350  0.00  0.00    +0.000 A 
ATOM      4  N   UNL     1       2.641   5.390  17.752  0.00  0.00    +0.000 NA
ATOM      5  N   UNL     1       3.460   6.430  17.512  0.00  0.00    +0.000 N 
ENDROOT
BRANCH   1   8
ATOM      6  C   UNL     1       6.812   7.126  17.508  0.00  0.00    +0.000 C 
ATOM      7  O   UNL     1       7.708   7.831  17.084  0.00  0.00    +0.000 OA
ATOM      8  N   UNL     1       5.741   6.831  16.617  0.00  0.00    +0.000 N 
ATOM      9  H   UNL     1       5.928   7.041  15.646  0.00  0.00    +0.000 HD
BRANCH   6  10
ATOM     10  O   UNL     1       6.751   6.488  18.695  0.00  0.00    +0.000 OA
BRANCH  10  12
ATOM     11  C   UNL     1       8.116   4.542  18.190  0.00  0.00    +0.000 C 
ATOM     12  C   UNL     1       7.930   5.761  19.071  0.00  0.00    +0.000 C 
ENDBRANCH  10  12
ENDBRANCH   6  10
ENDBRANCH   1   8
BRANCH   3  13
ATOM     13  C   UNL     1       2.740   2.952  17.516  0.00  0.00    +0.000 C 
ATOM     14  C   UNL     1       1.690   2.906  18.614  0.00  0.00    +0.000 C 
ENDBRANCH   3  13
BRANCH   2  15
ATOM     15  C   UNL     1       5.667   3.737  16.347  0.00  0.00    +0.000 C 
BRANCH  15  16
ATOM     16  C   UNL     1       5.915   3.954  14.862  0.00  0.00    +0.000 A 
ATOM     17  C   UNL     1       5.129   3.426  13.822  0.00  0.00    +0.000 A 
ATOM     18  C   UNL     1       5.464   3.641  12.482  0.00  0.00    +0.000 A 
ATOM     19 CL   UNL     1       4.481   2.948  11.250  0.00  0.00    +0.000 Cl
ATOM     20  C   UNL     1       6.581   4.389  12.138  0.00  0.00    +0.000 A 
ATOM     21  C   UNL     1       7.361   4.932  13.152  0.00  0.00    +0.000 A 
ATOM     22 CL   UNL     1       8.748   5.868  12.747  0.00  0.00    +0.000 Cl
ATOM     23  C   UNL     1       7.039   4.719  14.498  0.00  0.00    +0.000 A 
ENDBRANCH  15  16
ENDBRANCH   2  15
BRANCH   5  24
ATOM     24  C   UNL     1       2.928   7.775  17.651  0.00  0.00    +0.000 C 
BRANCH  24  25
ATOM     25  C   UNL     1       2.139   7.982  18.937  0.00  0.00    +0.000 C 
BRANCH  25  26
ATOM     26  O   UNL     1       2.598   7.109  19.963  0.00  0.00    +0.000 OA
ATOM     27  H   UNL     1       3.566   7.210  20.009  0.00  0.00    +0.000 HD
ENDBRANCH  25  26
ENDBRANCH  24  25
ENDBRANCH   5  24
TORSDOF 9
ENDMDL
MODEL 7
REMARK VINA RESULT:      -6.3      1.586      2.409
REMARK  Name = 
REMARK  11 active torsions:
REMARK  status: ('A' for Active; 'I' for Inactive)
REMARK    1  A    between atoms: C_1  and  C_2
REMARK    2  A    between atoms: C_2  and  O_3
REMARK    3  A    between atoms: O_3  and  C_4
REMARK    4  A    between atoms: N_6  and  C_7
REMARK    5  A    between atoms: C_8  and  C_9
REMARK    6  A    between atoms: C_9  and  C_10
REMARK    7  A    between atoms: C_18  and  C_19
REMARK    8  A    between atoms: C_19  and  C_20
REMARK    9  A    between atoms: N_22  and  C_23
REMARK   10  A    between atoms: C_23  and  C_24
REMARK   11  A    between atoms: C_24  and  O_25
REMARK                            x       y       z     vdW  Elec       q    Type
REMARK                         _______ _______ _______ _____ _____    ______ ____
ROOT
ATOM      1  C   UNL     1       4.174   4.046  17.696  0.00  0.00    +0.000 A 
ATOM      2  C   UNL     1       5.116   4.885  17.129  0.00  0.00    +0.000 A 
ATOM      3  C   UNL     1       6.245   4.774  17.994  0.00  0.00    +0.000 A 
ATOM      4  N   UNL     1       6.024   3.922  18.997  0.00  0.00    +0.000 NA
ATOM      5  N   UNL     1       4.766   3.487  18.802  0.00  0.00    +0.000 N 
ENDROOT
BRANCH   1   8
ATOM      6  C   UNL     1       1.725   4.223  17.926  0.00  0.00    +0.000 C 
ATOM      7  O   UNL     1       0.655   4.002  17.392  0.00  0.00    +0.000 OA
ATOM      8  N   UNL     1       2.898   3.855  17.207  0.00  0.00    +0.000 N 
ATOM      9  H   UNL     1       2.749   3.656  16.227  0.00  0.00    +0.000 HD
BRANCH   6  10
ATOM     10  O   UNL     1       1.954   4.878  19.083  0.00  0.00    +0.000 OA
BRANCH  10  12
ATOM     11  C   UNL     1       1.350   3.488  20.983  0.00  0.00    +0.000 C 
ATOM     12  C   UNL     1       0.978   4.674  20.115  0.00  0.00    +0.000 C 
ENDBRANCH  10  12
ENDBRANCH   6  10
ENDBRANCH   1   8
BRANCH   3  13
ATOM     13  C   UNL     1       7.550   5.505  17.914  0.00  0.00    +0.000 C 
ATOM     14  C   UNL     1       7.990   6.048  19.264  0.00  0.00    +0.000 C 
ENDBRANCH   3  13
BRANCH   2  15
ATOM     15  C   UNL     1       4.982   5.782  15.945  0.00  0.00    +0.000 C 
BRANCH  15  16
ATOM     16  C   UNL     1       5.819   5.250  14.791  0.00  0.00    +0.000 A 
ATOM     17  C   UNL     1       7.095   5.719  14.430  0.00  0.00    +0.000 A 
ATOM     18  C   UNL     1       7.769   5.200  13.320  0.00  0.00    +0.000 A 
ATOM     19 CL   UNL     1       9.317   5.830  12.909  0.00  0.00    +0.000 Cl
ATOM     20  C   UNL     1       7.199   4.199  12.545  0.00  0.00    +0.000 A 
ATOM     21  C   UNL     1       5.946   3.713  12.895  0.00  0.00    +0.000 A 
ATOM     22 CL   UNL     1       5.223   2.469  11.949  0.00  0.00    +0.000 Cl
ATOM     23  C   UNL     1       5.258   4.229  14.000  0.00  0.00    +0.000 A 
ENDBRANCH  15  16
ENDBRANCH   2  15
BRANCH   5  24
ATOM     24  C   UNL     1       4.282   2.383  19.613  0.00  0.00    +0.000 C 
BRANCH  24  25
ATOM     25  C   UNL     1       3.851   1.174  18.792  0.00  0.00    +0.000 C 
BRANCH  25  26
ATOM     26  O   UNL     1       2.447   1.189  18.562  0.00  0.00    +0.000 OA
ATOM     27  H   UNL     1       2.292   1.762  17.789  0.00  0.00    +0.000 HD
ENDBRANCH  25  26
ENDBRANCH  24  25
ENDBRANCH   5  24
TORSDOF 9
ENDMDL
MODEL 8
REMARK VINA RESULT:      -6.3      1.592      3.014
REMARK  Name = 
REMARK  11 active torsions:
REMARK  status: ('A' for Active; 'I' for Inactive)
REMARK    1  A    between atoms: C_1  and  C_2
REMARK    2  A    between atoms: C_2  and  O_3
REMARK    3  A    between atoms: O_3  and  C_4
REMARK    4  A    between atoms: N_6  and  C_7
REMARK    5  A    between atoms: C_8  and  C_9
REMARK    6  A    between atoms: C_9  and  C_10
REMARK    7  A    between atoms: C_18  and  C_19
REMARK    8  A    between atoms: C_19  and  C_20
REMARK    9  A    between atoms: N_22  and  C_23
REMARK   10  A    between atoms: C_23  and  C_24
REMARK   11  A    between atoms: C_24  and  O_25
REMARK                            x       y       z     vdW  Elec       q    Type
REMARK                         _______ _______ _______ _____ _____    ______ ____
ROOT
ATOM      1  C   UNL     1       4.195   4.094  17.700  0.00  0.00    +0.000 A 
ATOM      2  C   UNL     1       5.146   4.946  17.167  0.00  0.00    +0.000 A 
ATOM      3  C   UNL     1       6.258   4.822  18.050  0.00  0.00    +0.000 A 
ATOM      4  N   UNL     1       6.021   3.951  19.034  0.00  0.00    +0.000 NA
ATOM      5  N   UNL     1       4.768   3.516  18.807  0.00  0.00    +0.000 N 
ENDROOT
BRANCH   1   8
ATOM      6  C   UNL     1       1.744   4.308  17.866  0.00  0.00    +0.000 C 
ATOM      7  O   UNL     1       0.685   4.089  17.310  0.00  0.00    +0.000 OA
ATOM      8  N   UNL     1       2.929   3.909  17.185  0.00  0.00    +0.000 N 
ATOM      9  H   UNL     1       2.802   3.689  16.206  0.00  0.00    +0.000 HD
BRANCH   6  10
ATOM     10  O   UNL     1       1.954   4.987  19.013  0.00  0.00    +0.000 OA
BRANCH  10  12
ATOM     11  C   UNL     1       1.559   3.730  21.055  0.00  0.00    +0.000 C 
ATOM     12  C   UNL     1       1.009   4.736  20.064  0.00  0.00    +0.000 C 
ENDBRANCH  10  12
ENDBRANCH   6  10
ENDBRANCH   1   8
BRANCH   3  13
ATOM     13  C   UNL     1       7.562   5.557  18.009  0.00  0.00    +0.000 C 
ATOM     14  C   UNL     1       8.126   5.812  19.397  0.00  0.00    +0.000 C 
ENDBRANCH   3  13
BRANCH   2  15
ATOM     15  C   UNL     1       5.031   5.864  15.997  0.00  0.00    +0.000 C 
BRANCH  15  16
ATOM     16  C   UNL     1       5.728   5.258  14.788  0.00  0.00    +0.000 A 
ATOM     17  C   UNL     1       5.213   4.222  13.989  0.00  0.00    +0.000 A 
ATOM     18  C   UNL     1       5.949   3.695  12.924  0.00  0.00    +0.000 A 
ATOM     19 CL   UNL     1       5.280   2.409  11.995  0.00  0.00    +0.000 Cl
ATOM     20  C   UNL     1       7.212   4.186  12.620  0.00  0.00    +0.000 A 
ATOM     21  C   UNL     1       7.731   5.220  13.389  0.00  0.00    +0.000 A 
ATOM     22 CL   UNL     1       9.293   5.847  13.025  0.00  0.00    +0.000 Cl
ATOM     23  C   UNL     1       7.005   5.752  14.461  0.00  0.00    +0.000 A 
ENDBRANCH  15  16
ENDBRANCH   2  15
BRANCH   5  24
ATOM     24  C   UNL     1       4.273   2.396  19.589  0.00  0.00    +0.000 C 
BRANCH  24  25
ATOM     25  C   UNL     1       3.834   1.212  18.736  0.00  0.00    +0.000 C 
BRANCH  25  26
ATOM     26  O   UNL     1       2.422   1.209  18.559  0.00  0.00    +0.000 OA
ATOM     27  H   UNL     1       2.255   1.042  17.613  0.00  0.00    +0.000 HD
ENDBRANCH  25  26
ENDBRANCH  24  25
ENDBRANCH   5  24
TORSDOF 9
ENDMDL
MODEL 9
REMARK VINA RESULT:      -6.1      3.877      7.050
REMARK  Name = 
REMARK  11 active torsions:
REMARK  status: ('A' for Active; 'I' for Inactive)
REMARK    1  A    between atoms: C_1  and  C_2
REMARK    2  A    between atoms: C_2  and  O_3
REMARK    3  A    between atoms: O_3  and  C_4
REMARK    4  A    between atoms: N_6  and  C_7
REMARK    5  A    between atoms: C_8  and  C_9
REMARK    6  A    between atoms: C_9  and  C_10
REMARK    7  A    between atoms: C_18  and  C_19
REMARK    8  A    between atoms: C_19  and  C_20
REMARK    9  A    between atoms: N_22  and  C_23
REMARK   10  A    between atoms: C_23  and  C_24
REMARK   11  A    between atoms: C_24  and  O_25
REMARK                            x       y       z     vdW  Elec       q    Type
REMARK                         _______ _______ _______ _____ _____    ______ ____
ROOT
ATOM      1  C   UNL     1       5.025   4.404  18.322  0.00  0.00    +0.000 A 
ATOM      2  C   UNL     1       3.739   4.552  18.810  0.00  0.00    +0.000 A 
ATOM      3  C   UNL     1       2.906   4.186  17.713  0.00  0.00    +0.000 A 
ATOM      4  N   UNL     1       3.619   3.823  16.644  0.00  0.00    +0.000 NA
ATOM      5  N   UNL     1       4.901   3.958  17.029  0.00  0.00    +0.000 N 
ENDROOT
BRANCH   1   8
ATOM      6  C   UNL     1       7.002   5.806  18.776  0.00  0.00    +0.000 C 
ATOM      7  O   UNL     1       7.990   5.940  19.473  0.00  0.00    +0.000 OA
ATOM      8  N   UNL     1       6.172   4.679  19.037  0.00  0.00    +0.000 N 
ATOM      9  H   UNL     1       6.348   4.218  19.920  0.00  0.00    +0.000 HD
BRANCH   6  10
ATOM     10  O   UNL     1       6.525   6.655  17.844  0.00  0.00    +0.000 OA
BRANCH  10  12
ATOM     11  C   UNL     1       7.764   8.746  17.794  0.00  0.00    +0.000 C 
ATOM     12  C   UNL     1       7.513   7.409  17.126  0.00  0.00    +0.000 C 
ENDBRANCH  10  12
ENDBRANCH   6  10
ENDBRANCH   1   8
BRANCH   3  13
ATOM     13  C   UNL     1       1.411   4.209  17.634  0.00  0.00    +0.000 C 
ATOM     14  C   UNL     1       0.771   3.128  18.489  0.00  0.00    +0.000 C 
ENDBRANCH   3  13
BRANCH   2  15
ATOM     15  C   UNL     1       3.293   5.064  20.139  0.00  0.00    +0.000 C 
BRANCH  15  16
ATOM     16  C   UNL     1       2.560   6.386  19.970  0.00  0.00    +0.000 A 
ATOM     17  C   UNL     1       2.720   7.270  18.887  0.00  0.00    +0.000 A 
ATOM     18  C   UNL     1       2.037   8.489  18.842  0.00  0.00    +0.000 A 
ATOM     19 CL   UNL     1       2.291   9.544  17.505  0.00  0.00    +0.000 Cl
ATOM     20  C   UNL     1       1.174   8.860  19.864  0.00  0.00    +0.000 A 
ATOM     21  C   UNL     1       0.992   7.994  20.935  0.00  0.00    +0.000 A 
ATOM     22 CL   UNL     1      -0.077   8.432  22.210  0.00  0.00    +0.000 Cl
ATOM     23  C   UNL     1       1.675   6.772  20.994  0.00  0.00    +0.000 A 
ENDBRANCH  15  16
ENDBRANCH   2  15
BRANCH   5  24
ATOM     24  C   UNL     1       5.943   3.445  16.157  0.00  0.00    +0.000 C 
BRANCH  24  25
ATOM     25  C   UNL     1       6.375   4.436  15.083  0.00  0.00    +0.000 C 
BRANCH  25  26
ATOM     26  O   UNL     1       7.702   4.893  15.317  0.00  0.00    +0.000 OA
ATOM     27  H   UNL     1       7.632   5.790  15.692  0.00  0.00    +0.000 HD
ENDBRANCH  25  26
ENDBRANCH  24  25
ENDBRANCH   5  24
TORSDOF 9
ENDMDL
