MODEL 1
REMARK VINA RESULT:      -8.8      0.000      0.000
REMARK  Name = 
REMARK  9 active torsions:
REMARK  status: ('A' for Active; 'I' for Inactive)
REMARK    1  A    between atoms: C_1  and  C_2
REMARK    2  A    between atoms: CA_4  and  C_5
REMARK    3  A    between atoms: C_5  and  OXT_7
REMARK    4  A    between atoms: C_8  and  C_9
REMARK    5  A    between atoms: C_10  and  C_11
REMARK    6  A    between atoms: N_13  and  C_14
REMARK    7  A    between atoms: C_20  and  O_21
REMARK    8  A    between atoms: O_21  and  C_22
REMARK    9  A    between atoms: C_22  and  C_23
REMARK                            x       y       z     vdW  Elec       q    Type
REMARK                         _______ _______ _______ _____ _____    ______ ____
ROOT
ATOM      1  C   UNL     1       3.886   2.705  18.557  0.00  0.00    +0.000 C 
ATOM      2  C   UNL     1       4.695   3.787  17.942  0.00  0.00    +0.000 A 
ATOM      3  N   UNL     1       5.226   3.644  16.691  0.00  0.00    +0.000 N 
ATOM      4  CA  UNL     1       5.938   4.767  16.303  0.00  0.00    +0.000 A 
ATOM      5  C   UNL     1       5.873   5.653  17.381  0.00  0.00    +0.000 A 
ATOM      6  C   UNL     1       5.026   5.051  18.376  0.00  0.00    +0.000 A 
ATOM      7  H   UNL     1       5.106   2.838  16.088  0.00  0.00    +0.000 HD
ENDROOT
BRANCH   4   8
ATOM      8  C   UNL     1       6.515   4.741  14.972  0.00  0.00    +0.000 C 
ATOM      9  O   UNL     1       5.948   4.241  14.010  0.00  0.00    +0.000 OA
BRANCH   8  10
ATOM     10  OXT UNL     1       7.735   5.302  14.853  0.00  0.00    +0.000 OA
ATOM     11  HXT UNL     1       7.939   5.987  15.508  0.00  0.00    +0.000 HD
ENDBRANCH   8  10
ENDBRANCH   4   8
BRANCH   5  12
ATOM     12  C   UNL     1       6.449   6.962  17.418  0.00  0.00    +0.000 C 
ATOM     13  C   UNL     1       7.672   7.280  17.881  0.00  0.00    +0.000 C 
BRANCH  13  14
ATOM     14  C   UNL     1       7.996   8.731  17.992  0.00  0.00    +0.000 C 
ATOM     15  O   UNL     1       7.438   9.526  17.246  0.00  0.00    +0.000 OA
ATOM     16  N   UNL     1       8.951   9.018  18.946  0.00  0.00    +0.000 N 
ATOM     17  H   UNL     1       9.416   8.255  19.418  0.00  0.00    +0.000 HD
BRANCH  16  18
ATOM     18  C   UNL     1       9.461  10.315  19.203  0.00  0.00    +0.000 A 
ATOM     19  C   UNL     1       9.384  10.936  20.453  0.00  0.00    +0.000 A 
ATOM     20  C   UNL     1       9.805  12.256  20.626  0.00  0.00    +0.000 A 
ATOM     21  C   UNL     1      10.319  12.969  19.548  0.00  0.00    +0.000 A 
ATOM     22  C   UNL     1      10.447  12.347  18.308  0.00  0.00    +0.000 A 
ATOM     23  C   UNL     1      10.039  11.019  18.138  0.00  0.00    +0.000 A 
ENDBRANCH  16  18
ENDBRANCH  13  14
ENDBRANCH   5  12
BRANCH   6  24
ATOM     24  O   UNL     1       4.545   5.500  19.564  0.00  0.00    +0.000 OA
BRANCH  24  25
ATOM     25  C   UNL     1       3.123   5.546  19.672  0.00  0.00    +0.000 C 
BRANCH  25  26
ATOM     26  C   UNL     1       2.534   6.890  19.340  0.00  0.00    +0.000 A 
ATOM     27  C   UNL     1       2.616   7.440  18.059  0.00  0.00    +0.000 A 
ATOM     28  C   UNL     1       2.055   8.693  17.802  0.00  0.00    +0.000 A 
ATOM     29  C   UNL     1       1.397   9.386  18.821  0.00  0.00    +0.000 A 
ATOM     30  C   UNL     1       1.282   8.830  20.093  0.00  0.00    +0.000 A 
ATOM     31  C   UNL     1       1.842   7.582  20.346  0.00  0.00    +0.000 A 
ENDBRANCH  25  26
ENDBRANCH  24  25
ENDBRANCH   6  24
TORSDOF 8
ENDMDL
MODEL 2
REMARK VINA RESULT:      -8.7      1.596      2.419
REMARK  Name = 
REMARK  9 active torsions:
REMARK  status: ('A' for Active; 'I' for Inactive)
REMARK    1  A    between atoms: C_1  and  C_2
REMARK    2  A    between atoms: CA_4  and  C_5
REMARK    3  A    between atoms: C_5  and  OXT_7
REMARK    4  A    between atoms: C_8  and  C_9
REMARK    5  A    between atoms: C_10  and  C_11
REMARK    6  A    between atoms: N_13  and  C_14
REMARK    7  A    between atoms: C_20  and  O_21
REMARK    8  A    between atoms: O_21  and  C_22
REMARK    9  A    between atoms: C_22  and  C_23
REMARK                            x       y       z     vdW  Elec       q    Type
REMARK                         _______ _______ _______ _____ _____    ______ ____
ROOT
ATOM      1  C   UNL     1       4.471   2.468  18.117  0.00  0.00    +0.000 C 
ATOM      2  C   UNL     1       5.241   3.602  17.544  0.00  0.00    +0.000 A 
ATOM      3  N   UNL     1       5.723   3.549  16.266  0.00  0.00    +0.000 N 
ATOM      4  CA  UNL     1       6.403   4.707  15.926  0.00  0.00    +0.000 A 
ATOM      5  C   UNL     1       6.370   5.518  17.062  0.00  0.00    +0.000 A 
ATOM      6  C   UNL     1       5.572   4.840  18.047  0.00  0.00    +0.000 A 
ATOM      7  H   UNL     1       5.589   2.783  15.616  0.00  0.00    +0.000 HD
ENDROOT
BRANCH   4   8
ATOM      8  C   UNL     1       6.927   4.778  14.574  0.00  0.00    +0.000 C 
ATOM      9  O   UNL     1       7.834   5.532  14.250  0.00  0.00    +0.000 OA
BRANCH   8  10
ATOM     10  OXT UNL     1       6.343   3.957  13.679  0.00  0.00    +0.000 OA
ATOM     11  HXT UNL     1       5.436   3.693  13.892  0.00  0.00    +0.000 HD
ENDBRANCH   8  10
ENDBRANCH   4   8
BRANCH   5  12
ATOM     12  C   UNL     1       6.930   6.831  17.163  0.00  0.00    +0.000 C 
ATOM     13  C   UNL     1       7.813   7.251  18.088  0.00  0.00    +0.000 C 
BRANCH  13  14
ATOM     14  C   UNL     1       8.123   8.709  18.114  0.00  0.00    +0.000 C 
ATOM     15  O   UNL     1       7.613   9.442  17.277  0.00  0.00    +0.000 OA
ATOM     16  N   UNL     1       9.011   9.072  19.107  0.00  0.00    +0.000 N 
ATOM     17  H   UNL     1       9.446   8.350  19.663  0.00  0.00    +0.000 HD
BRANCH  16  18
ATOM     18  C   UNL     1       9.497  10.389  19.302  0.00  0.00    +0.000 A 
ATOM     19  C   UNL     1      10.075  11.152  18.282  0.00  0.00    +0.000 A 
ATOM     20  C   UNL     1      10.635  12.402  18.550  0.00  0.00    +0.000 A 
ATOM     21  C   UNL     1      10.614  12.910  19.845  0.00  0.00    +0.000 A 
ATOM     22  C   UNL     1       9.999  12.182  20.862  0.00  0.00    +0.000 A 
ATOM     23  C   UNL     1       9.424  10.935  20.589  0.00  0.00    +0.000 A 
ENDBRANCH  16  18
ENDBRANCH  13  14
ENDBRANCH   5  12
BRANCH   6  24
ATOM     24  O   UNL     1       5.133   5.201  19.281  0.00  0.00    +0.000 OA
BRANCH  24  25
ATOM     25  C   UNL     1       3.855   5.835  19.316  0.00  0.00    +0.000 C 
BRANCH  25  26
ATOM     26  C   UNL     1       2.716   4.887  19.581  0.00  0.00    +0.000 A 
ATOM     27  C   UNL     1       1.841   4.479  18.571  0.00  0.00    +0.000 A 
ATOM     28  C   UNL     1       0.799   3.599  18.868  0.00  0.00    +0.000 A 
ATOM     29  C   UNL     1       0.643   3.114  20.169  0.00  0.00    +0.000 A 
ATOM     30  C   UNL     1       1.532   3.489  21.173  0.00  0.00    +0.000 A 
ATOM     31  C   UNL     1       2.569   4.366  20.875  0.00  0.00    +0.000 A 
ENDBRANCH  25  26
ENDBRANCH  24  25
ENDBRANCH   6  24
TORSDOF 8
ENDMDL
MODEL 3
REMARK VINA RESULT:      -8.6      3.162      6.288
REMARK  Name = 
REMARK  9 active torsions:
REMARK  status: ('A' for Active; 'I' for Inactive)
REMARK    1  A    between atoms: C_1  and  C_2
REMARK    2  A    between atoms: CA_4  and  C_5
REMARK    3  A    between atoms: C_5  and  OXT_7
REMARK    4  A    between atoms: C_8  and  C_9
REMARK    5  A    between atoms: C_10  and  C_11
REMARK    6  A    between atoms: N_13  and  C_14
REMARK    7  A    between atoms: C_20  and  O_21
REMARK    8  A    between atoms: O_21  and  C_22
REMARK    9  A    between atoms: C_22  and  C_23
REMARK                            x       y       z     vdW  Elec       q    Type
REMARK                         _______ _______ _______ _____ _____    ______ ____
ROOT
ATOM      1  C   UNL     1       6.223   3.567  14.689  0.00  0.00    +0.000 C 
ATOM      2  C   UNL     1       5.935   4.451  15.846  0.00  0.00    +0.000 A 
ATOM      3  N   UNL     1       6.828   5.410  16.237  0.00  0.00    +0.000 N 
ATOM      4  CA  UNL     1       6.367   6.127  17.329  0.00  0.00    +0.000 A 
ATOM      5  C   UNL     1       5.129   5.570  17.657  0.00  0.00    +0.000 A 
ATOM      6  C   UNL     1       4.838   4.565  16.670  0.00  0.00    +0.000 A 
ATOM      7  H   UNL     1       7.713   5.611  15.785  0.00  0.00    +0.000 HD
ENDROOT
BRANCH   4   8
ATOM      8  C   UNL     1       7.220   7.199  17.807  0.00  0.00    +0.000 C 
ATOM      9  O   UNL     1       8.061   7.042  18.681  0.00  0.00    +0.000 OA
BRANCH   8  10
ATOM     10  OXT UNL     1       7.026   8.401  17.228  0.00  0.00    +0.000 OA
ATOM     11  HXT UNL     1       7.111   9.162  17.821  0.00  0.00    +0.000 HD
ENDBRANCH   8  10
ENDBRANCH   4   8
BRANCH   5  12
ATOM     12  C   UNL     1       4.271   6.015  18.712  0.00  0.00    +0.000 C 
ATOM     13  C   UNL     1       2.958   6.293  18.606  0.00  0.00    +0.000 C 
BRANCH  13  14
ATOM     14  C   UNL     1       2.301   6.916  19.791  0.00  0.00    +0.000 C 
ATOM     15  O   UNL     1       2.194   6.266  20.824  0.00  0.00    +0.000 OA
ATOM     16  N   UNL     1       1.846   8.199  19.566  0.00  0.00    +0.000 N 
ATOM     17  H   UNL     1       1.898   8.580  18.632  0.00  0.00    +0.000 HD
BRANCH  16  18
ATOM     18  C   UNL     1       1.145   8.978  20.521  0.00  0.00    +0.000 A 
ATOM     19  C   UNL     1       1.219   8.750  21.899  0.00  0.00    +0.000 A 
ATOM     20  C   UNL     1       0.426   9.476  22.789  0.00  0.00    +0.000 A 
ATOM     21  C   UNL     1      -0.445  10.450  22.311  0.00  0.00    +0.000 A 
ATOM     22  C   UNL     1      -0.492  10.721  20.945  0.00  0.00    +0.000 A 
ATOM     23  C   UNL     1       0.314  10.003  20.054  0.00  0.00    +0.000 A 
ENDBRANCH  16  18
ENDBRANCH  13  14
ENDBRANCH   5  12
BRANCH   6  24
ATOM     24  O   UNL     1       3.748   3.788  16.446  0.00  0.00    +0.000 OA
BRANCH  24  25
ATOM     25  C   UNL     1       3.694   2.575  17.197  0.00  0.00    +0.000 C 
BRANCH  25  26
ATOM     26  C   UNL     1       2.913   2.691  18.478  0.00  0.00    +0.000 A 
ATOM     27  C   UNL     1       3.530   2.633  19.731  0.00  0.00    +0.000 A 
ATOM     28  C   UNL     1       2.760   2.743  20.890  0.00  0.00    +0.000 A 
ATOM     29  C   UNL     1       1.379   2.928  20.797  0.00  0.00    +0.000 A 
ATOM     30  C   UNL     1       0.761   3.020  19.552  0.00  0.00    +0.000 A 
ATOM     31  C   UNL     1       1.530   2.909  18.399  0.00  0.00    +0.000 A 
ENDBRANCH  25  26
ENDBRANCH  24  25
ENDBRANCH   6  24
TORSDOF 8
ENDMDL
MODEL 4
REMARK VINA RESULT:      -8.4      3.239      6.262
REMARK  Name = 
REMARK  9 active torsions:
REMARK  status: ('A' for Active; 'I' for Inactive)
REMARK    1  A    between atoms: C_1  and  C_2
REMARK    2  A    between atoms: CA_4  and  C_5
REMARK    3  A    between atoms: C_5  and  OXT_7
REMARK    4  A    between atoms: C_8  and  C_9
REMARK    5  A    between atoms: C_10  and  C_11
REMARK    6  A    between atoms: N_13  and  C_14
REMARK    7  A    between atoms: C_20  and  O_21
REMARK    8  A    between atoms: O_21  and  C_22
REMARK    9  A    between atoms: C_22  and  C_23
REMARK                            x       y       z     vdW  Elec       q    Type
REMARK                         _______ _______ _______ _____ _____    ______ ____
ROOT
ATOM      1  C   UNL     1       5.954   3.293  14.830  0.00  0.00    +0.000 C 
ATOM      2  C   UNL     1       5.697   4.255  15.932  0.00  0.00    +0.000 A 
ATOM      3  N   UNL     1       6.624   5.201  16.269  0.00  0.00    +0.000 N 
ATOM      4  CA  UNL     1       6.187   5.999  17.314  0.00  0.00    +0.000 A 
ATOM      5  C   UNL     1       4.927   5.509  17.668  0.00  0.00    +0.000 A 
ATOM      6  C   UNL     1       4.602   4.459  16.741  0.00  0.00    +0.000 A 
ATOM      7  H   UNL     1       7.517   5.342  15.810  0.00  0.00    +0.000 HD
ENDROOT
BRANCH   4   8
ATOM      8  C   UNL     1       7.078   7.065  17.731  0.00  0.00    +0.000 C 
ATOM      9  O   UNL     1       7.079   8.174  17.213  0.00  0.00    +0.000 OA
BRANCH   8  10
ATOM     10  OXT UNL     1       7.923   6.760  18.735  0.00  0.00    +0.000 OA
ATOM     11  HXT UNL     1       7.700   5.959  19.233  0.00  0.00    +0.000 HD
ENDBRANCH   8  10
ENDBRANCH   4   8
BRANCH   5  12
ATOM     12  C   UNL     1       4.083   6.048  18.690  0.00  0.00    +0.000 C 
ATOM     13  C   UNL     1       2.917   6.694  18.501  0.00  0.00    +0.000 C 
BRANCH  13  14
ATOM     14  C   UNL     1       2.295   7.330  19.697  0.00  0.00    +0.000 C 
ATOM     15  O   UNL     1       2.425   6.797  20.792  0.00  0.00    +0.000 OA
ATOM     16  N   UNL     1       1.591   8.483  19.412  0.00  0.00    +0.000 N 
ATOM     17  H   UNL     1       1.467   8.755  18.448  0.00  0.00    +0.000 HD
BRANCH  16  18
ATOM     18  C   UNL     1       0.871   9.238  20.373  0.00  0.00    +0.000 A 
ATOM     19  C   UNL     1       0.897  10.635  20.425  0.00  0.00    +0.000 A 
ATOM     20  C   UNL     1       0.257  11.326  21.456  0.00  0.00    +0.000 A 
ATOM     21  C   UNL     1      -0.426  10.625  22.443  0.00  0.00    +0.000 A 
ATOM     22  C   UNL     1      -0.501   9.235  22.377  0.00  0.00    +0.000 A 
ATOM     23  C   UNL     1       0.128   8.543  21.334  0.00  0.00    +0.000 A 
ENDBRANCH  16  18
ENDBRANCH  13  14
ENDBRANCH   5  12
BRANCH   6  24
ATOM     24  O   UNL     1       3.483   3.711  16.558  0.00  0.00    +0.000 OA
BRANCH  24  25
ATOM     25  C   UNL     1       3.367   2.566  17.402  0.00  0.00    +0.000 C 
BRANCH  25  26
ATOM     26  C   UNL     1       2.676   2.845  18.710  0.00  0.00    +0.000 A 
ATOM     27  C   UNL     1       1.383   3.371  18.768  0.00  0.00    +0.000 A 
ATOM     28  C   UNL     1       0.787   3.615  20.006  0.00  0.00    +0.000 A 
ATOM     29  C   UNL     1       1.476   3.316  21.184  0.00  0.00    +0.000 A 
ATOM     30  C   UNL     1       2.752   2.761  21.134  0.00  0.00    +0.000 A 
ATOM     31  C   UNL     1       3.344   2.520  19.900  0.00  0.00    +0.000 A 
ENDBRANCH  25  26
ENDBRANCH  24  25
ENDBRANCH   6  24
TORSDOF 8
ENDMDL
MODEL 5
REMARK VINA RESULT:      -8.3      1.597      2.167
REMARK  Name = 
REMARK  9 active torsions:
REMARK  status: ('A' for Active; 'I' for Inactive)
REMARK    1  A    between atoms: C_1  and  C_2
REMARK    2  A    between atoms: CA_4  and  C_5
REMARK    3  A    between atoms: C_5  and  OXT_7
REMARK    4  A    between atoms: C_8  and  C_9
REMARK    5  A    between atoms: C_10  and  C_11
REMARK    6  A    between atoms: N_13  and  C_14
REMARK    7  A    between atoms: C_20  and  O_21
REMARK    8  A    between atoms: O_21  and  C_22
REMARK    9  A    between atoms: C_22  and  C_23
REMARK                            x       y       z     vdW  Elec       q    Type
REMARK                         _______ _______ _______ _____ _____    ______ ____
ROOT
ATOM      1  C   UNL     1       4.531   2.469  18.219  0.00  0.00    +0.000 C 
ATOM      2  C   UNL     1       5.274   3.614  17.635  0.00  0.00    +0.000 A 
ATOM      3  N   UNL     1       5.751   3.564  16.355  0.00  0.00    +0.000 N 
ATOM      4  CA  UNL     1       6.406   4.733  16.005  0.00  0.00    +0.000 A 
ATOM      5  C   UNL     1       6.360   5.551  17.136  0.00  0.00    +0.000 A 
ATOM      6  C   UNL     1       5.580   4.862  18.128  0.00  0.00    +0.000 A 
ATOM      7  H   UNL     1       5.631   2.790  15.711  0.00  0.00    +0.000 HD
ENDROOT
BRANCH   4   8
ATOM      8  C   UNL     1       6.922   4.805  14.650  0.00  0.00    +0.000 C 
ATOM      9  O   UNL     1       6.434   4.182  13.717  0.00  0.00    +0.000 OA
BRANCH   8  10
ATOM     10  OXT UNL     1       7.991   5.607  14.475  0.00  0.00    +0.000 OA
ATOM     11  HXT UNL     1       8.499   5.445  13.666  0.00  0.00    +0.000 HD
ENDBRANCH   8  10
ENDBRANCH   4   8
BRANCH   5  12
ATOM     12  C   UNL     1       6.892   6.876  17.225  0.00  0.00    +0.000 C 
ATOM     13  C   UNL     1       7.762   7.324  18.150  0.00  0.00    +0.000 C 
BRANCH  13  14
ATOM     14  C   UNL     1       8.042   8.788  18.162  0.00  0.00    +0.000 C 
ATOM     15  O   UNL     1       7.343   9.535  17.488  0.00  0.00    +0.000 OA
ATOM     16  N   UNL     1       9.121   9.142  18.946  0.00  0.00    +0.000 N 
ATOM     17  H   UNL     1       9.683   8.415  19.363  0.00  0.00    +0.000 HD
BRANCH  16  18
ATOM     18  C   UNL     1       9.613  10.466  19.077  0.00  0.00    +0.000 A 
ATOM     19  C   UNL     1       9.353  11.273  20.189  0.00  0.00    +0.000 A 
ATOM     20  C   UNL     1       9.770  12.605  20.221  0.00  0.00    +0.000 A 
ATOM     21  C   UNL     1      10.465  13.143  19.142  0.00  0.00    +0.000 A 
ATOM     22  C   UNL     1      10.774  12.336  18.050  0.00  0.00    +0.000 A 
ATOM     23  C   UNL     1      10.368  10.996  18.024  0.00  0.00    +0.000 A 
ENDBRANCH  16  18
ENDBRANCH  13  14
ENDBRANCH   5  12
BRANCH   6  24
ATOM     24  O   UNL     1       5.140   5.223  19.361  0.00  0.00    +0.000 OA
BRANCH  24  25
ATOM     25  C   UNL     1       3.856   5.846  19.396  0.00  0.00    +0.000 C 
BRANCH  25  26
ATOM     26  C   UNL     1       2.720   4.881  19.601  0.00  0.00    +0.000 A 
ATOM     27  C   UNL     1       1.906   4.459  18.547  0.00  0.00    +0.000 A 
ATOM     28  C   UNL     1       0.863   3.563  18.790  0.00  0.00    +0.000 A 
ATOM     29  C   UNL     1       0.645   3.078  20.082  0.00  0.00    +0.000 A 
ATOM     30  C   UNL     1       1.472   3.469  21.131  0.00  0.00    +0.000 A 
ATOM     31  C   UNL     1       2.511   4.361  20.887  0.00  0.00    +0.000 A 
ENDBRANCH  25  26
ENDBRANCH  24  25
ENDBRANCH   6  24
TORSDOF 8
ENDMDL
MODEL 6
REMARK VINA RESULT:      -8.2      1.170      1.467
REMARK  Name = 
REMARK  9 active torsions:
REMARK  status: ('A' for Active; 'I' for Inactive)
REMARK    1  A    between atoms: C_1  and  C_2
REMARK    2  A    between atoms: CA_4  and  C_5
REMARK    3  A    between atoms: C_5  and  OXT_7
REMARK    4  A    between atoms: C_8  and  C_9
REMARK    5  A    between atoms: C_10  and  C_11
REMARK    6  A    between atoms: N_13  and  C_14
REMARK    7  A    between atoms: C_20  and  O_21
REMARK    8  A    between atoms: O_21  and  C_22
REMARK    9  A    between atoms: C_22  and  C_23
REMARK                            x       y       z     vdW  Elec       q    Type
REMARK                         _______ _______ _______ _____ _____    ______ ____
ROOT
ATOM      1  C   UNL     1       2.794   3.638  17.524  0.00  0.00    +0.000 C 
ATOM      2  C   UNL     1       4.006   4.495  17.498  0.00  0.00    +0.000 A 
ATOM      3  N   UNL     1       5.234   3.967  17.210  0.00  0.00    +0.000 N 
ATOM      4  CA  UNL     1       6.226   4.934  17.231  0.00  0.00    +0.000 A 
ATOM      5  C   UNL     1       5.589   6.128  17.577  0.00  0.00    +0.000 A 
ATOM      6  C   UNL     1       4.181   5.850  17.670  0.00  0.00    +0.000 A 
ATOM      7  H   UNL     1       5.419   2.998  16.979  0.00  0.00    +0.000 HD
ENDROOT
BRANCH   4   8
ATOM      8  C   UNL     1       7.568   4.492  16.902  0.00  0.00    +0.000 C 
ATOM      9  O   UNL     1       8.365   4.099  17.742  0.00  0.00    +0.000 OA
BRANCH   8  10
ATOM     10  OXT UNL     1       7.895   4.545  15.595  0.00  0.00    +0.000 OA
ATOM     11  HXT UNL     1       7.173   4.348  14.981  0.00  0.00    +0.000 HD
ENDBRANCH   8  10
ENDBRANCH   4   8
BRANCH   5  12
ATOM     12  C   UNL     1       6.224   7.405  17.693  0.00  0.00    +0.000 C 
ATOM     13  C   UNL     1       7.549   7.641  17.666  0.00  0.00    +0.000 C 
BRANCH  13  14
ATOM     14  C   UNL     1       7.996   9.026  17.987  0.00  0.00    +0.000 C 
ATOM     15  O   UNL     1       7.556   9.962  17.331  0.00  0.00    +0.000 OA
ATOM     16  N   UNL     1       8.916   9.091  19.014  0.00  0.00    +0.000 N 
ATOM     17  H   UNL     1       9.282   8.232  19.398  0.00  0.00    +0.000 HD
BRANCH  16  18
ATOM     18  C   UNL     1       9.526  10.288  19.467  0.00  0.00    +0.000 A 
ATOM     19  C   UNL     1       9.282  10.843  20.727  0.00  0.00    +0.000 A 
ATOM     20  C   UNL     1       9.824  12.080  21.083  0.00  0.00    +0.000 A 
ATOM     21  C   UNL     1      10.627  12.772  20.183  0.00  0.00    +0.000 A 
ATOM     22  C   UNL     1      10.919  12.208  18.943  0.00  0.00    +0.000 A 
ATOM     23  C   UNL     1      10.387  10.961  18.592  0.00  0.00    +0.000 A 
ENDBRANCH  16  18
ENDBRANCH  13  14
ENDBRANCH   5  12
BRANCH   6  24
ATOM     24  O   UNL     1       3.101   6.645  17.878  0.00  0.00    +0.000 OA
BRANCH  24  25
ATOM     25  C   UNL     1       2.669   6.751  19.234  0.00  0.00    +0.000 C 
BRANCH  25  26
ATOM     26  C   UNL     1       1.904   8.012  19.530  0.00  0.00    +0.000 A 
ATOM     27  C   UNL     1       1.673   8.985  18.554  0.00  0.00    +0.000 A 
ATOM     28  C   UNL     1       0.959  10.140  18.879  0.00  0.00    +0.000 A 
ATOM     29  C   UNL     1       0.462  10.313  20.173  0.00  0.00    +0.000 A 
ATOM     30  C   UNL     1       0.660   9.333  21.142  0.00  0.00    +0.000 A 
ATOM     31  C   UNL     1       1.371   8.184  20.816  0.00  0.00    +0.000 A 
ENDBRANCH  25  26
ENDBRANCH  24  25
ENDBRANCH   6  24
TORSDOF 8
ENDMDL
MODEL 7
REMARK VINA RESULT:      -8.2      4.269      6.646
REMARK  Name = 
REMARK  9 active torsions:
REMARK  status: ('A' for Active; 'I' for Inactive)
REMARK    1  A    between atoms: C_1  and  C_2
REMARK    2  A    between atoms: CA_4  and  C_5
REMARK    3  A    between atoms: C_5  and  OXT_7
REMARK    4  A    between atoms: C_8  and  C_9
REMARK    5  A    between atoms: C_10  and  C_11
REMARK    6  A    between atoms: N_13  and  C_14
REMARK    7  A    between atoms: C_20  and  O_21
REMARK    8  A    between atoms: O_21  and  C_22
REMARK    9  A    between atoms: C_22  and  C_23
REMARK                            x       y       z     vdW  Elec       q    Type
REMARK                         _______ _______ _______ _____ _____    ______ ____
ROOT
ATOM      1  C   UNL     1       1.088   8.290  21.624  0.00  0.00    +0.000 C 
ATOM      2  C   UNL     1       1.749   7.390  20.645  0.00  0.00    +0.000 A 
ATOM      3  N   UNL     1       1.906   6.058  20.910  0.00  0.00    +0.000 N 
ATOM      4  CA  UNL     1       2.537   5.398  19.868  0.00  0.00    +0.000 A 
ATOM      5  C   UNL     1       2.816   6.375  18.910  0.00  0.00    +0.000 A 
ATOM      6  C   UNL     1       2.248   7.609  19.381  0.00  0.00    +0.000 A 
ATOM      7  H   UNL     1       1.584   5.580  21.744  0.00  0.00    +0.000 HD
ENDROOT
BRANCH   4   8
ATOM      8  C   UNL     1       2.722   3.967  20.025  0.00  0.00    +0.000 C 
ATOM      9  O   UNL     1       1.798   3.197  20.248  0.00  0.00    +0.000 OA
BRANCH   8  10
ATOM     10  OXT UNL     1       3.991   3.527  19.916  0.00  0.00    +0.000 OA
ATOM     11  HXT UNL     1       4.394   3.221  20.742  0.00  0.00    +0.000 HD
ENDBRANCH   8  10
ENDBRANCH   4   8
BRANCH   5  12
ATOM     12  C   UNL     1       3.444   6.143  17.645  0.00  0.00    +0.000 C 
ATOM     13  C   UNL     1       4.761   6.233  17.382  0.00  0.00    +0.000 C 
BRANCH  13  14
ATOM     14  C   UNL     1       5.173   6.127  15.953  0.00  0.00    +0.000 C 
ATOM     15  O   UNL     1       5.109   7.121  15.239  0.00  0.00    +0.000 OA
ATOM     16  N   UNL     1       5.571   4.859  15.580  0.00  0.00    +0.000 N 
ATOM     17  H   UNL     1       5.470   4.101  16.239  0.00  0.00    +0.000 HD
BRANCH  16  18
ATOM     18  C   UNL     1       5.959   4.498  14.265  0.00  0.00    +0.000 A 
ATOM     19  C   UNL     1       5.176   3.697  13.427  0.00  0.00    +0.000 A 
ATOM     20  C   UNL     1       5.652   3.282  12.182  0.00  0.00    +0.000 A 
ATOM     21  C   UNL     1       6.917   3.674  11.755  0.00  0.00    +0.000 A 
ATOM     22  C   UNL     1       7.688   4.511  12.558  0.00  0.00    +0.000 A 
ATOM     23  C   UNL     1       7.204   4.940  13.801  0.00  0.00    +0.000 A 
ENDBRANCH  16  18
ENDBRANCH  13  14
ENDBRANCH   5  12
BRANCH   6  24
ATOM     24  O   UNL     1       2.137   8.841  18.821  0.00  0.00    +0.000 OA
BRANCH  24  25
ATOM     25  C   UNL     1       1.059   9.000  17.898  0.00  0.00    +0.000 C 
BRANCH  25  26
ATOM     26  C   UNL     1       0.062  10.050  18.307  0.00  0.00    +0.000 A 
ATOM     27  C   UNL     1       0.385  11.070  19.205  0.00  0.00    +0.000 A 
ATOM     28  C   UNL     1      -0.578  12.019  19.555  0.00  0.00    +0.000 A 
ATOM     29  C   UNL     1      -1.856  11.957  18.993  0.00  0.00    +0.000 A 
ATOM     30  C   UNL     1      -2.175  10.963  18.072  0.00  0.00    +0.000 A 
ATOM     31  C   UNL     1      -1.215  10.019  17.726  0.00  0.00    +0.000 A 
ENDBRANCH  25  26
ENDBRANCH  24  25
ENDBRANCH   6  24
TORSDOF 8
ENDMDL
MODEL 8
REMARK VINA RESULT:      -8.1      0.868      1.635
REMARK  Name = 
REMARK  9 active torsions:
REMARK  status: ('A' for Active; 'I' for Inactive)
REMARK    1  A    between atoms: C_1  and  C_2
REMARK    2  A    between atoms: CA_4  and  C_5
REMARK    3  A    between atoms: C_5  and  OXT_7
REMARK    4  A    between atoms: C_8  and  C_9
REMARK    5  A    between atoms: C_10  and  C_11
REMARK    6  A    between atoms: N_13  and  C_14
REMARK    7  A    between atoms: C_20  and  O_21
REMARK    8  A    between atoms: O_21  and  C_22
REMARK    9  A    between atoms: C_22  and  C_23
REMARK                            x       y       z     vdW  Elec       q    Type
REMARK                         _______ _______ _______ _____ _____    ______ ____
ROOT
ATOM      1  C   UNL     1       2.703   3.622  18.143  0.00  0.00    +0.000 C 
ATOM      2  C   UNL     1       3.861   4.425  17.675  0.00  0.00    +0.000 A 
ATOM      3  N   UNL     1       4.735   3.925  16.750  0.00  0.00    +0.000 N 
ATOM      4  CA  UNL     1       5.736   4.833  16.447  0.00  0.00    +0.000 A 
ATOM      5  C   UNL     1       5.492   5.953  17.245  0.00  0.00    +0.000 A 
ATOM      6  C   UNL     1       4.267   5.709  17.958  0.00  0.00    +0.000 A 
ATOM      7  H   UNL     1       4.666   3.017  16.305  0.00  0.00    +0.000 HD
ENDROOT
BRANCH   4   8
ATOM      8  C   UNL     1       6.701   4.422  15.445  0.00  0.00    +0.000 C 
ATOM      9  O   UNL     1       7.800   4.947  15.323  0.00  0.00    +0.000 OA
BRANCH   8  10
ATOM     10  OXT UNL     1       6.312   3.415  14.638  0.00  0.00    +0.000 OA
ATOM     11  HXT UNL     1       5.422   3.506  14.266  0.00  0.00    +0.000 HD
ENDBRANCH   8  10
ENDBRANCH   4   8
BRANCH   5  12
ATOM     12  C   UNL     1       6.264   7.157  17.246  0.00  0.00    +0.000 C 
ATOM     13  C   UNL     1       7.435   7.352  17.882  0.00  0.00    +0.000 C 
BRANCH  13  14
ATOM     14  C   UNL     1       7.974   8.742  17.896  0.00  0.00    +0.000 C 
ATOM     15  O   UNL     1       7.702   9.496  16.970  0.00  0.00    +0.000 OA
ATOM     16  N   UNL     1       8.774   9.018  18.986  0.00  0.00    +0.000 N 
ATOM     17  H   UNL     1       9.010   8.270  19.622  0.00  0.00    +0.000 HD
BRANCH  16  18
ATOM     18  C   UNL     1       9.441  10.251  19.196  0.00  0.00    +0.000 A 
ATOM     19  C   UNL     1       9.972  11.022  18.157  0.00  0.00    +0.000 A 
ATOM     20  C   UNL     1      10.712  12.175  18.426  0.00  0.00    +0.000 A 
ATOM     21  C   UNL     1      10.922  12.576  19.741  0.00  0.00    +0.000 A 
ATOM     22  C   UNL     1      10.357  11.845  20.783  0.00  0.00    +0.000 A 
ATOM     23  C   UNL     1       9.602  10.697  20.513  0.00  0.00    +0.000 A 
ENDBRANCH  16  18
ENDBRANCH  13  14
ENDBRANCH   5  12
BRANCH   6  24
ATOM     24  O   UNL     1       3.519   6.482  18.787  0.00  0.00    +0.000 OA
BRANCH  24  25
ATOM     25  C   UNL     1       2.695   7.454  18.142  0.00  0.00    +0.000 C 
BRANCH  25  26
ATOM     26  C   UNL     1       1.842   8.251  19.093  0.00  0.00    +0.000 A 
ATOM     27  C   UNL     1       1.252   9.461  18.722  0.00  0.00    +0.000 A 
ATOM     28  C   UNL     1       0.471  10.164  19.642  0.00  0.00    +0.000 A 
ATOM     29  C   UNL     1       0.267   9.648  20.923  0.00  0.00    +0.000 A 
ATOM     30  C   UNL     1       0.825   8.426  21.289  0.00  0.00    +0.000 A 
ATOM     31  C   UNL     1       1.602   7.728  20.372  0.00  0.00    +0.000 A 
ENDBRANCH  25  26
ENDBRANCH  24  25
ENDBRANCH   6  24
TORSDOF 8
ENDMDL
MODEL 9
REMARK VINA RESULT:      -8.1      3.181      6.051
REMARK  Name = 
REMARK  9 active torsions:
REMARK  status: ('A' for Active; 'I' for Inactive)
REMARK    1  A    between atoms: C_1  and  C_2
REMARK    2  A    between atoms: CA_4  and  C_5
REMARK    3  A    between atoms: C_5  and  OXT_7
REMARK    4  A    between atoms: C_8  and  C_9
REMARK    5  A    between atoms: C_10  and  C_11
REMARK    6  A    between atoms: N_13  and  C_14
REMARK    7  A    between atoms: C_20  and  O_21
REMARK    8  A    between atoms: O_21  and  C_22
REMARK    9  A    between atoms: C_22  and  C_23
REMARK                            x       y       z     vdW  Elec       q    Type
REMARK                         _______ _______ _______ _____ _____    ______ ____
ROOT
ATOM      1  C   UNL     1       5.952   3.221  15.330  0.00  0.00    +0.000 C 
ATOM      2  C   UNL     1       5.683   4.385  16.212  0.00  0.00    +0.000 A 
ATOM      3  N   UNL     1       6.670   5.283  16.510  0.00  0.00    +0.000 N 
ATOM      4  CA  UNL     1       6.211   6.293  17.340  0.00  0.00    +0.000 A 
ATOM      5  C   UNL     1       4.871   5.997  17.597  0.00  0.00    +0.000 A 
ATOM      6  C   UNL     1       4.534   4.834  16.822  0.00  0.00    +0.000 A 
ATOM      7  H   UNL     1       7.620   5.253  16.159  0.00  0.00    +0.000 HD
ENDROOT
BRANCH   4   8
ATOM      8  C   UNL     1       7.167   7.327  17.691  0.00  0.00    +0.000 C 
ATOM      9  O   UNL     1       7.182   8.429  17.160  0.00  0.00    +0.000 OA
BRANCH   8  10
ATOM     10  OXT UNL     1       8.058   6.998  18.648  0.00  0.00    +0.000 OA
ATOM     11  HXT UNL     1       8.988   7.082  18.391  0.00  0.00    +0.000 HD
ENDBRANCH   8  10
ENDBRANCH   4   8
BRANCH   5  12
ATOM     12  C   UNL     1       3.983   6.789  18.393  0.00  0.00    +0.000 C 
ATOM     13  C   UNL     1       2.764   7.227  18.028  0.00  0.00    +0.000 C 
BRANCH  13  14
ATOM     14  C   UNL     1       2.089   8.189  18.946  0.00  0.00    +0.000 C 
ATOM     15  O   UNL     1       2.003   7.917  20.137  0.00  0.00    +0.000 OA
ATOM     16  N   UNL     1       1.593   9.310  18.311  0.00  0.00    +0.000 N 
ATOM     17  H   UNL     1       1.632   9.359  17.303  0.00  0.00    +0.000 HD
BRANCH  16  18
ATOM     18  C   UNL     1       0.869  10.341  18.960  0.00  0.00    +0.000 A 
ATOM     19  C   UNL     1      -0.447  10.188  19.410  0.00  0.00    +0.000 A 
ATOM     20  C   UNL     1      -1.151  11.267  19.946  0.00  0.00    +0.000 A 
ATOM     21  C   UNL     1      -0.543  12.514  20.048  0.00  0.00    +0.000 A 
ATOM     22  C   UNL     1       0.783  12.669  19.649  0.00  0.00    +0.000 A 
ATOM     23  C   UNL     1       1.494  11.583  19.125  0.00  0.00    +0.000 A 
ENDBRANCH  16  18
ENDBRANCH  13  14
ENDBRANCH   5  12
BRANCH   6  24
ATOM     24  O   UNL     1       3.364   4.176  16.616  0.00  0.00    +0.000 OA
BRANCH  24  25
ATOM     25  C   UNL     1       3.199   2.971  17.364  0.00  0.00    +0.000 C 
BRANCH  25  26
ATOM     26  C   UNL     1       2.618   3.184  18.735  0.00  0.00    +0.000 A 
ATOM     27  C   UNL     1       1.431   3.892  18.936  0.00  0.00    +0.000 A 
ATOM     28  C   UNL     1       0.935   4.065  20.229  0.00  0.00    +0.000 A 
ATOM     29  C   UNL     1       1.615   3.514  21.318  0.00  0.00    +0.000 A 
ATOM     30  C   UNL     1       2.781   2.778  21.123  0.00  0.00    +0.000 A 
ATOM     31  C   UNL     1       3.274   2.608  19.834  0.00  0.00    +0.000 A 
ENDBRANCH  25  26
ENDBRANCH  24  25
ENDBRANCH   6  24
TORSDOF 8
ENDMDL
