MODEL 1
REMARK VINA RESULT:      -7.9      0.000      0.000
REMARK  Name = 
REMARK  11 active torsions:
REMARK  status: ('A' for Active; 'I' for Inactive)
REMARK    1  A    between atoms: C_1  and  O_2
REMARK    2  A    between atoms: O_2  and  C_3
REMARK    3  A    between atoms: C_3  and  C_4
REMARK    4  A    between atoms: C_4  and  N_5
REMARK    5  A    between atoms: C_4  and  C_6
REMARK    6  A    between atoms: C_6  and  N_7
REMARK    7  A    between atoms: N_7  and  C_8
REMARK    8  A    between atoms: C_11  and  C_12
REMARK    9  A    between atoms: C_15  and  N_16
REMARK   10  A    between atoms: C_19  and  C_20
REMARK   11  A    between atoms: C_22  and  C_23
REMARK                            x       y       z     vdW  Elec       q    Type
REMARK                         _______ _______ _______ _____ _____    ______ ____
ROOT
ATOM      1  C   UNL     1       5.944   4.333  14.545  0.00  0.00    +0.000 A 
ATOM      2  C   UNL     1       6.985   5.238  14.750  0.00  0.00    +0.000 A 
ATOM      3  N   UNL     1       7.460   5.624  15.956  0.00  0.00    +0.000 NA
ATOM      4  C   UNL     1       6.821   5.103  17.047  0.00  0.00    +0.000 A 
ATOM      5  C   UNL     1       5.724   4.229  16.993  0.00  0.00    +0.000 A 
ATOM      6  C   UNL     1       5.312   3.855  15.702  0.00  0.00    +0.000 A 
ENDROOT
BRANCH   5   7
ATOM      7  N   UNL     1       5.124   3.690  18.161  0.00  0.00    +0.000 N 
ATOM      8  C   UNL     1       4.120   4.268  18.965  0.00  0.00    +0.000 A 
ATOM      9  C   UNL     1       3.600   3.524  20.022  0.00  0.00    +0.000 A 
ATOM     10  C   UNL     1       2.563   4.051  20.799  0.00  0.00    +0.000 A 
ATOM     11  C   UNL     1       1.983   3.285  21.949  0.00  0.00    +0.000 C 
ATOM     12  C   UNL     1       2.065   5.313  20.478  0.00  0.00    +0.000 A 
ATOM     13  C   UNL     1       2.625   5.999  19.410  0.00  0.00    +0.000 A 
ATOM     14  C   UNL     1       2.120   7.342  18.984  0.00  0.00    +0.000 C 
ATOM     15  N   UNL     1       3.633   5.490  18.670  0.00  0.00    +0.000 NA
ATOM     16  H   UNL     1       5.812   3.196  18.739  0.00  0.00    +0.000 HD
ENDBRANCH   5   7
BRANCH   4  17
ATOM     17  C   UNL     1       7.365   5.581  18.369  0.00  0.00    +0.000 C 
ATOM     18  N   UNL     1       7.874   6.853  18.365  0.00  0.00    +0.000 N 
ATOM     19  O   UNL     1       7.348   4.897  19.386  0.00  0.00    +0.000 OA
ATOM     20  H   UNL     1       7.822   7.399  17.512  0.00  0.00    +0.000 HD
ATOM     21  H   UNL     1       8.215   7.263  19.221  0.00  0.00    +0.000 HD
ENDBRANCH   4  17
BRANCH   1  22
ATOM     22  N   UNL     1       5.427   3.992  13.280  0.00  0.00    +0.000 N 
ATOM     23  H   UNL     1       4.623   3.372  13.383  0.00  0.00    +0.000 HD
BRANCH  22  24
ATOM     24  C   UNL     1       6.402   3.436  12.323  0.00  0.00    +0.000 C 
BRANCH  24  25
ATOM     25  C   UNL     1       5.695   2.554  11.261  0.00  0.00    +0.000 C 
BRANCH  25  26
ATOM     26  N   UNL     1       5.990   1.117  11.461  0.00  0.00    +0.000 NA
ATOM     27  H   UNL     1       6.739   0.841  10.825  0.00  0.00    +0.000 HD
ATOM     28  H   UNL     1       5.177   0.595  11.117  0.00  0.00    +0.000 HD
ENDBRANCH  25  26
BRANCH  25  29
ATOM     29  C   UNL     1       4.180   2.819  11.285  0.00  0.00    +0.000 C 
BRANCH  29  31
ATOM     30  C   UNL     1       2.926   3.943   9.630  0.00  0.00    +0.000 C 
ATOM     31  O   UNL     1       3.907   4.071  10.649  0.00  0.00    +0.000 OA
ENDBRANCH  29  31
ENDBRANCH  25  29
ENDBRANCH  24  25
ENDBRANCH  22  24
ENDBRANCH   1  22
TORSDOF 8
ENDMDL
MODEL 2
REMARK VINA RESULT:      -7.8      3.280      5.781
REMARK  Name = 
REMARK  11 active torsions:
REMARK  status: ('A' for Active; 'I' for Inactive)
REMARK    1  A    between atoms: C_1  and  O_2
REMARK    2  A    between atoms: O_2  and  C_3
REMARK    3  A    between atoms: C_3  and  C_4
REMARK    4  A    between atoms: C_4  and  N_5
REMARK    5  A    between atoms: C_4  and  C_6
REMARK    6  A    between atoms: C_6  and  N_7
REMARK    7  A    between atoms: N_7  and  C_8
REMARK    8  A    between atoms: C_11  and  C_12
REMARK    9  A    between atoms: C_15  and  N_16
REMARK   10  A    between atoms: C_19  and  C_20
REMARK   11  A    between atoms: C_22  and  C_23
REMARK                            x       y       z     vdW  Elec       q    Type
REMARK                         _______ _______ _______ _____ _____    ______ ____
ROOT
ATOM      1  C   UNL     1       4.059   4.831  17.846  0.00  0.00    +0.000 A 
ATOM      2  C   UNL     1       3.876   3.474  18.110  0.00  0.00    +0.000 A 
ATOM      3  N   UNL     1       3.174   2.967  19.148  0.00  0.00    +0.000 NA
ATOM      4  C   UNL     1       2.647   3.879  20.020  0.00  0.00    +0.000 A 
ATOM      5  C   UNL     1       2.800   5.270  19.914  0.00  0.00    +0.000 A 
ATOM      6  C   UNL     1       3.519   5.716  18.790  0.00  0.00    +0.000 A 
ENDROOT
BRANCH   5   7
ATOM      7  N   UNL     1       2.198   6.172  20.829  0.00  0.00    +0.000 N 
ATOM      8  C   UNL     1       1.744   7.484  20.582  0.00  0.00    +0.000 A 
ATOM      9  C   UNL     1       1.092   8.169  21.606  0.00  0.00    +0.000 A 
ATOM     10  C   UNL     1       0.580   9.449  21.369  0.00  0.00    +0.000 A 
ATOM     11  C   UNL     1      -0.120  10.221  22.446  0.00  0.00    +0.000 C 
ATOM     12  C   UNL     1       0.726  10.001  20.097  0.00  0.00    +0.000 A 
ATOM     13  C   UNL     1       1.382   9.263  19.122  0.00  0.00    +0.000 A 
ATOM     14  C   UNL     1       1.545   9.774  17.724  0.00  0.00    +0.000 C 
ATOM     15  N   UNL     1       1.883   8.032  19.359  0.00  0.00    +0.000 NA
ATOM     16  H   UNL     1       2.632   6.107  21.756  0.00  0.00    +0.000 HD
ENDBRANCH   5   7
BRANCH   4  17
ATOM     17  C   UNL     1       1.897   3.269  21.175  0.00  0.00    +0.000 C 
ATOM     18  N   UNL     1       0.638   2.815  20.879  0.00  0.00    +0.000 N 
ATOM     19  O   UNL     1       2.370   3.167  22.302  0.00  0.00    +0.000 OA
ATOM     20  H   UNL     1       0.308   2.876  19.922  0.00  0.00    +0.000 HD
ATOM     21  H   UNL     1       0.089   2.352  21.587  0.00  0.00    +0.000 HD
ENDBRANCH   4  17
BRANCH   1  22
ATOM     22  N   UNL     1       4.845   5.336  16.792  0.00  0.00    +0.000 N 
ATOM     23  H   UNL     1       4.306   6.001  16.237  0.00  0.00    +0.000 HD
BRANCH  22  24
ATOM     24  C   UNL     1       5.479   4.321  15.929  0.00  0.00    +0.000 C 
BRANCH  24  25
ATOM     25  C   UNL     1       7.022   4.475  15.935  0.00  0.00    +0.000 C 
BRANCH  25  26
ATOM     26  N   UNL     1       7.452   5.698  15.220  0.00  0.00    +0.000 NA
ATOM     27  H   UNL     1       8.331   5.508  14.737  0.00  0.00    +0.000 HD
ATOM     28  H   UNL     1       7.714   6.384  15.935  0.00  0.00    +0.000 HD
ENDBRANCH  25  26
BRANCH  25  29
ATOM     29  C   UNL     1       7.544   4.464  17.382  0.00  0.00    +0.000 C 
BRANCH  29  31
ATOM     30  C   UNL     1       7.722   5.851  19.284  0.00  0.00    +0.000 C 
ATOM     31  O   UNL     1       7.629   5.807  17.867  0.00  0.00    +0.000 OA
ENDBRANCH  29  31
ENDBRANCH  25  29
ENDBRANCH  24  25
ENDBRANCH  22  24
ENDBRANCH   1  22
TORSDOF 8
ENDMDL
MODEL 3
REMARK VINA RESULT:      -7.7      3.058      5.659
REMARK  Name = 
REMARK  11 active torsions:
REMARK  status: ('A' for Active; 'I' for Inactive)
REMARK    1  A    between atoms: C_1  and  O_2
REMARK    2  A    between atoms: O_2  and  C_3
REMARK    3  A    between atoms: C_3  and  C_4
REMARK    4  A    between atoms: C_4  and  N_5
REMARK    5  A    between atoms: C_4  and  C_6
REMARK    6  A    between atoms: C_6  and  N_7
REMARK    7  A    between atoms: N_7  and  C_8
REMARK    8  A    between atoms: C_11  and  C_12
REMARK    9  A    between atoms: C_15  and  N_16
REMARK   10  A    between atoms: C_19  and  C_20
REMARK   11  A    between atoms: C_22  and  C_23
REMARK                            x       y       z     vdW  Elec       q    Type
REMARK                         _______ _______ _______ _____ _____    ______ ____
ROOT
ATOM      1  C   UNL     1       4.064   5.313  17.814  0.00  0.00    +0.000 A 
ATOM      2  C   UNL     1       3.829   3.943  17.931  0.00  0.00    +0.000 A 
ATOM      3  N   UNL     1       3.074   3.358  18.889  0.00  0.00    +0.000 NA
ATOM      4  C   UNL     1       2.546   4.194  19.832  0.00  0.00    +0.000 A 
ATOM      5  C   UNL     1       2.746   5.583  19.874  0.00  0.00    +0.000 A 
ATOM      6  C   UNL     1       3.518   6.115  18.827  0.00  0.00    +0.000 A 
ENDROOT
BRANCH   5   7
ATOM      7  N   UNL     1       2.140   6.407  20.858  0.00  0.00    +0.000 N 
ATOM      8  C   UNL     1       1.604   7.701  20.694  0.00  0.00    +0.000 A 
ATOM      9  C   UNL     1       0.966   8.302  21.778  0.00  0.00    +0.000 A 
ATOM     10  C   UNL     1       0.374   9.560  21.625  0.00  0.00    +0.000 A 
ATOM     11  C   UNL     1      -0.315  10.243  22.768  0.00  0.00    +0.000 C 
ATOM     12  C   UNL     1       0.429  10.176  20.375  0.00  0.00    +0.000 A 
ATOM     13  C   UNL     1       1.077   9.521  19.337  0.00  0.00    +0.000 A 
ATOM     14  C   UNL     1       1.145  10.102  17.959  0.00  0.00    +0.000 C 
ATOM     15  N   UNL     1       1.654   8.311  19.493  0.00  0.00    +0.000 NA
ATOM     16  H   UNL     1       2.621   6.325  21.760  0.00  0.00    +0.000 HD
ENDBRANCH   5   7
BRANCH   4  17
ATOM     17  C   UNL     1       1.736   3.496  20.894  0.00  0.00    +0.000 C 
ATOM     18  N   UNL     1       0.546   2.967  20.467  0.00  0.00    +0.000 N 
ATOM     19  O   UNL     1       2.107   3.390  22.057  0.00  0.00    +0.000 OA
ATOM     20  H   UNL     1       0.304   3.037  19.484  0.00  0.00    +0.000 HD
ATOM     21  H   UNL     1      -0.032   2.445  21.106  0.00  0.00    +0.000 HD
ENDBRANCH   4  17
BRANCH   1  22
ATOM     22  N   UNL     1       4.902   5.894  16.844  0.00  0.00    +0.000 N 
ATOM     23  H   UNL     1       5.202   5.189  16.169  0.00  0.00    +0.000 HD
BRANCH  22  24
ATOM     24  C   UNL     1       6.058   6.646  17.369  0.00  0.00    +0.000 C 
BRANCH  24  25
ATOM     25  C   UNL     1       7.312   5.738  17.465  0.00  0.00    +0.000 C 
BRANCH  25  26
ATOM     26  N   UNL     1       7.438   5.121  18.806  0.00  0.00    +0.000 NA
ATOM     27  H   UNL     1       6.915   4.246  18.819  0.00  0.00    +0.000 HD
ATOM     28  H   UNL     1       6.923   5.721  19.458  0.00  0.00    +0.000 HD
ENDBRANCH  25  26
BRANCH  25  29
ATOM     29  C   UNL     1       7.269   4.667  16.362  0.00  0.00    +0.000 C 
BRANCH  29  31
ATOM     30  C   UNL     1       6.800   4.576  14.050  0.00  0.00    +0.000 C 
ATOM     31  O   UNL     1       7.457   5.290  15.088  0.00  0.00    +0.000 OA
ENDBRANCH  29  31
ENDBRANCH  25  29
ENDBRANCH  24  25
ENDBRANCH  22  24
ENDBRANCH   1  22
TORSDOF 8
ENDMDL
MODEL 4
REMARK VINA RESULT:      -7.5      1.099      1.886
REMARK  Name = 
REMARK  11 active torsions:
REMARK  status: ('A' for Active; 'I' for Inactive)
REMARK    1  A    between atoms: C_1  and  O_2
REMARK    2  A    between atoms: O_2  and  C_3
REMARK    3  A    between atoms: C_3  and  C_4
REMARK    4  A    between atoms: C_4  and  N_5
REMARK    5  A    between atoms: C_4  and  C_6
REMARK    6  A    between atoms: C_6  and  N_7
REMARK    7  A    between atoms: N_7  and  C_8
REMARK    8  A    between atoms: C_11  and  C_12
REMARK    9  A    between atoms: C_15  and  N_16
REMARK   10  A    between atoms: C_19  and  C_20
REMARK   11  A    between atoms: C_22  and  C_23
REMARK                            x       y       z     vdW  Elec       q    Type
REMARK                         _______ _______ _______ _____ _____    ______ ____
ROOT
ATOM      1  C   UNL     1       5.807   4.514  15.001  0.00  0.00    +0.000 A 
ATOM      2  C   UNL     1       7.055   4.227  15.553  0.00  0.00    +0.000 A 
ATOM      3  N   UNL     1       7.477   4.615  16.778  0.00  0.00    +0.000 NA
ATOM      4  C   UNL     1       6.606   5.386  17.497  0.00  0.00    +0.000 A 
ATOM      5  C   UNL     1       5.343   5.801  17.046  0.00  0.00    +0.000 A 
ATOM      6  C   UNL     1       4.969   5.330  15.775  0.00  0.00    +0.000 A 
ENDROOT
BRANCH   5   7
ATOM      7  N   UNL     1       4.465   6.571  17.852  0.00  0.00    +0.000 N 
ATOM      8  C   UNL     1       3.467   6.107  18.734  0.00  0.00    +0.000 A 
ATOM      9  C   UNL     1       2.774   7.037  19.508  0.00  0.00    +0.000 A 
ATOM     10  C   UNL     1       1.820   6.599  20.432  0.00  0.00    +0.000 A 
ATOM     11  C   UNL     1       1.049   7.567  21.277  0.00  0.00    +0.000 C 
ATOM     12  C   UNL     1       1.599   5.228  20.563  0.00  0.00    +0.000 A 
ATOM     13  C   UNL     1       2.325   4.356  19.765  0.00  0.00    +0.000 A 
ATOM     14  C   UNL     1       2.169   2.872  19.874  0.00  0.00    +0.000 C 
ATOM     15  N   UNL     1       3.238   4.785  18.867  0.00  0.00    +0.000 NA
ATOM     16  H   UNL     1       4.152   7.415  17.361  0.00  0.00    +0.000 HD
ENDBRANCH   5   7
BRANCH   4  17
ATOM     17  C   UNL     1       7.128   5.818  18.843  0.00  0.00    +0.000 C 
ATOM     18  N   UNL     1       8.108   6.775  18.810  0.00  0.00    +0.000 N 
ATOM     19  O   UNL     1       6.706   5.363  19.900  0.00  0.00    +0.000 OA
ATOM     20  H   UNL     1       8.390   7.156  17.914  0.00  0.00    +0.000 HD
ATOM     21  H   UNL     1       8.476   7.150  19.670  0.00  0.00    +0.000 HD
ENDBRANCH   4  17
BRANCH   1  22
ATOM     22  N   UNL     1       5.412   4.150  13.699  0.00  0.00    +0.000 N 
ATOM     23  H   UNL     1       4.498   3.696  13.722  0.00  0.00    +0.000 HD
BRANCH  22  24
ATOM     24  C   UNL     1       6.385   3.338  12.943  0.00  0.00    +0.000 C 
BRANCH  24  25
ATOM     25  C   UNL     1       5.771   2.838  11.610  0.00  0.00    +0.000 C 
BRANCH  25  26
ATOM     26  N   UNL     1       6.053   1.403  11.383  0.00  0.00    +0.000 NA
ATOM     27  H   UNL     1       6.848   1.126  11.959  0.00  0.00    +0.000 HD
ATOM     28  H   UNL     1       6.409   1.318  10.425  0.00  0.00    +0.000 HD
ENDBRANCH  25  26
BRANCH  25  29
ATOM     29  C   UNL     1       4.258   3.117  11.592  0.00  0.00    +0.000 C 
BRANCH  29  31
ATOM     30  C   UNL     1       2.953   3.735   9.724  0.00  0.00    +0.000 C 
ATOM     31  O   UNL     1       3.974   4.135  10.628  0.00  0.00    +0.000 OA
ENDBRANCH  29  31
ENDBRANCH  25  29
ENDBRANCH  24  25
ENDBRANCH  22  24
ENDBRANCH   1  22
TORSDOF 8
ENDMDL
MODEL 5
REMARK VINA RESULT:      -7.5      3.236      8.285
REMARK  Name = 
REMARK  11 active torsions:
REMARK  status: ('A' for Active; 'I' for Inactive)
REMARK    1  A    between atoms: C_1  and  O_2
REMARK    2  A    between atoms: O_2  and  C_3
REMARK    3  A    between atoms: C_3  and  C_4
REMARK    4  A    between atoms: C_4  and  N_5
REMARK    5  A    between atoms: C_4  and  C_6
REMARK    6  A    between atoms: C_6  and  N_7
REMARK    7  A    between atoms: N_7  and  C_8
REMARK    8  A    between atoms: C_11  and  C_12
REMARK    9  A    between atoms: C_15  and  N_16
REMARK   10  A    between atoms: C_19  and  C_20
REMARK   11  A    between atoms: C_22  and  C_23
REMARK                            x       y       z     vdW  Elec       q    Type
REMARK                         _______ _______ _______ _____ _____    ______ ____
ROOT
ATOM      1  C   UNL     1       2.032   5.545  20.572  0.00  0.00    +0.000 A 
ATOM      2  C   UNL     1       2.221   4.425  21.381  0.00  0.00    +0.000 A 
ATOM      3  N   UNL     1       2.839   3.282  21.004  0.00  0.00    +0.000 NA
ATOM      4  C   UNL     1       3.265   3.230  19.706  0.00  0.00    +0.000 A 
ATOM      5  C   UNL     1       3.091   4.256  18.763  0.00  0.00    +0.000 A 
ATOM      6  C   UNL     1       2.466   5.420  19.244  0.00  0.00    +0.000 A 
ENDROOT
BRANCH   5   7
ATOM      7  N   UNL     1       3.589   4.161  17.438  0.00  0.00    +0.000 N 
ATOM      8  C   UNL     1       4.806   4.660  16.931  0.00  0.00    +0.000 A 
ATOM      9  C   UNL     1       5.148   4.374  15.611  0.00  0.00    +0.000 A 
ATOM     10  C   UNL     1       6.377   4.807  15.101  0.00  0.00    +0.000 A 
ATOM     11  C   UNL     1       6.777   4.525  13.685  0.00  0.00    +0.000 C 
ATOM     12  C   UNL     1       7.238   5.508  15.944  0.00  0.00    +0.000 A 
ATOM     13  C   UNL     1       6.838   5.756  17.249  0.00  0.00    +0.000 A 
ATOM     14  C   UNL     1       7.723   6.471  18.222  0.00  0.00    +0.000 C 
ATOM     15  N   UNL     1       5.647   5.344  17.733  0.00  0.00    +0.000 NA
ATOM     16  H   UNL     1       2.837   4.270  16.749  0.00  0.00    +0.000 HD
ENDBRANCH   5   7
BRANCH   4  17
ATOM     17  C   UNL     1       3.923   1.930  19.322  0.00  0.00    +0.000 C 
ATOM     18  N   UNL     1       5.028   1.595  20.059  0.00  0.00    +0.000 N 
ATOM     19  O   UNL     1       3.502   1.207  18.426  0.00  0.00    +0.000 OA
ATOM     20  H   UNL     1       5.309   2.201  20.823  0.00  0.00    +0.000 HD
ATOM     21  H   UNL     1       5.498   0.719  19.895  0.00  0.00    +0.000 HD
ENDBRANCH   4  17
BRANCH   1  22
ATOM     22  N   UNL     1       1.332   6.701  20.968  0.00  0.00    +0.000 N 
ATOM     23  H   UNL     1       0.327   6.551  20.883  0.00  0.00    +0.000 HD
BRANCH  22  24
ATOM     24  C   UNL     1       1.738   7.951  20.297  0.00  0.00    +0.000 C 
BRANCH  24  25
ATOM     25  C   UNL     1       0.897   9.151  20.808  0.00  0.00    +0.000 C 
BRANCH  25  26
ATOM     26  N   UNL     1       0.471  10.031  19.696  0.00  0.00    +0.000 NA
ATOM     27  H   UNL     1       0.181  10.931  20.079  0.00  0.00    +0.000 HD
ATOM     28  H   UNL     1      -0.398   9.637  19.322  0.00  0.00    +0.000 HD
ENDBRANCH  25  26
BRANCH  25  29
ATOM     29  C   UNL     1      -0.312   8.640  21.609  0.00  0.00    +0.000 C 
BRANCH  29  31
ATOM     30  C   UNL     1      -0.769  10.512  22.974  0.00  0.00    +0.000 C 
ATOM     31  O   UNL     1      -0.268   9.183  22.932  0.00  0.00    +0.000 OA
ENDBRANCH  29  31
ENDBRANCH  25  29
ENDBRANCH  24  25
ENDBRANCH  22  24
ENDBRANCH   1  22
TORSDOF 8
ENDMDL
MODEL 6
REMARK VINA RESULT:      -7.5      3.219      8.006
REMARK  Name = 
REMARK  11 active torsions:
REMARK  status: ('A' for Active; 'I' for Inactive)
REMARK    1  A    between atoms: C_1  and  O_2
REMARK    2  A    between atoms: O_2  and  C_3
REMARK    3  A    between atoms: C_3  and  C_4
REMARK    4  A    between atoms: C_4  and  N_5
REMARK    5  A    between atoms: C_4  and  C_6
REMARK    6  A    between atoms: C_6  and  N_7
REMARK    7  A    between atoms: N_7  and  C_8
REMARK    8  A    between atoms: C_11  and  C_12
REMARK    9  A    between atoms: C_15  and  N_16
REMARK   10  A    between atoms: C_19  and  C_20
REMARK   11  A    between atoms: C_22  and  C_23
REMARK                            x       y       z     vdW  Elec       q    Type
REMARK                         _______ _______ _______ _____ _____    ______ ____
ROOT
ATOM      1  C   UNL     1       1.836   5.411  20.472  0.00  0.00    +0.000 A 
ATOM      2  C   UNL     1       2.112   4.336  21.317  0.00  0.00    +0.000 A 
ATOM      3  N   UNL     1       2.817   3.234  20.976  0.00  0.00    +0.000 NA
ATOM      4  C   UNL     1       3.245   3.172  19.679  0.00  0.00    +0.000 A 
ATOM      5  C   UNL     1       2.991   4.150  18.703  0.00  0.00    +0.000 A 
ATOM      6  C   UNL     1       2.277   5.276  19.148  0.00  0.00    +0.000 A 
ENDROOT
BRANCH   5   7
ATOM      7  N   UNL     1       3.493   4.049  17.380  0.00  0.00    +0.000 N 
ATOM      8  C   UNL     1       4.722   4.528  16.881  0.00  0.00    +0.000 A 
ATOM      9  C   UNL     1       5.065   4.240  15.561  0.00  0.00    +0.000 A 
ATOM     10  C   UNL     1       6.304   4.652  15.060  0.00  0.00    +0.000 A 
ATOM     11  C   UNL     1       6.707   4.368  13.644  0.00  0.00    +0.000 C 
ATOM     12  C   UNL     1       7.173   5.335  15.909  0.00  0.00    +0.000 A 
ATOM     13  C   UNL     1       6.771   5.587  17.213  0.00  0.00    +0.000 A 
ATOM     14  C   UNL     1       7.664   6.282  18.193  0.00  0.00    +0.000 C 
ATOM     15  N   UNL     1       5.571   5.194  17.689  0.00  0.00    +0.000 NA
ATOM     16  H   UNL     1       2.747   4.174  16.687  0.00  0.00    +0.000 HD
ENDBRANCH   5   7
BRANCH   4  17
ATOM     17  C   UNL     1       4.002   1.915  19.336  0.00  0.00    +0.000 C 
ATOM     18  N   UNL     1       5.107   1.670  20.108  0.00  0.00    +0.000 N 
ATOM     19  O   UNL     1       3.658   1.150  18.441  0.00  0.00    +0.000 OA
ATOM     20  H   UNL     1       5.324   2.305  20.868  0.00  0.00    +0.000 HD
ATOM     21  H   UNL     1       5.640   0.826  19.972  0.00  0.00    +0.000 HD
ENDBRANCH   4  17
BRANCH   1  22
ATOM     22  N   UNL     1       1.048   6.522  20.832  0.00  0.00    +0.000 N 
ATOM     23  H   UNL     1       0.155   6.495  20.339  0.00  0.00    +0.000 HD
BRANCH  22  24
ATOM     24  C   UNL     1       1.697   7.837  20.678  0.00  0.00    +0.000 C 
BRANCH  24  25
ATOM     25  C   UNL     1       1.047   8.888  21.617  0.00  0.00    +0.000 C 
BRANCH  25  26
ATOM     26  N   UNL     1       1.964   9.285  22.710  0.00  0.00    +0.000 NA
ATOM     27  H   UNL     1       1.865   8.626  23.482  0.00  0.00    +0.000 HD
ATOM     28  H   UNL     1       1.603  10.164  23.095  0.00  0.00    +0.000 HD
ENDBRANCH  25  26
BRANCH  25  29
ATOM     29  C   UNL     1       0.591  10.109  20.801  0.00  0.00    +0.000 C 
BRANCH  29  31
ATOM     30  C   UNL     1      -0.474  10.469  18.725  0.00  0.00    +0.000 C 
ATOM     31  O   UNL     1      -0.484   9.729  19.937  0.00  0.00    +0.000 OA
ENDBRANCH  29  31
ENDBRANCH  25  29
ENDBRANCH  24  25
ENDBRANCH  22  24
ENDBRANCH   1  22
TORSDOF 8
ENDMDL
MODEL 7
REMARK VINA RESULT:      -7.4      2.705      5.246
REMARK  Name = 
REMARK  11 active torsions:
REMARK  status: ('A' for Active; 'I' for Inactive)
REMARK    1  A    between atoms: C_1  and  O_2
REMARK    2  A    between atoms: O_2  and  C_3
REMARK    3  A    between atoms: C_3  and  C_4
REMARK    4  A    between atoms: C_4  and  N_5
REMARK    5  A    between atoms: C_4  and  C_6
REMARK    6  A    between atoms: C_6  and  N_7
REMARK    7  A    between atoms: N_7  and  C_8
REMARK    8  A    between atoms: C_11  and  C_12
REMARK    9  A    between atoms: C_15  and  N_16
REMARK   10  A    between atoms: C_19  and  C_20
REMARK   11  A    between atoms: C_22  and  C_23
REMARK                            x       y       z     vdW  Elec       q    Type
REMARK                         _______ _______ _______ _____ _____    ______ ____
ROOT
ATOM      1  C   UNL     1       4.824   4.395  18.696  0.00  0.00    +0.000 A 
ATOM      2  C   UNL     1       4.343   3.086  18.693  0.00  0.00    +0.000 A 
ATOM      3  N   UNL     1       3.241   2.655  19.348  0.00  0.00    +0.000 NA
ATOM      4  C   UNL     1       2.588   3.589  20.103  0.00  0.00    +0.000 A 
ATOM      5  C   UNL     1       2.990   4.927  20.247  0.00  0.00    +0.000 A 
ATOM      6  C   UNL     1       4.127   5.300  19.510  0.00  0.00    +0.000 A 
ENDROOT
BRANCH   5   7
ATOM      7  N   UNL     1       2.250   5.863  21.016  0.00  0.00    +0.000 N 
ATOM      8  C   UNL     1       1.817   7.149  20.633  0.00  0.00    +0.000 A 
ATOM      9  C   UNL     1       1.016   7.874  21.513  0.00  0.00    +0.000 A 
ATOM     10  C   UNL     1       0.525   9.128  21.135  0.00  0.00    +0.000 A 
ATOM     11  C   UNL     1      -0.333   9.941  22.056  0.00  0.00    +0.000 C 
ATOM     12  C   UNL     1       0.845   9.614  19.868  0.00  0.00    +0.000 A 
ATOM     13  C   UNL     1       1.645   8.840  19.039  0.00  0.00    +0.000 A 
ATOM     14  C   UNL     1       2.001   9.279  17.652  0.00  0.00    +0.000 C 
ATOM     15  N   UNL     1       2.123   7.635  19.413  0.00  0.00    +0.000 NA
ATOM     16  H   UNL     1       2.547   5.857  21.997  0.00  0.00    +0.000 HD
ENDBRANCH   5   7
BRANCH   4  17
ATOM     17  C   UNL     1       1.383   3.060  20.836  0.00  0.00    +0.000 C 
ATOM     18  N   UNL     1       0.251   2.924  20.077  0.00  0.00    +0.000 N 
ATOM     19  O   UNL     1       1.402   2.757  22.024  0.00  0.00    +0.000 OA
ATOM     20  H   UNL     1       0.296   3.140  19.087  0.00  0.00    +0.000 HD
ATOM     21  H   UNL     1      -0.585   2.532  20.482  0.00  0.00    +0.000 HD
ENDBRANCH   4  17
BRANCH   1  22
ATOM     22  N   UNL     1       6.008   4.807  18.055  0.00  0.00    +0.000 N 
ATOM     23  H   UNL     1       6.052   5.826  18.016  0.00  0.00    +0.000 HD
BRANCH  22  24
ATOM     24  C   UNL     1       6.247   4.219  16.723  0.00  0.00    +0.000 C 
BRANCH  24  25
ATOM     25  C   UNL     1       6.503   5.326  15.667  0.00  0.00    +0.000 C 
BRANCH  25  26
ATOM     26  N   UNL     1       7.415   6.372  16.183  0.00  0.00    +0.000 NA
ATOM     27  H   UNL     1       6.965   7.282  16.084  0.00  0.00    +0.000 HD
ATOM     28  H   UNL     1       8.207   6.423  15.534  0.00  0.00    +0.000 HD
ENDBRANCH  25  26
BRANCH  25  29
ATOM     29  C   UNL     1       7.050   4.699  14.373  0.00  0.00    +0.000 C 
BRANCH  29  31
ATOM     30  C   UNL     1       6.358   3.536  12.439  0.00  0.00    +0.000 C 
ATOM     31  O   UNL     1       6.042   3.875  13.782  0.00  0.00    +0.000 OA
ENDBRANCH  29  31
ENDBRANCH  25  29
ENDBRANCH  24  25
ENDBRANCH  22  24
ENDBRANCH   1  22
TORSDOF 8
ENDMDL
MODEL 8
REMARK VINA RESULT:      -7.3      3.732      5.848
REMARK  Name = 
REMARK  11 active torsions:
REMARK  status: ('A' for Active; 'I' for Inactive)
REMARK    1  A    between atoms: C_1  and  O_2
REMARK    2  A    between atoms: O_2  and  C_3
REMARK    3  A    between atoms: C_3  and  C_4
REMARK    4  A    between atoms: C_4  and  N_5
REMARK    5  A    between atoms: C_4  and  C_6
REMARK    6  A    between atoms: C_6  and  N_7
REMARK    7  A    between atoms: N_7  and  C_8
REMARK    8  A    between atoms: C_11  and  C_12
REMARK    9  A    between atoms: C_15  and  N_16
REMARK   10  A    between atoms: C_19  and  C_20
REMARK   11  A    between atoms: C_22  and  C_23
REMARK                            x       y       z     vdW  Elec       q    Type
REMARK                         _______ _______ _______ _____ _____    ______ ____
ROOT
ATOM      1  C   UNL     1       4.289   5.396  17.400  0.00  0.00    +0.000 A 
ATOM      2  C   UNL     1       4.064   4.020  17.422  0.00  0.00    +0.000 A 
ATOM      3  N   UNL     1       3.314   3.364  18.336  0.00  0.00    +0.000 NA
ATOM      4  C   UNL     1       2.780   4.129  19.335  0.00  0.00    +0.000 A 
ATOM      5  C   UNL     1       2.970   5.513  19.474  0.00  0.00    +0.000 A 
ATOM      6  C   UNL     1       3.737   6.122  18.465  0.00  0.00    +0.000 A 
ENDROOT
BRANCH   5   7
ATOM      7  N   UNL     1       2.359   6.262  20.512  0.00  0.00    +0.000 N 
ATOM      8  C   UNL     1       1.792   7.551  20.433  0.00  0.00    +0.000 A 
ATOM      9  C   UNL     1       1.155   8.072  21.558  0.00  0.00    +0.000 A 
ATOM     10  C   UNL     1       0.534   9.323  21.488  0.00  0.00    +0.000 A 
ATOM     11  C   UNL     1      -0.155   9.919  22.678  0.00  0.00    +0.000 C 
ATOM     12  C   UNL     1       0.559  10.013  20.277  0.00  0.00    +0.000 A 
ATOM     13  C   UNL     1       1.207   9.437  19.194  0.00  0.00    +0.000 A 
ATOM     14  C   UNL     1       1.245  10.101  17.853  0.00  0.00    +0.000 C 
ATOM     15  N   UNL     1       1.814   8.233  19.270  0.00  0.00    +0.000 NA
ATOM     16  H   UNL     1       2.853   6.138  21.403  0.00  0.00    +0.000 HD
ENDBRANCH   5   7
BRANCH   4  17
ATOM     17  C   UNL     1       1.976   3.353  20.347  0.00  0.00    +0.000 C 
ATOM     18  N   UNL     1       2.713   2.645  21.259  0.00  0.00    +0.000 N 
ATOM     19  O   UNL     1       0.751   3.357  20.371  0.00  0.00    +0.000 OA
ATOM     20  H   UNL     1       3.724   2.712  21.230  0.00  0.00    +0.000 HD
ATOM     21  H   UNL     1       2.250   2.137  21.997  0.00  0.00    +0.000 HD
ENDBRANCH   4  17
BRANCH   1  22
ATOM     22  N   UNL     1       5.122   6.049  16.472  0.00  0.00    +0.000 N 
ATOM     23  H   UNL     1       4.656   6.116  15.566  0.00  0.00    +0.000 HD
BRANCH  22  24
ATOM     24  C   UNL     1       6.477   5.485  16.327  0.00  0.00    +0.000 C 
BRANCH  24  25
ATOM     25  C   UNL     1       7.114   5.213  17.715  0.00  0.00    +0.000 C 
BRANCH  25  26
ATOM     26  N   UNL     1       8.126   4.134  17.649  0.00  0.00    +0.000 NA
ATOM     27  H   UNL     1       8.341   3.940  16.671  0.00  0.00    +0.000 HD
ATOM     28  H   UNL     1       7.667   3.276  17.970  0.00  0.00    +0.000 HD
ENDBRANCH  25  26
BRANCH  25  29
ATOM     29  C   UNL     1       7.719   6.510  18.278  0.00  0.00    +0.000 C 
BRANCH  29  31
ATOM     30  C   UNL     1       8.006   8.803  17.791  0.00  0.00    +0.000 C 
ATOM     31  O   UNL     1       7.277   7.620  17.491  0.00  0.00    +0.000 OA
ENDBRANCH  29  31
ENDBRANCH  25  29
ENDBRANCH  24  25
ENDBRANCH  22  24
ENDBRANCH   1  22
TORSDOF 8
ENDMDL
MODEL 9
REMARK VINA RESULT:      -7.3      2.581      4.601
REMARK  Name = 
REMARK  11 active torsions:
REMARK  status: ('A' for Active; 'I' for Inactive)
REMARK    1  A    between atoms: C_1  and  O_2
REMARK    2  A    between atoms: O_2  and  C_3
REMARK    3  A    between atoms: C_3  and  C_4
REMARK    4  A    between atoms: C_4  and  N_5
REMARK    5  A    between atoms: C_4  and  C_6
REMARK    6  A    between atoms: C_6  and  N_7
REMARK    7  A    between atoms: N_7  and  C_8
REMARK    8  A    between atoms: C_11  and  C_12
REMARK    9  A    between atoms: C_15  and  N_16
REMARK   10  A    between atoms: C_19  and  C_20
REMARK   11  A    between atoms: C_22  and  C_23
REMARK                            x       y       z     vdW  Elec       q    Type
REMARK                         _______ _______ _______ _____ _____    ______ ____
ROOT
ATOM      1  C   UNL     1       5.070   4.971  17.578  0.00  0.00    +0.000 A 
ATOM      2  C   UNL     1       4.534   3.748  17.176  0.00  0.00    +0.000 A 
ATOM      3  N   UNL     1       3.414   3.181  17.680  0.00  0.00    +0.000 NA
ATOM      4  C   UNL     1       2.801   3.861  18.695  0.00  0.00    +0.000 A 
ATOM      5  C   UNL     1       3.259   5.071  19.240  0.00  0.00    +0.000 A 
ATOM      6  C   UNL     1       4.412   5.607  18.640  0.00  0.00    +0.000 A 
ENDROOT
BRANCH   5   7
ATOM      7  N   UNL     1       2.559   5.752  20.270  0.00  0.00    +0.000 N 
ATOM      8  C   UNL     1       1.997   7.045  20.227  0.00  0.00    +0.000 A 
ATOM      9  C   UNL     1       1.264   7.491  21.325  0.00  0.00    +0.000 A 
ATOM     10  C   UNL     1       0.646   8.746  21.285  0.00  0.00    +0.000 A 
ATOM     11  C   UNL     1      -0.143   9.265  22.448  0.00  0.00    +0.000 C 
ATOM     12  C   UNL     1       0.773   9.514  20.128  0.00  0.00    +0.000 A 
ATOM     13  C   UNL     1       1.513   9.008  19.069  0.00  0.00    +0.000 A 
ATOM     14  C   UNL     1       1.663   9.759  17.783  0.00  0.00    +0.000 C 
ATOM     15  N   UNL     1       2.115   7.801  19.117  0.00  0.00    +0.000 NA
ATOM     16  H   UNL     1       2.976   5.568  21.189  0.00  0.00    +0.000 HD
ENDBRANCH   5   7
BRANCH   4  17
ATOM     17  C   UNL     1       1.574   3.180  19.244  0.00  0.00    +0.000 C 
ATOM     18  N   UNL     1       1.451   1.854  18.924  0.00  0.00    +0.000 N 
ATOM     19  O   UNL     1       0.744   3.755  19.939  0.00  0.00    +0.000 OA
ATOM     20  H   UNL     1       2.187   1.408  18.388  0.00  0.00    +0.000 HD
ATOM     21  H   UNL     1       0.681   1.315  19.291  0.00  0.00    +0.000 HD
ENDBRANCH   4  17
BRANCH   1  22
ATOM     22  N   UNL     1       6.271   5.513  17.080  0.00  0.00    +0.000 N 
ATOM     23  H   UNL     1       6.101   6.434  16.675  0.00  0.00    +0.000 HD
BRANCH  22  24
ATOM     24  C   UNL     1       7.016   4.653  16.142  0.00  0.00    +0.000 C 
BRANCH  24  25
ATOM     25  C   UNL     1       6.712   5.045  14.672  0.00  0.00    +0.000 C 
BRANCH  25  26
ATOM     26  N   UNL     1       7.931   5.499  13.964  0.00  0.00    +0.000 NA
ATOM     27  H   UNL     1       8.411   6.190  14.541  0.00  0.00    +0.000 HD
ATOM     28  H   UNL     1       7.619   6.039  13.151  0.00  0.00    +0.000 HD
ENDBRANCH  25  26
BRANCH  25  29
ATOM     29  C   UNL     1       6.050   3.865  13.940  0.00  0.00    +0.000 C 
BRANCH  29  31
ATOM     30  C   UNL     1       5.867   2.812  11.835  0.00  0.00    +0.000 C 
ATOM     31  O   UNL     1       6.542   3.802  12.599  0.00  0.00    +0.000 OA
ENDBRANCH  29  31
ENDBRANCH  25  29
ENDBRANCH  24  25
ENDBRANCH  22  24
ENDBRANCH   1  22
TORSDOF 8
ENDMDL
