MODEL 1
REMARK VINA RESULT:      -7.6      0.000      0.000
REMARK  Name = 
REMARK  11 active torsions:
REMARK  status: ('A' for Active; 'I' for Inactive)
REMARK    1  A    between atoms: C_1  and  N_2
REMARK    2  A    between atoms: C_6  and  C_7
REMARK    3  A    between atoms: C_7  and  C_8
REMARK    4  A    between atoms: C_10  and  O_11
REMARK    5  A    between atoms: O_11  and  C_12
REMARK    6  A    between atoms: C_13  and  O_14
REMARK    7  A    between atoms: O_14  and  C_15
REMARK    8  A    between atoms: C_17  and  S_18
REMARK    9  A    between atoms: S_18  and  N_21
REMARK   10  A    between atoms: N_21  and  C_22
REMARK   11  A    between atoms: N_21  and  C_23
REMARK                            x       y       z     vdW  Elec       q    Type
REMARK                         _______ _______ _______ _____ _____    ______ ____
ROOT
ATOM      1  C   UNL     1       3.812   5.816  18.204  0.00  0.00    +0.000 A 
ATOM      2  C   UNL     1       4.925   6.599  17.819  0.00  0.00    +0.000 A 
ATOM      3  C   UNL     1       5.869   6.156  16.885  0.00  0.00    +0.000 A 
ATOM      4  C   UNL     1       5.710   4.899  16.289  0.00  0.00    +0.000 A 
ATOM      5  C   UNL     1       4.597   4.127  16.626  0.00  0.00    +0.000 A 
ATOM      6  C   UNL     1       3.638   4.573  17.564  0.00  0.00    +0.000 A 
ENDROOT
BRANCH   6   7
ATOM      7  S   UNL     1       2.309   3.410  17.894  0.00  0.00    +0.000 S 
ATOM      8  O   UNL     1       1.073   4.059  17.497  0.00  0.00    +0.000 OA
ATOM      9  O   UNL     1       2.648   2.125  17.327  0.00  0.00    +0.000 OA
BRANCH   7  10
ATOM     10  N   UNL     1       2.298   3.286  19.587  0.00  0.00    +0.000 NA
ATOM     11  C   UNL     1       1.029   2.953  20.255  0.00  0.00    +0.000 C 
ATOM     12  C   UNL     1       3.461   2.645  20.227  0.00  0.00    +0.000 C 
ENDBRANCH   7  10
ENDBRANCH   6   7
BRANCH   3  13
ATOM     13  O   UNL     1       6.964   6.892  16.503  0.00  0.00    +0.000 OA
ATOM     14  C   UNL     1       7.646   7.596  17.532  0.00  0.00    +0.000 C 
ENDBRANCH   3  13
BRANCH   4  15
ATOM     15  O   UNL     1       6.684   4.505  15.408  0.00  0.00    +0.000 OA
ATOM     16  C   UNL     1       6.262   3.983  14.153  0.00  0.00    +0.000 C 
ENDBRANCH   4  15
BRANCH   1  17
ATOM     17  C   UNL     1       2.956   6.389  19.316  0.00  0.00    +0.000 C 
BRANCH  17  23
ATOM     18  C   UNL     1      -1.107  10.727  18.218  0.00  0.00    +0.000 C 
ATOM     19  N   UNL     1      -0.131  10.488  19.265  0.00  0.00    +0.000 N 
ATOM     20  C   UNL     1       0.835   9.581  18.982  0.00  0.00    +0.000 A 
ATOM     21  N   UNL     1       1.325   9.309  17.791  0.00  0.00    +0.000 NA
ATOM     22  N   UNL     1       2.162   8.212  17.792  0.00  0.00    +0.000 NA
ATOM     23  C   UNL     1       2.283   7.689  18.992  0.00  0.00    +0.000 A 
ATOM     24  S   UNL     1       1.481   8.580  20.226  0.00  0.00    +0.000 S 
ATOM     25  H   UNL     1      -0.535  10.416  20.193  0.00  0.00    +0.000 HD
ENDBRANCH  17  23
ENDBRANCH   1  17
TORSDOF 6
ENDMDL
MODEL 2
REMARK VINA RESULT:      -7.5      1.088      1.154
REMARK  Name = 
REMARK  11 active torsions:
REMARK  status: ('A' for Active; 'I' for Inactive)
REMARK    1  A    between atoms: C_1  and  N_2
REMARK    2  A    between atoms: C_6  and  C_7
REMARK    3  A    between atoms: C_7  and  C_8
REMARK    4  A    between atoms: C_10  and  O_11
REMARK    5  A    between atoms: O_11  and  C_12
REMARK    6  A    between atoms: C_13  and  O_14
REMARK    7  A    between atoms: O_14  and  C_15
REMARK    8  A    between atoms: C_17  and  S_18
REMARK    9  A    between atoms: S_18  and  N_21
REMARK   10  A    between atoms: N_21  and  C_22
REMARK   11  A    between atoms: N_21  and  C_23
REMARK                            x       y       z     vdW  Elec       q    Type
REMARK                         _______ _______ _______ _____ _____    ______ ____
ROOT
ATOM      1  C   UNL     1       4.115   5.534  18.344  0.00  0.00    +0.000 A 
ATOM      2  C   UNL     1       5.297   6.235  18.010  0.00  0.00    +0.000 A 
ATOM      3  C   UNL     1       6.149   5.824  16.980  0.00  0.00    +0.000 A 
ATOM      4  C   UNL     1       5.825   4.685  16.231  0.00  0.00    +0.000 A 
ATOM      5  C   UNL     1       4.643   4.001  16.519  0.00  0.00    +0.000 A 
ATOM      6  C   UNL     1       3.775   4.417  17.555  0.00  0.00    +0.000 A 
ENDROOT
BRANCH   6   7
ATOM      7  S   UNL     1       2.333   3.373  17.794  0.00  0.00    +0.000 S 
ATOM      8  O   UNL     1       1.184   4.129  17.334  0.00  0.00    +0.000 OA
ATOM      9  O   UNL     1       2.592   2.067  17.233  0.00  0.00    +0.000 OA
BRANCH   7  10
ATOM     10  N   UNL     1       2.212   3.240  19.483  0.00  0.00    +0.000 NA
ATOM     11  C   UNL     1       0.871   3.143  20.081  0.00  0.00    +0.000 C 
ATOM     12  C   UNL     1       3.202   2.389  20.167  0.00  0.00    +0.000 C 
ENDBRANCH   7  10
ENDBRANCH   6   7
BRANCH   3  13
ATOM     13  O   UNL     1       7.308   6.480  16.644  0.00  0.00    +0.000 OA
ATOM     14  C   UNL     1       7.693   7.559  17.486  0.00  0.00    +0.000 C 
ENDBRANCH   3  13
BRANCH   4  15
ATOM     15  O   UNL     1       6.716   4.311  15.258  0.00  0.00    +0.000 OA
ATOM     16  C   UNL     1       6.188   3.967  13.982  0.00  0.00    +0.000 C 
ENDBRANCH   4  15
BRANCH   1  17
ATOM     17  C   UNL     1       3.369   6.039  19.564  0.00  0.00    +0.000 C 
BRANCH  17  23
ATOM     18  C   UNL     1       1.328  11.657  18.665  0.00  0.00    +0.000 C 
ATOM     19  N   UNL     1       1.393  10.455  17.853  0.00  0.00    +0.000 N 
ATOM     20  C   UNL     1       1.609   9.296  18.522  0.00  0.00    +0.000 A 
ATOM     21  N   UNL     1       1.239   9.028  19.756  0.00  0.00    +0.000 NA
ATOM     22  N   UNL     1       1.758   7.839  20.226  0.00  0.00    +0.000 NA
ATOM     23  C   UNL     1       2.506   7.241  19.325  0.00  0.00    +0.000 A 
ATOM     24  S   UNL     1       2.521   8.029  17.796  0.00  0.00    +0.000 S 
ATOM     25  H   UNL     1       1.928  10.568  16.998  0.00  0.00    +0.000 HD
ENDBRANCH  17  23
ENDBRANCH   1  17
TORSDOF 6
ENDMDL
MODEL 3
REMARK VINA RESULT:      -7.4      2.194      4.518
REMARK  Name = 
REMARK  11 active torsions:
REMARK  status: ('A' for Active; 'I' for Inactive)
REMARK    1  A    between atoms: C_1  and  N_2
REMARK    2  A    between atoms: C_6  and  C_7
REMARK    3  A    between atoms: C_7  and  C_8
REMARK    4  A    between atoms: C_10  and  O_11
REMARK    5  A    between atoms: O_11  and  C_12
REMARK    6  A    between atoms: C_13  and  O_14
REMARK    7  A    between atoms: O_14  and  C_15
REMARK    8  A    between atoms: C_17  and  S_18
REMARK    9  A    between atoms: S_18  and  N_21
REMARK   10  A    between atoms: N_21  and  C_22
REMARK   11  A    between atoms: N_21  and  C_23
REMARK                            x       y       z     vdW  Elec       q    Type
REMARK                         _______ _______ _______ _____ _____    ______ ____
ROOT
ATOM      1  C   UNL     1       3.136   6.363  17.873  0.00  0.00    +0.000 A 
ATOM      2  C   UNL     1       2.058   5.651  18.449  0.00  0.00    +0.000 A 
ATOM      3  C   UNL     1       1.958   4.256  18.383  0.00  0.00    +0.000 A 
ATOM      4  C   UNL     1       2.963   3.523  17.739  0.00  0.00    +0.000 A 
ATOM      5  C   UNL     1       4.055   4.204  17.198  0.00  0.00    +0.000 A 
ATOM      6  C   UNL     1       4.164   5.612  17.268  0.00  0.00    +0.000 A 
ENDROOT
BRANCH   6   7
ATOM      7  S   UNL     1       5.620   6.295  16.469  0.00  0.00    +0.000 S 
ATOM      8  O   UNL     1       5.188   6.827  15.190  0.00  0.00    +0.000 OA
ATOM      9  O   UNL     1       6.313   7.159  17.397  0.00  0.00    +0.000 OA
BRANCH   7  10
ATOM     10  N   UNL     1       6.581   4.931  16.155  0.00  0.00    +0.000 NA
ATOM     11  C   UNL     1       7.050   4.709  14.777  0.00  0.00    +0.000 C 
ATOM     12  C   UNL     1       7.592   4.568  17.164  0.00  0.00    +0.000 C 
ENDBRANCH   7  10
ENDBRANCH   6   7
BRANCH   3  13
ATOM     13  O   UNL     1       0.917   3.543  18.923  0.00  0.00    +0.000 OA
ATOM     14  C   UNL     1       0.865   3.472  20.343  0.00  0.00    +0.000 C 
ENDBRANCH   3  13
BRANCH   4  15
ATOM     15  O   UNL     1       2.792   2.164  17.676  0.00  0.00    +0.000 OA
ATOM     16  C   UNL     1       3.605   1.361  18.524  0.00  0.00    +0.000 C 
ENDBRANCH   4  15
BRANCH   1  17
ATOM     17  C   UNL     1       3.032   7.874  17.924  0.00  0.00    +0.000 C 
BRANCH  17  23
ATOM     18  C   UNL     1      -0.306  11.347  21.577  0.00  0.00    +0.000 C 
ATOM     19  N   UNL     1      -0.497  10.784  20.252  0.00  0.00    +0.000 N 
ATOM     20  C   UNL     1       0.339   9.774  19.909  0.00  0.00    +0.000 A 
ATOM     21  N   UNL     1       0.892   8.906  20.730  0.00  0.00    +0.000 NA
ATOM     22  N   UNL     1       1.838   8.112  20.114  0.00  0.00    +0.000 NA
ATOM     23  C   UNL     1       1.969   8.404  18.839  0.00  0.00    +0.000 A 
ATOM     24  S   UNL     1       0.851   9.584  18.276  0.00  0.00    +0.000 S 
ATOM     25  H   UNL     1      -0.655  11.480  19.531  0.00  0.00    +0.000 HD
ENDBRANCH  17  23
ENDBRANCH   1  17
TORSDOF 6
ENDMDL
MODEL 4
REMARK VINA RESULT:      -7.3      2.091      4.511
REMARK  Name = 
REMARK  11 active torsions:
REMARK  status: ('A' for Active; 'I' for Inactive)
REMARK    1  A    between atoms: C_1  and  N_2
REMARK    2  A    between atoms: C_6  and  C_7
REMARK    3  A    between atoms: C_7  and  C_8
REMARK    4  A    between atoms: C_10  and  O_11
REMARK    5  A    between atoms: O_11  and  C_12
REMARK    6  A    between atoms: C_13  and  O_14
REMARK    7  A    between atoms: O_14  and  C_15
REMARK    8  A    between atoms: C_17  and  S_18
REMARK    9  A    between atoms: S_18  and  N_21
REMARK   10  A    between atoms: N_21  and  C_22
REMARK   11  A    between atoms: N_21  and  C_23
REMARK                            x       y       z     vdW  Elec       q    Type
REMARK                         _______ _______ _______ _____ _____    ______ ____
ROOT
ATOM      1  C   UNL     1       3.375   6.084  17.759  0.00  0.00    +0.000 A 
ATOM      2  C   UNL     1       2.254   5.428  18.319  0.00  0.00    +0.000 A 
ATOM      3  C   UNL     1       2.113   4.036  18.302  0.00  0.00    +0.000 A 
ATOM      4  C   UNL     1       3.119   3.248  17.727  0.00  0.00    +0.000 A 
ATOM      5  C   UNL     1       4.251   3.874  17.204  0.00  0.00    +0.000 A 
ATOM      6  C   UNL     1       4.401   5.280  17.225  0.00  0.00    +0.000 A 
ENDROOT
BRANCH   6   7
ATOM      7  S   UNL     1       5.908   5.888  16.458  0.00  0.00    +0.000 S 
ATOM      8  O   UNL     1       6.664   4.725  16.033  0.00  0.00    +0.000 OA
ATOM      9  O   UNL     1       5.572   6.907  15.490  0.00  0.00    +0.000 OA
BRANCH   7  10
ATOM     10  N   UNL     1       6.753   6.601  17.747  0.00  0.00    +0.000 NA
ATOM     11  C   UNL     1       7.448   5.719  18.699  0.00  0.00    +0.000 C 
ATOM     12  C   UNL     1       7.506   7.835  17.462  0.00  0.00    +0.000 C 
ENDBRANCH   7  10
ENDBRANCH   6   7
BRANCH   3  13
ATOM     13  O   UNL     1       1.030   3.375  18.828  0.00  0.00    +0.000 OA
ATOM     14  C   UNL     1       0.935   3.341  20.246  0.00  0.00    +0.000 C 
ENDBRANCH   3  13
BRANCH   4  15
ATOM     15  O   UNL     1       2.908   1.893  17.708  0.00  0.00    +0.000 OA
ATOM     16  C   UNL     1       3.713   1.093  18.566  0.00  0.00    +0.000 C 
ENDBRANCH   4  15
BRANCH   1  17
ATOM     17  C   UNL     1       3.316   7.599  17.749  0.00  0.00    +0.000 C 
BRANCH  17  23
ATOM     18  C   UNL     1       0.130  11.264  21.349  0.00  0.00    +0.000 C 
ATOM     19  N   UNL     1      -0.053  10.745  20.006  0.00  0.00    +0.000 N 
ATOM     20  C   UNL     1       0.710   9.676  19.672  0.00  0.00    +0.000 A 
ATOM     21  N   UNL     1       1.157   8.750  20.493  0.00  0.00    +0.000 NA
ATOM     22  N   UNL     1       2.059   7.893  19.897  0.00  0.00    +0.000 NA
ATOM     23  C   UNL     1       2.264   8.198  18.635  0.00  0.00    +0.000 A 
ATOM     24  S   UNL     1       1.270   9.476  18.056  0.00  0.00    +0.000 S 
ATOM     25  H   UNL     1      -0.125  11.465  19.295  0.00  0.00    +0.000 HD
ENDBRANCH  17  23
ENDBRANCH   1  17
TORSDOF 6
ENDMDL
MODEL 5
REMARK VINA RESULT:      -7.0      1.917      2.421
REMARK  Name = 
REMARK  11 active torsions:
REMARK  status: ('A' for Active; 'I' for Inactive)
REMARK    1  A    between atoms: C_1  and  N_2
REMARK    2  A    between atoms: C_6  and  C_7
REMARK    3  A    between atoms: C_7  and  C_8
REMARK    4  A    between atoms: C_10  and  O_11
REMARK    5  A    between atoms: O_11  and  C_12
REMARK    6  A    between atoms: C_13  and  O_14
REMARK    7  A    between atoms: O_14  and  C_15
REMARK    8  A    between atoms: C_17  and  S_18
REMARK    9  A    between atoms: S_18  and  N_21
REMARK   10  A    between atoms: N_21  and  C_22
REMARK   11  A    between atoms: N_21  and  C_23
REMARK                            x       y       z     vdW  Elec       q    Type
REMARK                         _______ _______ _______ _____ _____    ______ ____
ROOT
ATOM      1  C   UNL     1       3.729   5.983  18.004  0.00  0.00    +0.000 A 
ATOM      2  C   UNL     1       4.793   6.652  17.356  0.00  0.00    +0.000 A 
ATOM      3  C   UNL     1       6.136   6.336  17.593  0.00  0.00    +0.000 A 
ATOM      4  C   UNL     1       6.453   5.310  18.491  0.00  0.00    +0.000 A 
ATOM      5  C   UNL     1       5.417   4.610  19.112  0.00  0.00    +0.000 A 
ATOM      6  C   UNL     1       4.059   4.922  18.870  0.00  0.00    +0.000 A 
ENDROOT
BRANCH   6   7
ATOM      7  S   UNL     1       2.883   3.937  19.805  0.00  0.00    +0.000 S 
ATOM      8  O   UNL     1       3.639   2.882  20.455  0.00  0.00    +0.000 OA
ATOM      9  O   UNL     1       2.057   4.812  20.605  0.00  0.00    +0.000 OA
BRANCH   7  10
ATOM     10  N   UNL     1       1.926   3.211  18.605  0.00  0.00    +0.000 NA
ATOM     11  C   UNL     1       2.601   2.476  17.522  0.00  0.00    +0.000 C 
ATOM     12  C   UNL     1       0.675   2.563  19.037  0.00  0.00    +0.000 C 
ENDBRANCH   7  10
ENDBRANCH   6   7
BRANCH   3  13
ATOM     13  O   UNL     1       7.186   6.979  16.986  0.00  0.00    +0.000 OA
ATOM     14  C   UNL     1       7.579   8.224  17.547  0.00  0.00    +0.000 C 
ENDBRANCH   3  13
BRANCH   4  15
ATOM     15  O   UNL     1       7.785   5.069  18.709  0.00  0.00    +0.000 OA
ATOM     16  C   UNL     1       8.329   5.473  19.960  0.00  0.00    +0.000 C 
ENDBRANCH   4  15
BRANCH   1  17
ATOM     17  C   UNL     1       2.341   6.528  17.731  0.00  0.00    +0.000 C 
BRANCH  17  23
ATOM     18  C   UNL     1      -0.177  11.638  19.753  0.00  0.00    +0.000 C 
ATOM     19  N   UNL     1       0.735  10.659  20.317  0.00  0.00    +0.000 N 
ATOM     20  C   UNL     1       1.339   9.829  19.433  0.00  0.00    +0.000 A 
ATOM     21  N   UNL     1       1.640  10.108  18.182  0.00  0.00    +0.000 NA
ATOM     22  N   UNL     1       2.080   9.007  17.477  0.00  0.00    +0.000 NA
ATOM     23  C   UNL     1       2.102   7.924  18.222  0.00  0.00    +0.000 A 
ATOM     24  S   UNL     1       1.706   8.206  19.873  0.00  0.00    +0.000 S 
ATOM     25  H   UNL     1       0.388  10.215  21.161  0.00  0.00    +0.000 HD
ENDBRANCH  17  23
ENDBRANCH   1  17
TORSDOF 6
ENDMDL
MODEL 6
REMARK VINA RESULT:      -6.7      3.426      5.691
REMARK  Name = 
REMARK  11 active torsions:
REMARK  status: ('A' for Active; 'I' for Inactive)
REMARK    1  A    between atoms: C_1  and  N_2
REMARK    2  A    between atoms: C_6  and  C_7
REMARK    3  A    between atoms: C_7  and  C_8
REMARK    4  A    between atoms: C_10  and  O_11
REMARK    5  A    between atoms: O_11  and  C_12
REMARK    6  A    between atoms: C_13  and  O_14
REMARK    7  A    between atoms: O_14  and  C_15
REMARK    8  A    between atoms: C_17  and  S_18
REMARK    9  A    between atoms: S_18  and  N_21
REMARK   10  A    between atoms: N_21  and  C_22
REMARK   11  A    between atoms: N_21  and  C_23
REMARK                            x       y       z     vdW  Elec       q    Type
REMARK                         _______ _______ _______ _____ _____    ______ ____
ROOT
ATOM      1  C   UNL     1       3.376   5.686  18.742  0.00  0.00    +0.000 A 
ATOM      2  C   UNL     1       2.949   7.022  18.560  0.00  0.00    +0.000 A 
ATOM      3  C   UNL     1       1.974   7.617  19.368  0.00  0.00    +0.000 A 
ATOM      4  C   UNL     1       1.401   6.878  20.411  0.00  0.00    +0.000 A 
ATOM      5  C   UNL     1       1.836   5.570  20.632  0.00  0.00    +0.000 A 
ATOM      6  C   UNL     1       2.826   4.968  19.822  0.00  0.00    +0.000 A 
ENDROOT
BRANCH   6   7
ATOM      7  S   UNL     1       3.208   3.264  20.242  0.00  0.00    +0.000 S 
ATOM      8  O   UNL     1       4.633   3.088  20.035  0.00  0.00    +0.000 OA
ATOM      9  O   UNL     1       2.636   2.951  21.532  0.00  0.00    +0.000 OA
BRANCH   7  10
ATOM     10  N   UNL     1       2.405   2.367  19.045  0.00  0.00    +0.000 NA
ATOM     11  C   UNL     1       1.050   2.784  18.650  0.00  0.00    +0.000 C 
ATOM     12  C   UNL     1       3.208   1.892  17.903  0.00  0.00    +0.000 C 
ENDBRANCH   7  10
ENDBRANCH   6   7
BRANCH   3  13
ATOM     13  O   UNL     1       1.535   8.907  19.205  0.00  0.00    +0.000 OA
ATOM     14  C   UNL     1       1.796   9.512  17.945  0.00  0.00    +0.000 C 
ENDBRANCH   3  13
BRANCH   4  15
ATOM     15  O   UNL     1       0.427   7.502  21.147  0.00  0.00    +0.000 OA
ATOM     16  C   UNL     1       0.832   8.555  22.015  0.00  0.00    +0.000 C 
ENDBRANCH   4  15
BRANCH   1  17
ATOM     17  C   UNL     1       4.347   5.155  17.705  0.00  0.00    +0.000 C 
BRANCH  17  23
ATOM     18  C   UNL     1       8.759   9.244  18.297  0.00  0.00    +0.000 C 
ATOM     19  N   UNL     1       8.628   7.834  18.616  0.00  0.00    +0.000 N 
ATOM     20  C   UNL     1       7.602   7.182  18.018  0.00  0.00    +0.000 A 
ATOM     21  N   UNL     1       7.074   7.465  16.846  0.00  0.00    +0.000 NA
ATOM     22  N   UNL     1       5.926   6.746  16.586  0.00  0.00    +0.000 NA
ATOM     23  C   UNL     1       5.621   5.934  17.574  0.00  0.00    +0.000 A 
ATOM     24  S   UNL     1       6.790   5.902  18.836  0.00  0.00    +0.000 S 
ATOM     25  H   UNL     1       8.763   7.623  19.599  0.00  0.00    +0.000 HD
ENDBRANCH  17  23
ENDBRANCH   1  17
TORSDOF 6
ENDMDL
MODEL 7
REMARK VINA RESULT:      -6.7      1.492      1.780
REMARK  Name = 
REMARK  11 active torsions:
REMARK  status: ('A' for Active; 'I' for Inactive)
REMARK    1  A    between atoms: C_1  and  N_2
REMARK    2  A    between atoms: C_6  and  C_7
REMARK    3  A    between atoms: C_7  and  C_8
REMARK    4  A    between atoms: C_10  and  O_11
REMARK    5  A    between atoms: O_11  and  C_12
REMARK    6  A    between atoms: C_13  and  O_14
REMARK    7  A    between atoms: O_14  and  C_15
REMARK    8  A    between atoms: C_17  and  S_18
REMARK    9  A    between atoms: S_18  and  N_21
REMARK   10  A    between atoms: N_21  and  C_22
REMARK   11  A    between atoms: N_21  and  C_23
REMARK                            x       y       z     vdW  Elec       q    Type
REMARK                         _______ _______ _______ _____ _____    ______ ____
ROOT
ATOM      1  C   UNL     1       4.106   5.375  18.752  0.00  0.00    +0.000 A 
ATOM      2  C   UNL     1       4.928   6.358  18.153  0.00  0.00    +0.000 A 
ATOM      3  C   UNL     1       5.850   6.054  17.145  0.00  0.00    +0.000 A 
ATOM      4  C   UNL     1       5.963   4.734  16.691  0.00  0.00    +0.000 A 
ATOM      5  C   UNL     1       5.134   3.756  17.241  0.00  0.00    +0.000 A 
ATOM      6  C   UNL     1       4.196   4.060  18.255  0.00  0.00    +0.000 A 
ENDROOT
BRANCH   6   7
ATOM      7  S   UNL     1       3.260   2.652  18.862  0.00  0.00    +0.000 S 
ATOM      8  O   UNL     1       3.558   1.537  17.982  0.00  0.00    +0.000 OA
ATOM      9  O   UNL     1       3.479   2.511  20.283  0.00  0.00    +0.000 OA
BRANCH   7  10
ATOM     10  N   UNL     1       1.645   3.097  18.589  0.00  0.00    +0.000 NA
ATOM     11  C   UNL     1       0.769   3.299  19.755  0.00  0.00    +0.000 C 
ATOM     12  C   UNL     1       1.383   4.065  17.508  0.00  0.00    +0.000 C 
ENDBRANCH   7  10
ENDBRANCH   6   7
BRANCH   3  13
ATOM     13  O   UNL     1       6.668   6.987  16.556  0.00  0.00    +0.000 OA
ATOM     14  C   UNL     1       7.578   7.665  17.413  0.00  0.00    +0.000 C 
ENDBRANCH   3  13
BRANCH   4  15
ATOM     15  O   UNL     1       6.908   4.491  15.727  0.00  0.00    +0.000 OA
ATOM     16  C   UNL     1       6.445   4.116  14.434  0.00  0.00    +0.000 C 
ENDBRANCH   4  15
BRANCH   1  17
ATOM     17  C   UNL     1       3.252   5.847  19.913  0.00  0.00    +0.000 C 
BRANCH  17  23
ATOM     18  C   UNL     1       1.362  11.465  18.729  0.00  0.00    +0.000 C 
ATOM     19  N   UNL     1       1.346  10.211  17.999  0.00  0.00    +0.000 N 
ATOM     20  C   UNL     1       1.555   9.091  18.734  0.00  0.00    +0.000 A 
ATOM     21  N   UNL     1       1.238   8.920  20.001  0.00  0.00    +0.000 NA
ATOM     22  N   UNL     1       1.738   7.747  20.525  0.00  0.00    +0.000 NA
ATOM     23  C   UNL     1       2.419   7.062  19.634  0.00  0.00    +0.000 A 
ATOM     24  S   UNL     1       2.386   7.745  18.055  0.00  0.00    +0.000 S 
ATOM     25  H   UNL     1       1.841  10.246  17.114  0.00  0.00    +0.000 HD
ENDBRANCH  17  23
ENDBRANCH   1  17
TORSDOF 6
ENDMDL
MODEL 8
REMARK VINA RESULT:      -6.6      1.817      2.234
REMARK  Name = 
REMARK  11 active torsions:
REMARK  status: ('A' for Active; 'I' for Inactive)
REMARK    1  A    between atoms: C_1  and  N_2
REMARK    2  A    between atoms: C_6  and  C_7
REMARK    3  A    between atoms: C_7  and  C_8
REMARK    4  A    between atoms: C_10  and  O_11
REMARK    5  A    between atoms: O_11  and  C_12
REMARK    6  A    between atoms: C_13  and  O_14
REMARK    7  A    between atoms: O_14  and  C_15
REMARK    8  A    between atoms: C_17  and  S_18
REMARK    9  A    between atoms: S_18  and  N_21
REMARK   10  A    between atoms: N_21  and  C_22
REMARK   11  A    between atoms: N_21  and  C_23
REMARK                            x       y       z     vdW  Elec       q    Type
REMARK                         _______ _______ _______ _____ _____    ______ ____
ROOT
ATOM      1  C   UNL     1       3.540   6.431  17.838  0.00  0.00    +0.000 A 
ATOM      2  C   UNL     1       4.693   6.995  17.243  0.00  0.00    +0.000 A 
ATOM      3  C   UNL     1       5.985   6.538  17.526  0.00  0.00    +0.000 A 
ATOM      4  C   UNL     1       6.158   5.472  18.419  0.00  0.00    +0.000 A 
ATOM      5  C   UNL     1       5.030   4.876  18.987  0.00  0.00    +0.000 A 
ATOM      6  C   UNL     1       3.723   5.330  18.698  0.00  0.00    +0.000 A 
ENDROOT
BRANCH   6   7
ATOM      7  S   UNL     1       2.414   4.461  19.568  0.00  0.00    +0.000 S 
ATOM      8  O   UNL     1       2.181   5.181  20.806  0.00  0.00    +0.000 OA
ATOM      9  O   UNL     1       1.311   4.231  18.664  0.00  0.00    +0.000 OA
BRANCH   7  10
ATOM     10  N   UNL     1       3.123   2.972  19.972  0.00  0.00    +0.000 NA
ATOM     11  C   UNL     1       2.974   2.478  21.351  0.00  0.00    +0.000 C 
ATOM     12  C   UNL     1       3.047   1.893  18.971  0.00  0.00    +0.000 C 
ENDBRANCH   7  10
ENDBRANCH   6   7
BRANCH   3  13
ATOM     13  O   UNL     1       7.120   7.075  16.972  0.00  0.00    +0.000 OA
ATOM     14  C   UNL     1       7.618   8.264  17.572  0.00  0.00    +0.000 C 
ENDBRANCH   3  13
BRANCH   4  15
ATOM     15  O   UNL     1       7.448   5.091  18.684  0.00  0.00    +0.000 OA
ATOM     16  C   UNL     1       8.016   5.512  19.919  0.00  0.00    +0.000 C 
ENDBRANCH   4  15
BRANCH   1  17
ATOM     17  C   UNL     1       2.228   7.122  17.520  0.00  0.00    +0.000 C 
BRANCH  17  23
ATOM     18  C   UNL     1      -0.120  12.073  20.071  0.00  0.00    +0.000 C 
ATOM     19  N   UNL     1       0.696  10.972  20.547  0.00  0.00    +0.000 N 
ATOM     20  C   UNL     1       1.308  10.228  19.594  0.00  0.00    +0.000 A 
ATOM     21  N   UNL     1       1.704  10.649  18.411  0.00  0.00    +0.000 NA
ATOM     22  N   UNL     1       2.126   9.625  17.590  0.00  0.00    +0.000 NA
ATOM     23  C   UNL     1       2.037   8.453  18.181  0.00  0.00    +0.000 A 
ATOM     24  S   UNL     1       1.553   8.540  19.830  0.00  0.00    +0.000 S 
ATOM     25  H   UNL     1       0.271  10.444  21.302  0.00  0.00    +0.000 HD
ENDBRANCH  17  23
ENDBRANCH   1  17
TORSDOF 6
ENDMDL
MODEL 9
REMARK VINA RESULT:      -6.6      1.168      1.448
REMARK  Name = 
REMARK  11 active torsions:
REMARK  status: ('A' for Active; 'I' for Inactive)
REMARK    1  A    between atoms: C_1  and  N_2
REMARK    2  A    between atoms: C_6  and  C_7
REMARK    3  A    between atoms: C_7  and  C_8
REMARK    4  A    between atoms: C_10  and  O_11
REMARK    5  A    between atoms: O_11  and  C_12
REMARK    6  A    between atoms: C_13  and  O_14
REMARK    7  A    between atoms: O_14  and  C_15
REMARK    8  A    between atoms: C_17  and  S_18
REMARK    9  A    between atoms: S_18  and  N_21
REMARK   10  A    between atoms: N_21  and  C_22
REMARK   11  A    between atoms: N_21  and  C_23
REMARK                            x       y       z     vdW  Elec       q    Type
REMARK                         _______ _______ _______ _____ _____    ______ ____
ROOT
ATOM      1  C   UNL     1       4.075   5.693  18.589  0.00  0.00    +0.000 A 
ATOM      2  C   UNL     1       4.911   6.690  18.035  0.00  0.00    +0.000 A 
ATOM      3  C   UNL     1       5.970   6.388  17.172  0.00  0.00    +0.000 A 
ATOM      4  C   UNL     1       6.215   5.054  16.823  0.00  0.00    +0.000 A 
ATOM      5  C   UNL     1       5.377   4.059  17.329  0.00  0.00    +0.000 A 
ATOM      6  C   UNL     1       4.302   4.360  18.195  0.00  0.00    +0.000 A 
ENDROOT
BRANCH   6   7
ATOM      7  S   UNL     1       3.376   2.932  18.771  0.00  0.00    +0.000 S 
ATOM      8  O   UNL     1       3.656   1.848  17.848  0.00  0.00    +0.000 OA
ATOM      9  O   UNL     1       3.623   2.742  20.182  0.00  0.00    +0.000 OA
BRANCH   7  10
ATOM     10  N   UNL     1       1.756   3.388  18.546  0.00  0.00    +0.000 NA
ATOM     11  C   UNL     1       1.401   4.119  17.318  0.00  0.00    +0.000 C 
ATOM     12  C   UNL     1       0.719   2.423  18.953  0.00  0.00    +0.000 C 
ENDBRANCH   7  10
ENDBRANCH   6   7
BRANCH   3  13
ATOM     13  O   UNL     1       6.803   7.336  16.629  0.00  0.00    +0.000 OA
ATOM     14  C   UNL     1       7.700   7.980  17.525  0.00  0.00    +0.000 C 
ENDBRANCH   3  13
BRANCH   4  15
ATOM     15  O   UNL     1       7.288   4.816  16.002  0.00  0.00    +0.000 OA
ATOM     16  C   UNL     1       7.021   4.593  14.622  0.00  0.00    +0.000 C 
ENDBRANCH   4  15
BRANCH   1  17
ATOM     17  C   UNL     1       3.054   6.176  19.601  0.00  0.00    +0.000 C 
BRANCH  17  23
ATOM     18  C   UNL     1      -1.044  10.463  18.434  0.00  0.00    +0.000 C 
ATOM     19  N   UNL     1      -0.049  10.261  19.471  0.00  0.00    +0.000 N 
ATOM     20  C   UNL     1       0.915   9.348  19.201  0.00  0.00    +0.000 A 
ATOM     21  N   UNL     1       1.385   9.039  18.011  0.00  0.00    +0.000 NA
ATOM     22  N   UNL     1       2.227   7.947  18.033  0.00  0.00    +0.000 NA
ATOM     23  C   UNL     1       2.370   7.462  19.247  0.00  0.00    +0.000 A 
ATOM     24  S   UNL     1       1.586   8.390  20.465  0.00  0.00    +0.000 S 
ATOM     25  H   UNL     1      -0.437  10.218  20.407  0.00  0.00    +0.000 HD
ENDBRANCH  17  23
ENDBRANCH   1  17
TORSDOF 6
ENDMDL
