MODEL 1
REMARK VINA RESULT:      -7.2      0.000      0.000
REMARK  Name = 
REMARK  8 active torsions:
REMARK  status: ('A' for Active; 'I' for Inactive)
REMARK    1  A    between atoms: C_1  and  C_2
REMARK    2  A    between atoms: C_2  and  C_3
REMARK    3  A    between atoms: C_2  and  C_4
REMARK    4  A    between atoms: C_4  and  N_5
REMARK    5  A    between atoms: C_8  and  C_9
REMARK    6  A    between atoms: C_9  and  N_10
REMARK    7  A    between atoms: C_11  and  C_13
REMARK    8  A    between atoms: N_17  and  C_18
REMARK                            x       y       z     vdW  Elec       q    Type
REMARK                         _______ _______ _______ _____ _____    ______ ____
ROOT
ATOM      1  N   UNL     1       2.096   5.021  20.325  0.00  0.00    +0.000 N 
ATOM      2  C   UNL     1       2.963   5.998  19.883  0.00  0.00    +0.000 C 
ATOM      3  O   UNL     1       4.182   5.877  19.854  0.00  0.00    +0.000 OA
ATOM      4  H   UNL     1       1.100   5.137  20.201  0.00  0.00    +0.000 HD
ENDROOT
BRANCH   2   5
ATOM      5  C   UNL     1       2.323   7.240  19.404  0.00  0.00    +0.000 A 
ATOM      6  C   UNL     1       2.420   7.651  18.076  0.00  0.00    +0.000 A 
ATOM      7  C   UNL     1       1.832   8.851  17.697  0.00  0.00    +0.000 A 
ATOM      8  C   UNL     1       1.172   9.629  18.646  0.00  0.00    +0.000 A 
ATOM      9  N   UNL     1       0.692  10.883  18.215  0.00  0.00    +0.000 N 
ATOM     10  N   UNL     1       1.052   9.237  19.932  0.00  0.00    +0.000 NA
ATOM     11  C   UNL     1       1.605   8.043  20.280  0.00  0.00    +0.000 A 
ATOM     12  H   UNL     1       0.077  10.753  17.420  0.00  0.00    +0.000 HD
BRANCH   9  13
ATOM     13  C   UNL     1       0.268  11.929  19.092  0.00  0.00    +0.000 C 
ATOM     14  C   UNL     1       1.369  12.987  19.307  0.00  0.00    +0.000 C 
ATOM     15  C   UNL     1       0.404  14.075  18.818  0.00  0.00    +0.000 C 
ATOM     16  C   UNL     1      -0.547  12.984  18.312  0.00  0.00    +0.000 C 
ENDBRANCH   9  13
ENDBRANCH   2   5
BRANCH   1  17
ATOM     17  C   UNL     1       2.556   3.772  20.895  0.00  0.00    +0.000 C 
BRANCH  17  21
ATOM     18  N   UNL     1       3.720   2.724  17.662  0.00  0.00    +0.000 NA
ATOM     19  C   UNL     1       2.353   2.193  17.538  0.00  0.00    +0.000 C 
ATOM     20  C   UNL     1       1.616   2.754  18.740  0.00  0.00    +0.000 C 
ATOM     21  C   UNL     1       2.663   2.668  19.847  0.00  0.00    +0.000 C 
ATOM     22  C   UNL     1       4.005   2.724  19.109  0.00  0.00    +0.000 C 
BRANCH  18  23
ATOM     23  C   UNL     1       3.846   4.057  17.043  0.00  0.00    +0.000 C 
BRANCH  23  25
ATOM     24  C   UNL     1       5.896   3.739  15.561  0.00  0.00    +0.000 C 
ATOM     25  C   UNL     1       5.308   4.477  16.764  0.00  0.00    +0.000 C 
ATOM     26  C   UNL     1       5.398   5.991  16.558  0.00  0.00    +0.000 C 
ENDBRANCH  23  25
ENDBRANCH  18  23
ENDBRANCH  17  21
ENDBRANCH   1  17
TORSDOF 6
ENDMDL
MODEL 2
REMARK VINA RESULT:      -7.2      3.796      6.015
REMARK  Name = 
REMARK  8 active torsions:
REMARK  status: ('A' for Active; 'I' for Inactive)
REMARK    1  A    between atoms: C_1  and  C_2
REMARK    2  A    between atoms: C_2  and  C_3
REMARK    3  A    between atoms: C_2  and  C_4
REMARK    4  A    between atoms: C_4  and  N_5
REMARK    5  A    between atoms: C_8  and  C_9
REMARK    6  A    between atoms: C_9  and  N_10
REMARK    7  A    between atoms: C_11  and  C_13
REMARK    8  A    between atoms: N_17  and  C_18
REMARK                            x       y       z     vdW  Elec       q    Type
REMARK                         _______ _______ _______ _____ _____    ______ ____
ROOT
ATOM      1  N   UNL     1       4.892   3.703  17.924  0.00  0.00    +0.000 N 
ATOM      2  C   UNL     1       5.350   4.594  16.977  0.00  0.00    +0.000 C 
ATOM      3  O   UNL     1       4.989   4.604  15.806  0.00  0.00    +0.000 OA
ATOM      4  H   UNL     1       5.133   3.832  18.897  0.00  0.00    +0.000 HD
ENDROOT
BRANCH   2   5
ATOM      5  C   UNL     1       6.324   5.592  17.467  0.00  0.00    +0.000 A 
ATOM      6  C   UNL     1       7.237   5.291  18.475  0.00  0.00    +0.000 A 
ATOM      7  C   UNL     1       8.098   6.285  18.922  0.00  0.00    +0.000 A 
ATOM      8  C   UNL     1       8.026   7.564  18.373  0.00  0.00    +0.000 A 
ATOM      9  N   UNL     1       8.854   8.549  18.948  0.00  0.00    +0.000 N 
ATOM     10  N   UNL     1       7.160   7.866  17.382  0.00  0.00    +0.000 NA
ATOM     11  C   UNL     1       6.347   6.872  16.932  0.00  0.00    +0.000 A 
ATOM     12  H   UNL     1       9.818   8.238  18.916  0.00  0.00    +0.000 HD
BRANCH   9  13
ATOM     13  C   UNL     1       8.706   9.954  18.730  0.00  0.00    +0.000 C 
ATOM     14  C   UNL     1       9.266  10.784  19.903  0.00  0.00    +0.000 C 
ATOM     15  C   UNL     1      10.186  11.525  18.925  0.00  0.00    +0.000 C 
ATOM     16  C   UNL     1       9.859  10.483  17.849  0.00  0.00    +0.000 C 
ENDBRANCH   9  13
ENDBRANCH   2   5
BRANCH   1  17
ATOM     17  C   UNL     1       3.991   2.617  17.600  0.00  0.00    +0.000 C 
BRANCH  17  21
ATOM     18  N   UNL     1       1.623   4.590  19.443  0.00  0.00    +0.000 NA
ATOM     19  C   UNL     1       1.759   3.509  20.432  0.00  0.00    +0.000 C 
ATOM     20  C   UNL     1       2.921   2.675  19.927  0.00  0.00    +0.000 C 
ATOM     21  C   UNL     1       2.703   2.675  18.416  0.00  0.00    +0.000 C 
ATOM     22  C   UNL     1       1.923   3.964  18.142  0.00  0.00    +0.000 C 
BRANCH  18  23
ATOM     23  C   UNL     1       2.502   5.732  19.759  0.00  0.00    +0.000 C 
BRANCH  23  25
ATOM     24  C   UNL     1       1.760   8.086  20.395  0.00  0.00    +0.000 C 
ATOM     25  C   UNL     1       1.963   7.090  19.253  0.00  0.00    +0.000 C 
ATOM     26  C   UNL     1       2.900   7.675  18.194  0.00  0.00    +0.000 C 
ENDBRANCH  23  25
ENDBRANCH  18  23
ENDBRANCH  17  21
ENDBRANCH   1  17
TORSDOF 6
ENDMDL
MODEL 3
REMARK VINA RESULT:      -7.1      3.235      3.835
REMARK  Name = 
REMARK  8 active torsions:
REMARK  status: ('A' for Active; 'I' for Inactive)
REMARK    1  A    between atoms: C_1  and  C_2
REMARK    2  A    between atoms: C_2  and  C_3
REMARK    3  A    between atoms: C_2  and  C_4
REMARK    4  A    between atoms: C_4  and  N_5
REMARK    5  A    between atoms: C_8  and  C_9
REMARK    6  A    between atoms: C_9  and  N_10
REMARK    7  A    between atoms: C_11  and  C_13
REMARK    8  A    between atoms: N_17  and  C_18
REMARK                            x       y       z     vdW  Elec       q    Type
REMARK                         _______ _______ _______ _____ _____    ______ ____
ROOT
ATOM      1  N   UNL     1       2.016   7.602  19.727  0.00  0.00    +0.000 N 
ATOM      2  C   UNL     1       1.445   8.806  19.372  0.00  0.00    +0.000 C 
ATOM      3  O   UNL     1       1.524   9.305  18.256  0.00  0.00    +0.000 OA
ATOM      4  H   UNL     1       1.804   7.187  20.624  0.00  0.00    +0.000 HD
ENDROOT
BRANCH   2   5
ATOM      5  C   UNL     1       0.684   9.483  20.442  0.00  0.00    +0.000 A 
ATOM      6  C   UNL     1       0.580   8.944  21.723  0.00  0.00    +0.000 A 
ATOM      7  C   UNL     1      -0.185   9.607  22.674  0.00  0.00    +0.000 A 
ATOM      8  C   UNL     1      -0.848  10.784  22.331  0.00  0.00    +0.000 A 
ATOM      9  N   UNL     1      -1.691  11.345  23.312  0.00  0.00    +0.000 N 
ATOM     10  N   UNL     1      -0.742  11.330  21.101  0.00  0.00    +0.000 NA
ATOM     11  C   UNL     1       0.038  10.686  20.191  0.00  0.00    +0.000 A 
ATOM     12  H   UNL     1      -1.160  11.510  24.159  0.00  0.00    +0.000 HD
BRANCH   9  13
ATOM     13  C   UNL     1      -2.667  12.358  23.053  0.00  0.00    +0.000 C 
ATOM     14  C   UNL     1      -3.768  12.391  24.132  0.00  0.00    +0.000 C 
ATOM     15  C   UNL     1      -3.450  13.869  24.394  0.00  0.00    +0.000 C 
ATOM     16  C   UNL     1      -2.168  13.726  23.566  0.00  0.00    +0.000 C 
ENDBRANCH   9  13
ENDBRANCH   2   5
BRANCH   1  17
ATOM     17  C   UNL     1       2.855   6.842  18.824  0.00  0.00    +0.000 C 
BRANCH  17  21
ATOM     18  N   UNL     1       3.915   3.511  18.001  0.00  0.00    +0.000 NA
ATOM     19  C   UNL     1       2.478   3.301  17.765  0.00  0.00    +0.000 C 
ATOM     20  C   UNL     1       1.874   4.691  17.836  0.00  0.00    +0.000 C 
ATOM     21  C   UNL     1       2.651   5.337  18.979  0.00  0.00    +0.000 C 
ATOM     22  C   UNL     1       3.989   4.591  19.002  0.00  0.00    +0.000 C 
BRANCH  18  23
ATOM     23  C   UNL     1       4.634   3.823  16.751  0.00  0.00    +0.000 C 
BRANCH  23  25
ATOM     24  C   UNL     1       7.074   4.558  16.708  0.00  0.00    +0.000 C 
ATOM     25  C   UNL     1       5.622   5.005  16.881  0.00  0.00    +0.000 C 
ATOM     26  C   UNL     1       5.277   6.102  15.871  0.00  0.00    +0.000 C 
ENDBRANCH  23  25
ENDBRANCH  18  23
ENDBRANCH  17  21
ENDBRANCH   1  17
TORSDOF 6
ENDMDL
MODEL 4
REMARK VINA RESULT:      -6.8      5.569      8.758
REMARK  Name = 
REMARK  8 active torsions:
REMARK  status: ('A' for Active; 'I' for Inactive)
REMARK    1  A    between atoms: C_1  and  C_2
REMARK    2  A    between atoms: C_2  and  C_3
REMARK    3  A    between atoms: C_2  and  C_4
REMARK    4  A    between atoms: C_4  and  N_5
REMARK    5  A    between atoms: C_8  and  C_9
REMARK    6  A    between atoms: C_9  and  N_10
REMARK    7  A    between atoms: C_11  and  C_13
REMARK    8  A    between atoms: N_17  and  C_18
REMARK                            x       y       z     vdW  Elec       q    Type
REMARK                         _______ _______ _______ _____ _____    ______ ____
ROOT
ATOM      1  N   UNL     1       7.333   7.857  17.868  0.00  0.00    +0.000 N 
ATOM      2  C   UNL     1       7.069   6.741  17.103  0.00  0.00    +0.000 C 
ATOM      3  O   UNL     1       7.701   6.424  16.102  0.00  0.00    +0.000 OA
ATOM      4  H   UNL     1       6.858   7.988  18.750  0.00  0.00    +0.000 HD
ENDROOT
BRANCH   2   5
ATOM      5  C   UNL     1       5.952   5.898  17.580  0.00  0.00    +0.000 A 
ATOM      6  C   UNL     1       5.174   5.147  16.703  0.00  0.00    +0.000 A 
ATOM      7  C   UNL     1       4.111   4.408  17.209  0.00  0.00    +0.000 A 
ATOM      8  C   UNL     1       3.831   4.442  18.573  0.00  0.00    +0.000 A 
ATOM      9  N   UNL     1       2.676   3.756  19.001  0.00  0.00    +0.000 N 
ATOM     10  N   UNL     1       4.587   5.150  19.439  0.00  0.00    +0.000 NA
ATOM     11  C   UNL     1       5.644   5.841  18.933  0.00  0.00    +0.000 A 
ATOM     12  H   UNL     1       2.732   2.788  18.708  0.00  0.00    +0.000 HD
BRANCH   9  13
ATOM     13  C   UNL     1       2.067   3.923  20.283  0.00  0.00    +0.000 C 
ATOM     14  C   UNL     1       0.756   3.121  20.412  0.00  0.00    +0.000 C 
ATOM     15  C   UNL     1       1.326   2.410  21.647  0.00  0.00    +0.000 C 
ATOM     16  C   UNL     1       2.714   2.968  21.310  0.00  0.00    +0.000 C 
ENDBRANCH   9  13
ENDBRANCH   2   5
BRANCH   1  17
ATOM     17  C   UNL     1       8.344   8.828  17.505  0.00  0.00    +0.000 C 
BRANCH  17  21
ATOM     18  N   UNL     1       9.887  11.908  18.521  0.00  0.00    +0.000 NA
ATOM     19  C   UNL     1       9.751  11.326  19.866  0.00  0.00    +0.000 C 
ATOM     20  C   UNL     1       9.322   9.892  19.620  0.00  0.00    +0.000 C 
ATOM     21  C   UNL     1       8.354  10.028  18.448  0.00  0.00    +0.000 C 
ATOM     22  C   UNL     1       8.802  11.303  17.728  0.00  0.00    +0.000 C 
BRANCH  18  23
ATOM     23  C   UNL     1      11.228  11.666  17.956  0.00  0.00    +0.000 C 
BRANCH  23  25
ATOM     24  C   UNL     1      11.317  13.899  16.729  0.00  0.00    +0.000 C 
ATOM     25  C   UNL     1      12.036  12.959  17.698  0.00  0.00    +0.000 C 
ATOM     26  C   UNL     1      12.330  13.677  19.017  0.00  0.00    +0.000 C 
ENDBRANCH  23  25
ENDBRANCH  18  23
ENDBRANCH  17  21
ENDBRANCH   1  17
TORSDOF 6
ENDMDL
MODEL 5
REMARK VINA RESULT:      -6.8      2.365      8.156
REMARK  Name = 
REMARK  8 active torsions:
REMARK  status: ('A' for Active; 'I' for Inactive)
REMARK    1  A    between atoms: C_1  and  C_2
REMARK    2  A    between atoms: C_2  and  C_3
REMARK    3  A    between atoms: C_2  and  C_4
REMARK    4  A    between atoms: C_4  and  N_5
REMARK    5  A    between atoms: C_8  and  C_9
REMARK    6  A    between atoms: C_9  and  N_10
REMARK    7  A    between atoms: C_11  and  C_13
REMARK    8  A    between atoms: N_17  and  C_18
REMARK                            x       y       z     vdW  Elec       q    Type
REMARK                         _______ _______ _______ _____ _____    ______ ____
ROOT
ATOM      1  N   UNL     1       2.246   7.715  19.245  0.00  0.00    +0.000 N 
ATOM      2  C   UNL     1       2.781   6.445  19.202  0.00  0.00    +0.000 C 
ATOM      3  O   UNL     1       2.521   5.558  20.007  0.00  0.00    +0.000 OA
ATOM      4  H   UNL     1       2.402   8.355  18.479  0.00  0.00    +0.000 HD
ENDROOT
BRANCH   2   5
ATOM      5  C   UNL     1       3.705   6.187  18.078  0.00  0.00    +0.000 A 
ATOM      6  C   UNL     1       4.196   7.219  17.281  0.00  0.00    +0.000 A 
ATOM      7  C   UNL     1       5.029   6.908  16.213  0.00  0.00    +0.000 A 
ATOM      8  C   UNL     1       5.344   5.578  15.945  0.00  0.00    +0.000 A 
ATOM      9  N   UNL     1       6.105   5.327  14.785  0.00  0.00    +0.000 N 
ATOM     10  N   UNL     1       4.893   4.568  16.719  0.00  0.00    +0.000 NA
ATOM     11  C   UNL     1       4.106   4.892  17.781  0.00  0.00    +0.000 A 
ATOM     12  H   UNL     1       6.965   5.861  14.825  0.00  0.00    +0.000 HD
BRANCH   9  13
ATOM     13  C   UNL     1       6.268   4.037  14.190  0.00  0.00    +0.000 C 
ATOM     14  C   UNL     1       5.088   3.672  13.266  0.00  0.00    +0.000 C 
ATOM     15  C   UNL     1       6.074   3.464  12.109  0.00  0.00    +0.000 C 
ATOM     16  C   UNL     1       7.172   4.135  12.942  0.00  0.00    +0.000 C 
ENDBRANCH   9  13
ENDBRANCH   2   5
BRANCH   1  17
ATOM     17  C   UNL     1       1.380   8.158  20.317  0.00  0.00    +0.000 C 
BRANCH  17  21
ATOM     18  N   UNL     1      -0.852  10.690  19.090  0.00  0.00    +0.000 NA
ATOM     19  C   UNL     1       0.399  11.334  18.658  0.00  0.00    +0.000 C 
ATOM     20  C   UNL     1       1.467  10.281  18.885  0.00  0.00    +0.000 C 
ATOM     21  C   UNL     1       1.033   9.640  20.201  0.00  0.00    +0.000 C 
ATOM     22  C   UNL     1      -0.481   9.867  20.255  0.00  0.00    +0.000 C 
BRANCH  18  23
ATOM     23  C   UNL     1      -1.470   9.914  17.999  0.00  0.00    +0.000 C 
BRANCH  23  25
ATOM     24  C   UNL     1      -2.777   9.963  15.810  0.00  0.00    +0.000 C 
ATOM     25  C   UNL     1      -2.296  10.774  17.015  0.00  0.00    +0.000 C 
ATOM     26  C   UNL     1      -3.484  11.416  17.734  0.00  0.00    +0.000 C 
ENDBRANCH  23  25
ENDBRANCH  18  23
ENDBRANCH  17  21
ENDBRANCH   1  17
TORSDOF 6
ENDMDL
MODEL 6
REMARK VINA RESULT:      -6.6      1.685      3.502
REMARK  Name = 
REMARK  8 active torsions:
REMARK  status: ('A' for Active; 'I' for Inactive)
REMARK    1  A    between atoms: C_1  and  C_2
REMARK    2  A    between atoms: C_2  and  C_3
REMARK    3  A    between atoms: C_2  and  C_4
REMARK    4  A    between atoms: C_4  and  N_5
REMARK    5  A    between atoms: C_8  and  C_9
REMARK    6  A    between atoms: C_9  and  N_10
REMARK    7  A    between atoms: C_11  and  C_13
REMARK    8  A    between atoms: N_17  and  C_18
REMARK                            x       y       z     vdW  Elec       q    Type
REMARK                         _______ _______ _______ _____ _____    ______ ____
ROOT
ATOM      1  N   UNL     1       3.386   5.279  17.441  0.00  0.00    +0.000 N 
ATOM      2  C   UNL     1       3.784   6.598  17.382  0.00  0.00    +0.000 C 
ATOM      3  O   UNL     1       4.758   6.998  16.755  0.00  0.00    +0.000 OA
ATOM      4  H   UNL     1       2.503   5.036  17.868  0.00  0.00    +0.000 HD
ENDROOT
BRANCH   2   5
ATOM      5  C   UNL     1       2.931   7.548  18.127  0.00  0.00    +0.000 A 
ATOM      6  C   UNL     1       2.417   7.241  19.384  0.00  0.00    +0.000 A 
ATOM      7  C   UNL     1       1.587   8.159  20.015  0.00  0.00    +0.000 A 
ATOM      8  C   UNL     1       1.268   9.357  19.378  0.00  0.00    +0.000 A 
ATOM      9  N   UNL     1       0.337  10.192  20.028  0.00  0.00    +0.000 N 
ATOM     10  N   UNL     1       1.773   9.678  18.168  0.00  0.00    +0.000 NA
ATOM     11  C   UNL     1       2.612   8.783  17.579  0.00  0.00    +0.000 A 
ATOM     12  H   UNL     1       0.667  10.402  20.962  0.00  0.00    +0.000 HD
BRANCH   9  13
ATOM     13  C   UNL     1      -0.332  11.292  19.405  0.00  0.00    +0.000 C 
ATOM     14  C   UNL     1      -1.571  10.840  18.606  0.00  0.00    +0.000 C 
ATOM     15  C   UNL     1      -2.440  11.797  19.433  0.00  0.00    +0.000 C 
ATOM     16  C   UNL     1      -1.275  11.984  20.413  0.00  0.00    +0.000 C 
ENDBRANCH   9  13
ENDBRANCH   2   5
BRANCH   1  17
ATOM     17  C   UNL     1       4.147   4.209  16.830  0.00  0.00    +0.000 C 
BRANCH  17  21
ATOM     18  N   UNL     1       3.231   1.711  19.243  0.00  0.00    +0.000 NA
ATOM     19  C   UNL     1       4.234   2.398  20.072  0.00  0.00    +0.000 C 
ATOM     20  C   UNL     1       4.576   3.655  19.294  0.00  0.00    +0.000 C 
ATOM     21  C   UNL     1       4.589   3.163  17.850  0.00  0.00    +0.000 C 
ATOM     22  C   UNL     1       3.652   1.950  17.851  0.00  0.00    +0.000 C 
BRANCH  18  23
ATOM     23  C   UNL     1       1.866   2.189  19.531  0.00  0.00    +0.000 C 
BRANCH  23  25
ATOM     24  C   UNL     1       0.886   4.364  20.430  0.00  0.00    +0.000 C 
ATOM     25  C   UNL     1       1.790   3.167  20.727  0.00  0.00    +0.000 C 
ATOM     26  C   UNL     1       1.313   2.437  21.984  0.00  0.00    +0.000 C 
ENDBRANCH  23  25
ENDBRANCH  18  23
ENDBRANCH  17  21
ENDBRANCH   1  17
TORSDOF 6
ENDMDL
MODEL 7
REMARK VINA RESULT:      -6.6      2.855      3.521
REMARK  Name = 
REMARK  8 active torsions:
REMARK  status: ('A' for Active; 'I' for Inactive)
REMARK    1  A    between atoms: C_1  and  C_2
REMARK    2  A    between atoms: C_2  and  C_3
REMARK    3  A    between atoms: C_2  and  C_4
REMARK    4  A    between atoms: C_4  and  N_5
REMARK    5  A    between atoms: C_8  and  C_9
REMARK    6  A    between atoms: C_9  and  N_10
REMARK    7  A    between atoms: C_11  and  C_13
REMARK    8  A    between atoms: N_17  and  C_18
REMARK                            x       y       z     vdW  Elec       q    Type
REMARK                         _______ _______ _______ _____ _____    ______ ____
ROOT
ATOM      1  N   UNL     1       1.879   7.934  18.921  0.00  0.00    +0.000 N 
ATOM      2  C   UNL     1       1.600   9.199  18.449  0.00  0.00    +0.000 C 
ATOM      3  O   UNL     1       2.076   9.675  17.425  0.00  0.00    +0.000 OA
ATOM      4  H   UNL     1       1.354   7.558  19.698  0.00  0.00    +0.000 HD
ENDROOT
BRANCH   2   5
ATOM      5  C   UNL     1       0.641   9.978  19.260  0.00  0.00    +0.000 A 
ATOM      6  C   UNL     1      -0.341  10.772  18.673  0.00  0.00    +0.000 A 
ATOM      7  C   UNL     1      -1.186  11.513  19.490  0.00  0.00    +0.000 A 
ATOM      8  C   UNL     1      -1.028  11.467  20.874  0.00  0.00    +0.000 A 
ATOM      9  N   UNL     1      -1.847  12.325  21.634  0.00  0.00    +0.000 N 
ATOM     10  N   UNL     1      -0.094  10.688  21.459  0.00  0.00    +0.000 NA
ATOM     11  C   UNL     1       0.703   9.942  20.647  0.00  0.00    +0.000 A 
ATOM     12  H   UNL     1      -2.820  12.145  21.415  0.00  0.00    +0.000 HD
BRANCH   9  13
ATOM     13  C   UNL     1      -1.629  12.637  23.012  0.00  0.00    +0.000 C 
ATOM     14  C   UNL     1      -1.003  14.034  23.198  0.00  0.00    +0.000 C 
ATOM     15  C   UNL     1      -2.175  14.427  24.107  0.00  0.00    +0.000 C 
ATOM     16  C   UNL     1      -2.929  13.171  23.652  0.00  0.00    +0.000 C 
ENDBRANCH   9  13
ENDBRANCH   2   5
BRANCH   1  17
ATOM     17  C   UNL     1       2.850   7.065  18.290  0.00  0.00    +0.000 C 
BRANCH  17  21
ATOM     18  N   UNL     1       4.082   3.692  18.192  0.00  0.00    +0.000 NA
ATOM     19  C   UNL     1       2.656   3.364  18.032  0.00  0.00    +0.000 C 
ATOM     20  C   UNL     1       1.979   4.703  17.811  0.00  0.00    +0.000 C 
ATOM     21  C   UNL     1       2.728   5.621  18.772  0.00  0.00    +0.000 C 
ATOM     22  C   UNL     1       4.104   4.967  18.932  0.00  0.00    +0.000 C 
BRANCH  18  23
ATOM     23  C   UNL     1       4.774   3.760  16.891  0.00  0.00    +0.000 C 
BRANCH  23  25
ATOM     24  C   UNL     1       7.178   4.586  16.684  0.00  0.00    +0.000 C 
ATOM     25  C   UNL     1       5.703   4.988  16.745  0.00  0.00    +0.000 C 
ATOM     26  C   UNL     1       5.321   5.803  15.508  0.00  0.00    +0.000 C 
ENDBRANCH  23  25
ENDBRANCH  18  23
ENDBRANCH  17  21
ENDBRANCH   1  17
TORSDOF 6
ENDMDL
MODEL 8
REMARK VINA RESULT:      -6.6      2.995      4.284
REMARK  Name = 
REMARK  8 active torsions:
REMARK  status: ('A' for Active; 'I' for Inactive)
REMARK    1  A    between atoms: C_1  and  C_2
REMARK    2  A    between atoms: C_2  and  C_3
REMARK    3  A    between atoms: C_2  and  C_4
REMARK    4  A    between atoms: C_4  and  N_5
REMARK    5  A    between atoms: C_8  and  C_9
REMARK    6  A    between atoms: C_9  and  N_10
REMARK    7  A    between atoms: C_11  and  C_13
REMARK    8  A    between atoms: N_17  and  C_18
REMARK                            x       y       z     vdW  Elec       q    Type
REMARK                         _______ _______ _______ _____ _____    ______ ____
ROOT
ATOM      1  N   UNL     1       1.776   8.766  17.728  0.00  0.00    +0.000 N 
ATOM      2  C   UNL     1       1.160   9.362  18.808  0.00  0.00    +0.000 C 
ATOM      3  O   UNL     1       1.568   9.293  19.961  0.00  0.00    +0.000 OA
ATOM      4  H   UNL     1       1.461   8.970  16.790  0.00  0.00    +0.000 HD
ENDROOT
BRANCH   2   5
ATOM      5  C   UNL     1      -0.056  10.140  18.490  0.00  0.00    +0.000 A 
ATOM      6  C   UNL     1      -0.265  11.417  19.005  0.00  0.00    +0.000 A 
ATOM      7  C   UNL     1      -1.448  12.080  18.703  0.00  0.00    +0.000 A 
ATOM      8  C   UNL     1      -2.409  11.457  17.909  0.00  0.00    +0.000 A 
ATOM      9  N   UNL     1      -3.627  12.143  17.732  0.00  0.00    +0.000 N 
ATOM     10  N   UNL     1      -2.213  10.228  17.386  0.00  0.00    +0.000 NA
ATOM     11  C   UNL     1      -1.035   9.606  17.663  0.00  0.00    +0.000 A 
ATOM     12  H   UNL     1      -3.443  13.064  17.352  0.00  0.00    +0.000 HD
BRANCH   9  13
ATOM     13  C   UNL     1      -4.820  11.547  17.216  0.00  0.00    +0.000 C 
ATOM     14  C   UNL     1      -5.645  10.853  18.319  0.00  0.00    +0.000 C 
ATOM     15  C   UNL     1      -6.854  11.721  17.946  0.00  0.00    +0.000 C 
ATOM     16  C   UNL     1      -5.937  12.607  17.095  0.00  0.00    +0.000 C 
ENDBRANCH   9  13
ENDBRANCH   2   5
BRANCH   1  17
ATOM     17  C   UNL     1       2.935   7.909  17.869  0.00  0.00    +0.000 C 
BRANCH  17  21
ATOM     18  N   UNL     1       3.819   4.530  18.705  0.00  0.00    +0.000 NA
ATOM     19  C   UNL     1       2.391   4.281  18.450  0.00  0.00    +0.000 C 
ATOM     20  C   UNL     1       1.881   5.574  17.844  0.00  0.00    +0.000 C 
ATOM     21  C   UNL     1       2.618   6.638  18.653  0.00  0.00    +0.000 C 
ATOM     22  C   UNL     1       3.896   5.939  19.128  0.00  0.00    +0.000 C 
BRANCH  18  23
ATOM     23  C   UNL     1       4.644   4.230  17.519  0.00  0.00    +0.000 C 
BRANCH  23  25
ATOM     24  C   UNL     1       7.118   4.800  17.289  0.00  0.00    +0.000 C 
ATOM     25  C   UNL     1       5.685   5.326  17.194  0.00  0.00    +0.000 C 
ATOM     26  C   UNL     1       5.424   5.916  15.806  0.00  0.00    +0.000 C 
ENDBRANCH  23  25
ENDBRANCH  18  23
ENDBRANCH  17  21
ENDBRANCH   1  17
TORSDOF 6
ENDMDL
MODEL 9
REMARK VINA RESULT:      -6.5      2.600      3.812
REMARK  Name = 
REMARK  8 active torsions:
REMARK  status: ('A' for Active; 'I' for Inactive)
REMARK    1  A    between atoms: C_1  and  C_2
REMARK    2  A    between atoms: C_2  and  C_3
REMARK    3  A    between atoms: C_2  and  C_4
REMARK    4  A    between atoms: C_4  and  N_5
REMARK    5  A    between atoms: C_8  and  C_9
REMARK    6  A    between atoms: C_9  and  N_10
REMARK    7  A    between atoms: C_11  and  C_13
REMARK    8  A    between atoms: N_17  and  C_18
REMARK                            x       y       z     vdW  Elec       q    Type
REMARK                         _______ _______ _______ _____ _____    ______ ____
ROOT
ATOM      1  N   UNL     1       2.345   6.966  19.506  0.00  0.00    +0.000 N 
ATOM      2  C   UNL     1       2.145   8.158  18.843  0.00  0.00    +0.000 C 
ATOM      3  O   UNL     1       2.702   8.469  17.797  0.00  0.00    +0.000 OA
ATOM      4  H   UNL     1       1.759   6.720  20.291  0.00  0.00    +0.000 HD
ENDROOT
BRANCH   2   5
ATOM      5  C   UNL     1       1.167   9.072  19.469  0.00  0.00    +0.000 A 
ATOM      6  C   UNL     1       0.461  10.013  18.724  0.00  0.00    +0.000 A 
ATOM      7  C   UNL     1      -0.413  10.873  19.378  0.00  0.00    +0.000 A 
ATOM      8  C   UNL     1      -0.557  10.794  20.762  0.00  0.00    +0.000 A 
ATOM      9  N   UNL     1      -1.377  11.765  21.371  0.00  0.00    +0.000 N 
ATOM     10  N   UNL     1       0.106   9.875  21.497  0.00  0.00    +0.000 NA
ATOM     11  C   UNL     1       0.932   9.019  20.837  0.00  0.00    +0.000 A 
ATOM     12  H   UNL     1      -2.299  11.740  20.950  0.00  0.00    +0.000 HD
BRANCH   9  13
ATOM     13  C   UNL     1      -1.406  12.031  22.776  0.00  0.00    +0.000 C 
ATOM     14  C   UNL     1      -1.186  13.525  23.088  0.00  0.00    +0.000 C 
ATOM     15  C   UNL     1      -2.517  13.549  23.852  0.00  0.00    +0.000 C 
ATOM     16  C   UNL     1      -2.865  12.177  23.262  0.00  0.00    +0.000 C 
ENDBRANCH   9  13
ENDBRANCH   2   5
BRANCH   1  17
ATOM     17  C   UNL     1       3.320   5.988  19.070  0.00  0.00    +0.000 C 
BRANCH  17  21
ATOM     18  N   UNL     1       1.692   3.020  17.870  0.00  0.00    +0.000 NA
ATOM     19  C   UNL     1       2.827   2.990  16.933  0.00  0.00    +0.000 C 
ATOM     20  C   UNL     1       3.774   4.059  17.447  0.00  0.00    +0.000 C 
ATOM     21  C   UNL     1       2.821   5.169  17.883  0.00  0.00    +0.000 C 
ATOM     22  C   UNL     1       1.514   4.442  18.214  0.00  0.00    +0.000 C 
BRANCH  18  23
ATOM     23  C   UNL     1       1.932   2.161  19.044  0.00  0.00    +0.000 C 
BRANCH  23  25
ATOM     24  C   UNL     1       1.308   2.716  21.453  0.00  0.00    +0.000 C 
ATOM     25  C   UNL     1       2.311   2.946  20.322  0.00  0.00    +0.000 C 
ATOM     26  C   UNL     1       3.723   2.574  20.777  0.00  0.00    +0.000 C 
ENDBRANCH  23  25
ENDBRANCH  18  23
ENDBRANCH  17  21
ENDBRANCH   1  17
TORSDOF 6
ENDMDL
