MODEL 1
REMARK VINA RESULT:      -7.8      0.000      0.000
REMARK  Name = 
REMARK  9 active torsions:
REMARK  status: ('A' for Active; 'I' for Inactive)
REMARK    1  A    between atoms: C_2  and  C_3
REMARK    2  A    between atoms: N_5  and  C_6
REMARK    3  A    between atoms: C_10  and  C_11
REMARK    4  A    between atoms: C_13  and  N_14
REMARK    5  A    between atoms: N_14  and  C_15
REMARK    6  A    between atoms: N_18  and  C_19
REMARK    7  A    between atoms: C_19  and  C_20
REMARK    8  A    between atoms: C_20  and  O_21
REMARK    9  A    between atoms: O_21  and  C_22
REMARK                            x       y       z     vdW  Elec       q    Type
REMARK                         _______ _______ _______ _____ _____    ______ ____
ROOT
ATOM      1  C   UNL     1       3.511   5.017  18.972  0.00  0.00    +0.000 A 
ATOM      2  C   UNL     1       3.220   6.129  19.748  0.00  0.00    +0.000 A 
ATOM      3  C   UNL     1       2.041   6.126  20.463  0.00  0.00    +0.000 A 
ATOM      4  N   UNL     1       1.201   5.082  20.419  0.00  0.00    +0.000 NA
ATOM      5  C   UNL     1       1.549   4.059  19.628  0.00  0.00    +0.000 A 
ATOM      6  N   UNL     1       2.672   3.966  18.901  0.00  0.00    +0.000 NA
ENDROOT
BRANCH   1  11
ATOM      7  C   UNL     1       6.049   4.159  16.272  0.00  0.00    +0.000 A 
ATOM      8  C   UNL     1       7.239   4.470  16.936  0.00  0.00    +0.000 A 
ATOM      9  C   UNL     1       7.218   5.017  18.213  0.00  0.00    +0.000 A 
ATOM     10  C   UNL     1       6.002   5.238  18.850  0.00  0.00    +0.000 A 
ATOM     11  C   UNL     1       4.783   4.914  18.230  0.00  0.00    +0.000 A 
ATOM     12  C   UNL     1       4.827   4.420  16.908  0.00  0.00    +0.000 A 
BRANCH   7  15
ATOM     13  C   UNL     1       6.462   4.190  13.826  0.00  0.00    +0.000 C 
ATOM     14  O   UNL     1       6.987   5.296  13.734  0.00  0.00    +0.000 OA
ATOM     15  N   UNL     1       6.031   3.573  14.985  0.00  0.00    +0.000 N 
ATOM     16  H   UNL     1       5.773   2.598  14.939  0.00  0.00    +0.000 HD
BRANCH  13  18
ATOM     17  C   UNL     1       5.106   3.386  11.958  0.00  0.00    +0.000 C 
ATOM     18  C   UNL     1       6.277   3.348  12.612  0.00  0.00    +0.000 C 
ENDBRANCH  13  18
ENDBRANCH   7  15
ENDBRANCH   1  11
BRANCH   3  19
ATOM     19  N   UNL     1       1.750   7.255  21.266  0.00  0.00    +0.000 N 
ATOM     20  H   UNL     1       2.497   7.400  21.937  0.00  0.00    +0.000 HD
BRANCH  19  21
ATOM     21  C   UNL     1       1.036   8.329  20.871  0.00  0.00    +0.000 A 
ATOM     22  C   UNL     1      -0.019   8.981  21.543  0.00  0.00    +0.000 A 
ATOM     23  N   UNL     1      -0.481  10.029  20.856  0.00  0.00    +0.000 NA
ATOM     24  N   UNL     1       0.249  10.005  19.724  0.00  0.00    +0.000 N 
ATOM     25  C   UNL     1       1.221   9.044  19.716  0.00  0.00    +0.000 A 
BRANCH  24  26
ATOM     26  C   UNL     1      -0.051  10.941  18.663  0.00  0.00    +0.000 C 
BRANCH  26  27
ATOM     27  C   UNL     1      -1.540  11.002  18.373  0.00  0.00    +0.000 C 
BRANCH  27  28
ATOM     28  O   UNL     1      -1.926   9.805  17.693  0.00  0.00    +0.000 OA
ATOM     29  C   UNL     1      -2.372  10.081  16.371  0.00  0.00    +0.000 C 
ENDBRANCH  27  28
ENDBRANCH  26  27
ENDBRANCH  24  26
ENDBRANCH  19  21
ENDBRANCH   3  19
TORSDOF 8
ENDMDL
MODEL 2
REMARK VINA RESULT:      -7.6      1.018      1.307
REMARK  Name = 
REMARK  9 active torsions:
REMARK  status: ('A' for Active; 'I' for Inactive)
REMARK    1  A    between atoms: C_2  and  C_3
REMARK    2  A    between atoms: N_5  and  C_6
REMARK    3  A    between atoms: C_10  and  C_11
REMARK    4  A    between atoms: C_13  and  N_14
REMARK    5  A    between atoms: N_14  and  C_15
REMARK    6  A    between atoms: N_18  and  C_19
REMARK    7  A    between atoms: C_19  and  C_20
REMARK    8  A    between atoms: C_20  and  O_21
REMARK    9  A    between atoms: O_21  and  C_22
REMARK                            x       y       z     vdW  Elec       q    Type
REMARK                         _______ _______ _______ _____ _____    ______ ____
ROOT
ATOM      1  C   UNL     1       3.590   4.903  18.710  0.00  0.00    +0.000 A 
ATOM      2  C   UNL     1       3.319   5.965  19.559  0.00  0.00    +0.000 A 
ATOM      3  C   UNL     1       2.131   5.943  20.259  0.00  0.00    +0.000 A 
ATOM      4  N   UNL     1       1.264   4.928  20.133  0.00  0.00    +0.000 NA
ATOM      5  C   UNL     1       1.596   3.954  19.275  0.00  0.00    +0.000 A 
ATOM      6  N   UNL     1       2.725   3.882  18.555  0.00  0.00    +0.000 NA
ENDROOT
BRANCH   1  11
ATOM      7  C   UNL     1       6.144   4.147  15.994  0.00  0.00    +0.000 A 
ATOM      8  C   UNL     1       7.331   4.403  16.685  0.00  0.00    +0.000 A 
ATOM      9  C   UNL     1       7.305   4.882  17.989  0.00  0.00    +0.000 A 
ATOM     10  C   UNL     1       6.086   5.088  18.625  0.00  0.00    +0.000 A 
ATOM     11  C   UNL     1       4.868   4.818  17.976  0.00  0.00    +0.000 A 
ATOM     12  C   UNL     1       4.919   4.395  16.630  0.00  0.00    +0.000 A 
BRANCH   7  15
ATOM     13  C   UNL     1       6.689   4.251  13.575  0.00  0.00    +0.000 C 
ATOM     14  O   UNL     1       7.338   5.293  13.569  0.00  0.00    +0.000 OA
ATOM     15  N   UNL     1       6.130   3.631  14.677  0.00  0.00    +0.000 N 
ATOM     16  H   UNL     1       5.768   2.695  14.565  0.00  0.00    +0.000 HD
BRANCH  13  18
ATOM     17  C   UNL     1       5.232   3.146  11.954  0.00  0.00    +0.000 C 
ATOM     18  C   UNL     1       6.477   3.496  12.310  0.00  0.00    +0.000 C 
ENDBRANCH  13  18
ENDBRANCH   7  15
ENDBRANCH   1  11
BRANCH   3  19
ATOM     19  N   UNL     1       1.859   7.019  21.138  0.00  0.00    +0.000 N 
ATOM     20  H   UNL     1       2.622   7.124  21.799  0.00  0.00    +0.000 HD
BRANCH  19  21
ATOM     21  C   UNL     1       1.136   8.116  20.827  0.00  0.00    +0.000 A 
ATOM     22  C   UNL     1       0.081   8.709  21.550  0.00  0.00    +0.000 A 
ATOM     23  N   UNL     1      -0.391   9.802  20.944  0.00  0.00    +0.000 NA
ATOM     24  N   UNL     1       0.334   9.867  19.811  0.00  0.00    +0.000 N 
ATOM     25  C   UNL     1       1.312   8.915  19.727  0.00  0.00    +0.000 A 
BRANCH  24  26
ATOM     26  C   UNL     1       0.023  10.877  18.824  0.00  0.00    +0.000 C 
BRANCH  26  27
ATOM     27  C   UNL     1      -0.168  12.242  19.459  0.00  0.00    +0.000 C 
BRANCH  27  28
ATOM     28  O   UNL     1      -1.558  12.573  19.432  0.00  0.00    +0.000 OA
ATOM     29  C   UNL     1      -1.889  13.509  20.451  0.00  0.00    +0.000 C 
ENDBRANCH  27  28
ENDBRANCH  26  27
ENDBRANCH  24  26
ENDBRANCH  19  21
ENDBRANCH   3  19
TORSDOF 8
ENDMDL
MODEL 3
REMARK VINA RESULT:      -7.6      1.363      1.787
REMARK  Name = 
REMARK  9 active torsions:
REMARK  status: ('A' for Active; 'I' for Inactive)
REMARK    1  A    between atoms: C_2  and  C_3
REMARK    2  A    between atoms: N_5  and  C_6
REMARK    3  A    between atoms: C_10  and  C_11
REMARK    4  A    between atoms: C_13  and  N_14
REMARK    5  A    between atoms: N_14  and  C_15
REMARK    6  A    between atoms: N_18  and  C_19
REMARK    7  A    between atoms: C_19  and  C_20
REMARK    8  A    between atoms: C_20  and  O_21
REMARK    9  A    between atoms: O_21  and  C_22
REMARK                            x       y       z     vdW  Elec       q    Type
REMARK                         _______ _______ _______ _____ _____    ______ ____
ROOT
ATOM      1  C   UNL     1       3.542   4.842  18.741  0.00  0.00    +0.000 A 
ATOM      2  C   UNL     1       3.265   5.875  19.624  0.00  0.00    +0.000 A 
ATOM      3  C   UNL     1       2.071   5.832  20.312  0.00  0.00    +0.000 A 
ATOM      4  N   UNL     1       1.204   4.823  20.144  0.00  0.00    +0.000 NA
ATOM      5  C   UNL     1       1.541   3.878  19.258  0.00  0.00    +0.000 A 
ATOM      6  N   UNL     1       2.676   3.829  18.545  0.00  0.00    +0.000 NA
ENDROOT
BRANCH   1  11
ATOM      7  C   UNL     1       6.133   4.105  16.055  0.00  0.00    +0.000 A 
ATOM      8  C   UNL     1       7.308   4.409  16.747  0.00  0.00    +0.000 A 
ATOM      9  C   UNL     1       7.260   4.914  18.041  0.00  0.00    +0.000 A 
ATOM     10  C   UNL     1       6.032   5.098  18.666  0.00  0.00    +0.000 A 
ATOM     11  C   UNL     1       4.826   4.779  18.017  0.00  0.00    +0.000 A 
ATOM     12  C   UNL     1       4.897   4.330  16.680  0.00  0.00    +0.000 A 
BRANCH   7  15
ATOM     13  C   UNL     1       6.595   4.216  13.620  0.00  0.00    +0.000 C 
ATOM     14  O   UNL     1       7.120   5.325  13.575  0.00  0.00    +0.000 OA
ATOM     15  N   UNL     1       6.141   3.562  14.749  0.00  0.00    +0.000 N 
ATOM     16  H   UNL     1       5.886   2.588  14.666  0.00  0.00    +0.000 HD
BRANCH  13  18
ATOM     17  C   UNL     1       5.210   3.234  11.862  0.00  0.00    +0.000 C 
ATOM     18  C   UNL     1       6.436   3.414  12.376  0.00  0.00    +0.000 C 
ENDBRANCH  13  18
ENDBRANCH   7  15
ENDBRANCH   1  11
BRANCH   3  19
ATOM     19  N   UNL     1       1.793   6.879  21.224  0.00  0.00    +0.000 N 
ATOM     20  H   UNL     1       2.357   6.765  22.060  0.00  0.00    +0.000 HD
BRANCH  19  21
ATOM     21  C   UNL     1       1.411   8.128  20.884  0.00  0.00    +0.000 A 
ATOM     22  C   UNL     1       0.964   9.171  21.721  0.00  0.00    +0.000 A 
ATOM     23  N   UNL     1       0.686  10.282  21.035  0.00  0.00    +0.000 NA
ATOM     24  N   UNL     1       0.909   9.922  19.755  0.00  0.00    +0.000 N 
ATOM     25  C   UNL     1       1.412   8.658  19.619  0.00  0.00    +0.000 A 
BRANCH  24  26
ATOM     26  C   UNL     1       0.600  10.850  18.690  0.00  0.00    +0.000 C 
BRANCH  26  27
ATOM     27  C   UNL     1       1.047  12.260  19.028  0.00  0.00    +0.000 C 
BRANCH  27  28
ATOM     28  O   UNL     1       2.263  12.539  18.329  0.00  0.00    +0.000 OA
ATOM     29  C   UNL     1       2.884  13.720  18.821  0.00  0.00    +0.000 C 
ENDBRANCH  27  28
ENDBRANCH  26  27
ENDBRANCH  24  26
ENDBRANCH  19  21
ENDBRANCH   3  19
TORSDOF 8
ENDMDL
MODEL 4
REMARK VINA RESULT:      -7.6      2.160      2.623
REMARK  Name = 
REMARK  9 active torsions:
REMARK  status: ('A' for Active; 'I' for Inactive)
REMARK    1  A    between atoms: C_2  and  C_3
REMARK    2  A    between atoms: N_5  and  C_6
REMARK    3  A    between atoms: C_10  and  C_11
REMARK    4  A    between atoms: C_13  and  N_14
REMARK    5  A    between atoms: N_14  and  C_15
REMARK    6  A    between atoms: N_18  and  C_19
REMARK    7  A    between atoms: C_19  and  C_20
REMARK    8  A    between atoms: C_20  and  O_21
REMARK    9  A    between atoms: O_21  and  C_22
REMARK                            x       y       z     vdW  Elec       q    Type
REMARK                         _______ _______ _______ _____ _____    ______ ____
ROOT
ATOM      1  C   UNL     1       3.753   5.591  19.123  0.00  0.00    +0.000 A 
ATOM      2  C   UNL     1       3.189   6.857  19.141  0.00  0.00    +0.000 A 
ATOM      3  C   UNL     1       2.071   7.053  19.924  0.00  0.00    +0.000 A 
ATOM      4  N   UNL     1       1.544   6.058  20.652  0.00  0.00    +0.000 NA
ATOM      5  C   UNL     1       2.139   4.862  20.559  0.00  0.00    +0.000 A 
ATOM      6  N   UNL     1       3.229   4.573  19.833  0.00  0.00    +0.000 NA
ENDROOT
BRANCH   1  11
ATOM      7  C   UNL     1       6.112   4.408  16.383  0.00  0.00    +0.000 A 
ATOM      8  C   UNL     1       7.341   4.538  17.035  0.00  0.00    +0.000 A 
ATOM      9  C   UNL     1       7.413   5.069  18.317  0.00  0.00    +0.000 A 
ATOM     10  C   UNL     1       6.248   5.454  18.971  0.00  0.00    +0.000 A 
ATOM     11  C   UNL     1       4.988   5.315  18.364  0.00  0.00    +0.000 A 
ATOM     12  C   UNL     1       4.947   4.834  17.037  0.00  0.00    +0.000 A 
BRANCH   7  15
ATOM     13  C   UNL     1       6.585   4.351  13.948  0.00  0.00    +0.000 C 
ATOM     14  O   UNL     1       7.348   5.310  13.879  0.00  0.00    +0.000 OA
ATOM     15  N   UNL     1       5.995   3.845  15.091  0.00  0.00    +0.000 N 
ATOM     16  H   UNL     1       5.525   2.953  15.030  0.00  0.00    +0.000 HD
BRANCH  13  18
ATOM     17  C   UNL     1       4.965   3.492  12.332  0.00  0.00    +0.000 C 
ATOM     18  C   UNL     1       6.245   3.576  12.723  0.00  0.00    +0.000 C 
ENDBRANCH  13  18
ENDBRANCH   7  15
ENDBRANCH   1  11
BRANCH   3  19
ATOM     19  N   UNL     1       1.503   8.350  19.955  0.00  0.00    +0.000 N 
ATOM     20  H   UNL     1       1.049   8.547  19.069  0.00  0.00    +0.000 HD
BRANCH  19  21
ATOM     21  C   UNL     1       1.034   8.970  21.058  0.00  0.00    +0.000 A 
ATOM     22  C   UNL     1       1.534   8.921  22.376  0.00  0.00    +0.000 A 
ATOM     23  N   UNL     1       0.821   9.680  23.212  0.00  0.00    +0.000 NA
ATOM     24  N   UNL     1      -0.162  10.166  22.430  0.00  0.00    +0.000 N 
ATOM     25  C   UNL     1      -0.038   9.823  21.112  0.00  0.00    +0.000 A 
BRANCH  24  26
ATOM     26  C   UNL     1      -1.218  10.957  23.023  0.00  0.00    +0.000 C 
BRANCH  26  27
ATOM     27  C   UNL     1      -1.322  12.327  22.379  0.00  0.00    +0.000 C 
BRANCH  27  28
ATOM     28  O   UNL     1      -1.271  13.324  23.403  0.00  0.00    +0.000 OA
ATOM     29  C   UNL     1      -2.575  13.760  23.767  0.00  0.00    +0.000 C 
ENDBRANCH  27  28
ENDBRANCH  26  27
ENDBRANCH  24  26
ENDBRANCH  19  21
ENDBRANCH   3  19
TORSDOF 8
ENDMDL
MODEL 5
REMARK VINA RESULT:      -7.5      1.136      1.405
REMARK  Name = 
REMARK  9 active torsions:
REMARK  status: ('A' for Active; 'I' for Inactive)
REMARK    1  A    between atoms: C_2  and  C_3
REMARK    2  A    between atoms: N_5  and  C_6
REMARK    3  A    between atoms: C_10  and  C_11
REMARK    4  A    between atoms: C_13  and  N_14
REMARK    5  A    between atoms: N_14  and  C_15
REMARK    6  A    between atoms: N_18  and  C_19
REMARK    7  A    between atoms: C_19  and  C_20
REMARK    8  A    between atoms: C_20  and  O_21
REMARK    9  A    between atoms: O_21  and  C_22
REMARK                            x       y       z     vdW  Elec       q    Type
REMARK                         _______ _______ _______ _____ _____    ______ ____
ROOT
ATOM      1  C   UNL     1       3.661   4.803  18.859  0.00  0.00    +0.000 A 
ATOM      2  C   UNL     1       3.324   5.900  19.637  0.00  0.00    +0.000 A 
ATOM      3  C   UNL     1       2.149   5.843  20.357  0.00  0.00    +0.000 A 
ATOM      4  N   UNL     1       1.356   4.763  20.315  0.00  0.00    +0.000 NA
ATOM      5  C   UNL     1       1.746   3.757  19.522  0.00  0.00    +0.000 A 
ATOM      6  N   UNL     1       2.869   3.715  18.790  0.00  0.00    +0.000 NA
ENDROOT
BRANCH   1  11
ATOM      7  C   UNL     1       6.213   4.105  16.126  0.00  0.00    +0.000 A 
ATOM      8  C   UNL     1       7.397   4.418  16.799  0.00  0.00    +0.000 A 
ATOM      9  C   UNL     1       7.365   4.917  18.096  0.00  0.00    +0.000 A 
ATOM     10  C   UNL     1       6.146   5.085  18.742  0.00  0.00    +0.000 A 
ATOM     11  C   UNL     1       4.933   4.757  18.112  0.00  0.00    +0.000 A 
ATOM     12  C   UNL     1       4.986   4.315  16.773  0.00  0.00    +0.000 A 
BRANCH   7  15
ATOM     13  C   UNL     1       6.602   4.245  13.679  0.00  0.00    +0.000 C 
ATOM     14  O   UNL     1       7.084   5.373  13.626  0.00  0.00    +0.000 OA
ATOM     15  N   UNL     1       6.205   3.569  14.817  0.00  0.00    +0.000 N 
ATOM     16  H   UNL     1       5.983   2.587  14.736  0.00  0.00    +0.000 HD
BRANCH  13  18
ATOM     17  C   UNL     1       5.212   3.276  11.918  0.00  0.00    +0.000 C 
ATOM     18  C   UNL     1       6.438   3.443  12.436  0.00  0.00    +0.000 C 
ENDBRANCH  13  18
ENDBRANCH   7  15
ENDBRANCH   1  11
BRANCH   3  19
ATOM     19  N   UNL     1       1.811   6.957  21.163  0.00  0.00    +0.000 N 
ATOM     20  H   UNL     1       2.305   6.903  22.048  0.00  0.00    +0.000 HD
BRANCH  19  21
ATOM     21  C   UNL     1       1.471   8.179  20.702  0.00  0.00    +0.000 A 
ATOM     22  C   UNL     1       1.474   8.651  19.373  0.00  0.00    +0.000 A 
ATOM     23  N   UNL     1       1.056   9.917  19.289  0.00  0.00    +0.000 NA
ATOM     24  N   UNL     1       0.839  10.259  20.574  0.00  0.00    +0.000 N 
ATOM     25  C   UNL     1       1.009   9.227  21.455  0.00  0.00    +0.000 A 
BRANCH  24  26
ATOM     26  C   UNL     1       0.479  11.622  20.896  0.00  0.00    +0.000 C 
BRANCH  26  27
ATOM     27  C   UNL     1      -1.015  11.768  21.123  0.00  0.00    +0.000 C 
BRANCH  27  28
ATOM     28  O   UNL     1      -1.695  11.519  19.890  0.00  0.00    +0.000 OA
ATOM     29  C   UNL     1      -1.485  12.574  18.959  0.00  0.00    +0.000 C 
ENDBRANCH  27  28
ENDBRANCH  26  27
ENDBRANCH  24  26
ENDBRANCH  19  21
ENDBRANCH   3  19
TORSDOF 8
ENDMDL
MODEL 6
REMARK VINA RESULT:      -7.4      1.756      8.739
REMARK  Name = 
REMARK  9 active torsions:
REMARK  status: ('A' for Active; 'I' for Inactive)
REMARK    1  A    between atoms: C_2  and  C_3
REMARK    2  A    between atoms: N_5  and  C_6
REMARK    3  A    between atoms: C_10  and  C_11
REMARK    4  A    between atoms: C_13  and  N_14
REMARK    5  A    between atoms: N_14  and  C_15
REMARK    6  A    between atoms: N_18  and  C_19
REMARK    7  A    between atoms: C_19  and  C_20
REMARK    8  A    between atoms: C_20  and  O_21
REMARK    9  A    between atoms: O_21  and  C_22
REMARK                            x       y       z     vdW  Elec       q    Type
REMARK                         _______ _______ _______ _____ _____    ______ ____
ROOT
ATOM      1  C   UNL     1       2.661   5.916  19.763  0.00  0.00    +0.000 A 
ATOM      2  C   UNL     1       3.854   5.464  19.221  0.00  0.00    +0.000 A 
ATOM      3  C   UNL     1       4.187   4.139  19.407  0.00  0.00    +0.000 A 
ATOM      4  N   UNL     1       3.384   3.306  20.084  0.00  0.00    +0.000 NA
ATOM      5  C   UNL     1       2.261   3.830  20.593  0.00  0.00    +0.000 A 
ATOM      6  N   UNL     1       1.849   5.100  20.463  0.00  0.00    +0.000 NA
ENDROOT
BRANCH   1  11
ATOM      7  C   UNL     1       1.033   9.303  20.353  0.00  0.00    +0.000 A 
ATOM      8  C   UNL     1       1.085   9.836  19.063  0.00  0.00    +0.000 A 
ATOM      9  C   UNL     1       1.702   9.140  18.031  0.00  0.00    +0.000 A 
ATOM     10  C   UNL     1       2.255   7.888  18.276  0.00  0.00    +0.000 A 
ATOM     11  C   UNL     1       2.201   7.302  19.552  0.00  0.00    +0.000 A 
ATOM     12  C   UNL     1       1.627   8.056  20.599  0.00  0.00    +0.000 A 
BRANCH   7  15
ATOM     13  C   UNL     1      -0.641  10.879  21.286  0.00  0.00    +0.000 C 
ATOM     14  O   UNL     1      -1.202  11.203  20.243  0.00  0.00    +0.000 OA
ATOM     15  N   UNL     1       0.388   9.967  21.423  0.00  0.00    +0.000 N 
ATOM     16  H   UNL     1       0.642   9.670  22.354  0.00  0.00    +0.000 HD
BRANCH  13  18
ATOM     17  C   UNL     1      -1.085  12.783  22.752  0.00  0.00    +0.000 C 
ATOM     18  C   UNL     1      -1.089  11.452  22.585  0.00  0.00    +0.000 C 
ENDBRANCH  13  18
ENDBRANCH   7  15
ENDBRANCH   1  11
BRANCH   3  19
ATOM     19  N   UNL     1       5.398   3.674  18.841  0.00  0.00    +0.000 N 
ATOM     20  H   UNL     1       5.541   2.700  19.088  0.00  0.00    +0.000 HD
BRANCH  19  21
ATOM     21  C   UNL     1       5.943   4.121  17.690  0.00  0.00    +0.000 A 
ATOM     22  C   UNL     1       7.135   4.852  17.506  0.00  0.00    +0.000 A 
ATOM     23  N   UNL     1       7.372   5.109  16.217  0.00  0.00    +0.000 NA
ATOM     24  N   UNL     1       6.300   4.583  15.592  0.00  0.00    +0.000 N 
ATOM     25  C   UNL     1       5.447   3.918  16.428  0.00  0.00    +0.000 A 
BRANCH  24  26
ATOM     26  C   UNL     1       6.145   4.770  14.167  0.00  0.00    +0.000 C 
BRANCH  26  27
ATOM     27  C   UNL     1       6.355   3.474  13.405  0.00  0.00    +0.000 C 
BRANCH  27  28
ATOM     28  O   UNL     1       6.005   3.683  12.034  0.00  0.00    +0.000 OA
ATOM     29  C   UNL     1       4.667   3.276  11.773  0.00  0.00    +0.000 C 
ENDBRANCH  27  28
ENDBRANCH  26  27
ENDBRANCH  24  26
ENDBRANCH  19  21
ENDBRANCH   3  19
TORSDOF 8
ENDMDL
MODEL 7
REMARK VINA RESULT:      -7.2      1.434      1.761
REMARK  Name = 
REMARK  9 active torsions:
REMARK  status: ('A' for Active; 'I' for Inactive)
REMARK    1  A    between atoms: C_2  and  C_3
REMARK    2  A    between atoms: N_5  and  C_6
REMARK    3  A    between atoms: C_10  and  C_11
REMARK    4  A    between atoms: C_13  and  N_14
REMARK    5  A    between atoms: N_14  and  C_15
REMARK    6  A    between atoms: N_18  and  C_19
REMARK    7  A    between atoms: C_19  and  C_20
REMARK    8  A    between atoms: C_20  and  O_21
REMARK    9  A    between atoms: O_21  and  C_22
REMARK                            x       y       z     vdW  Elec       q    Type
REMARK                         _______ _______ _______ _____ _____    ______ ____
ROOT
ATOM      1  C   UNL     1       3.779   4.711  17.393  0.00  0.00    +0.000 A 
ATOM      2  C   UNL     1       3.599   5.608  18.435  0.00  0.00    +0.000 A 
ATOM      3  C   UNL     1       2.551   5.385  19.304  0.00  0.00    +0.000 A 
ATOM      4  N   UNL     1       1.733   4.333  19.155  0.00  0.00    +0.000 NA
ATOM      5  C   UNL     1       1.966   3.529  18.110  0.00  0.00    +0.000 A 
ATOM      6  N   UNL     1       2.958   3.659  17.216  0.00  0.00    +0.000 NA
ENDROOT
BRANCH   1  11
ATOM      7  C   UNL     1       6.194   4.024  14.535  0.00  0.00    +0.000 A 
ATOM      8  C   UNL     1       7.220   4.919  14.850  0.00  0.00    +0.000 A 
ATOM      9  C   UNL     1       7.100   5.785  15.931  0.00  0.00    +0.000 A 
ATOM     10  C   UNL     1       5.959   5.746  16.724  0.00  0.00    +0.000 A 
ATOM     11  C   UNL     1       4.915   4.842  16.460  0.00  0.00    +0.000 A 
ATOM     12  C   UNL     1       5.030   4.019  15.319  0.00  0.00    +0.000 A 
BRANCH   7  15
ATOM     13  C   UNL     1       5.493   3.120  12.333  0.00  0.00    +0.000 C 
ATOM     14  O   UNL     1       4.636   3.951  12.048  0.00  0.00    +0.000 OA
ATOM     15  N   UNL     1       6.290   3.108  13.462  0.00  0.00    +0.000 N 
ATOM     16  H   UNL     1       7.068   2.464  13.490  0.00  0.00    +0.000 HD
BRANCH  13  18
ATOM     17  C   UNL     1       7.070   1.705  11.114  0.00  0.00    +0.000 C 
ATOM     18  C   UNL     1       5.793   2.004  11.395  0.00  0.00    +0.000 C 
ENDBRANCH  13  18
ENDBRANCH   7  15
ENDBRANCH   1  11
BRANCH   3  19
ATOM     19  N   UNL     1       2.375   6.292  20.376  0.00  0.00    +0.000 N 
ATOM     20  H   UNL     1       3.098   6.145  21.073  0.00  0.00    +0.000 HD
BRANCH  19  21
ATOM     21  C   UNL     1       1.836   7.525  20.274  0.00  0.00    +0.000 A 
ATOM     22  C   UNL     1       1.211   8.299  21.274  0.00  0.00    +0.000 A 
ATOM     23  N   UNL     1       0.811   9.487  20.813  0.00  0.00    +0.000 NA
ATOM     24  N   UNL     1       1.137   9.440  19.506  0.00  0.00    +0.000 N 
ATOM     25  C   UNL     1       1.817   8.309  19.149  0.00  0.00    +0.000 A 
BRANCH  24  26
ATOM     26  C   UNL     1       0.747  10.527  18.636  0.00  0.00    +0.000 C 
BRANCH  26  27
ATOM     27  C   UNL     1      -0.582  11.129  19.051  0.00  0.00    +0.000 C 
BRANCH  27  28
ATOM     28  O   UNL     1      -1.407  11.271  17.892  0.00  0.00    +0.000 OA
ATOM     29  C   UNL     1      -2.132  10.077  17.622  0.00  0.00    +0.000 C 
ENDBRANCH  27  28
ENDBRANCH  26  27
ENDBRANCH  24  26
ENDBRANCH  19  21
ENDBRANCH   3  19
TORSDOF 8
ENDMDL
MODEL 8
REMARK VINA RESULT:      -7.2      2.200      3.339
REMARK  Name = 
REMARK  9 active torsions:
REMARK  status: ('A' for Active; 'I' for Inactive)
REMARK    1  A    between atoms: C_2  and  C_3
REMARK    2  A    between atoms: N_5  and  C_6
REMARK    3  A    between atoms: C_10  and  C_11
REMARK    4  A    between atoms: C_13  and  N_14
REMARK    5  A    between atoms: N_14  and  C_15
REMARK    6  A    between atoms: N_18  and  C_19
REMARK    7  A    between atoms: C_19  and  C_20
REMARK    8  A    between atoms: C_20  and  O_21
REMARK    9  A    between atoms: O_21  and  C_22
REMARK                            x       y       z     vdW  Elec       q    Type
REMARK                         _______ _______ _______ _____ _____    ______ ____
ROOT
ATOM      1  C   UNL     1       3.120   5.065  18.609  0.00  0.00    +0.000 A 
ATOM      2  C   UNL     1       2.876   5.999  19.605  0.00  0.00    +0.000 A 
ATOM      3  C   UNL     1       1.799   5.785  20.440  0.00  0.00    +0.000 A 
ATOM      4  N   UNL     1       1.013   4.707  20.303  0.00  0.00    +0.000 NA
ATOM      5  C   UNL     1       1.308   3.867  19.303  0.00  0.00    +0.000 A 
ATOM      6  N   UNL     1       2.331   3.985  18.444  0.00  0.00    +0.000 NA
ENDROOT
BRANCH   1  11
ATOM      7  C   UNL     1       6.161   6.494  16.826  0.00  0.00    +0.000 A 
ATOM      8  C   UNL     1       6.348   5.529  15.832  0.00  0.00    +0.000 A 
ATOM      9  C   UNL     1       5.546   4.395  15.784  0.00  0.00    +0.000 A 
ATOM     10  C   UNL     1       4.531   4.226  16.718  0.00  0.00    +0.000 A 
ATOM     11  C   UNL     1       4.290   5.185  17.717  0.00  0.00    +0.000 A 
ATOM     12  C   UNL     1       5.158   6.296  17.787  0.00  0.00    +0.000 A 
BRANCH   7  15
ATOM     13  C   UNL     1       7.899   7.942  17.846  0.00  0.00    +0.000 C 
ATOM     14  O   UNL     1       8.281   7.185  18.734  0.00  0.00    +0.000 OA
ATOM     15  N   UNL     1       6.936   7.675  16.891  0.00  0.00    +0.000 N 
ATOM     16  H   UNL     1       6.839   8.319  16.119  0.00  0.00    +0.000 HD
BRANCH  13  18
ATOM     17  C   UNL     1       9.003   9.916  18.771  0.00  0.00    +0.000 C 
ATOM     18  C   UNL     1       8.519   9.286  17.691  0.00  0.00    +0.000 C 
ENDBRANCH  13  18
ENDBRANCH   7  15
ENDBRANCH   1  11
BRANCH   3  19
ATOM     19  N   UNL     1       1.558   6.730  21.465  0.00  0.00    +0.000 N 
ATOM     20  H   UNL     1       2.069   6.467  22.302  0.00  0.00    +0.000 HD
BRANCH  19  21
ATOM     21  C   UNL     1       1.292   8.039  21.273  0.00  0.00    +0.000 A 
ATOM     22  C   UNL     1       1.283   9.085  22.219  0.00  0.00    +0.000 A 
ATOM     23  N   UNL     1       0.991  10.263  21.662  0.00  0.00    +0.000 NA
ATOM     24  N   UNL     1       0.764   9.950  20.371  0.00  0.00    +0.000 N 
ATOM     25  C   UNL     1       0.999   8.636  20.073  0.00  0.00    +0.000 A 
BRANCH  24  26
ATOM     26  C   UNL     1       0.301  10.974  19.461  0.00  0.00    +0.000 C 
BRANCH  26  27
ATOM     27  C   UNL     1      -0.265  10.377  18.186  0.00  0.00    +0.000 C 
BRANCH  27  28
ATOM     28  O   UNL     1      -1.693  10.441  18.241  0.00  0.00    +0.000 OA
ATOM     29  C   UNL     1      -2.174  11.693  17.767  0.00  0.00    +0.000 C 
ENDBRANCH  27  28
ENDBRANCH  26  27
ENDBRANCH  24  26
ENDBRANCH  19  21
ENDBRANCH   3  19
TORSDOF 8
ENDMDL
MODEL 9
REMARK VINA RESULT:      -7.2      1.649      2.139
REMARK  Name = 
REMARK  9 active torsions:
REMARK  status: ('A' for Active; 'I' for Inactive)
REMARK    1  A    between atoms: C_2  and  C_3
REMARK    2  A    between atoms: N_5  and  C_6
REMARK    3  A    between atoms: C_10  and  C_11
REMARK    4  A    between atoms: C_13  and  N_14
REMARK    5  A    between atoms: N_14  and  C_15
REMARK    6  A    between atoms: N_18  and  C_19
REMARK    7  A    between atoms: C_19  and  C_20
REMARK    8  A    between atoms: C_20  and  O_21
REMARK    9  A    between atoms: O_21  and  C_22
REMARK                            x       y       z     vdW  Elec       q    Type
REMARK                         _______ _______ _______ _____ _____    ______ ____
ROOT
ATOM      1  C   UNL     1       3.558   4.802  18.780  0.00  0.00    +0.000 A 
ATOM      2  C   UNL     1       3.264   5.887  19.592  0.00  0.00    +0.000 A 
ATOM      3  C   UNL     1       2.108   5.836  20.342  0.00  0.00    +0.000 A 
ATOM      4  N   UNL     1       1.292   4.773  20.297  0.00  0.00    +0.000 NA
ATOM      5  C   UNL     1       1.640   3.779  19.469  0.00  0.00    +0.000 A 
ATOM      6  N   UNL     1       2.742   3.733  18.706  0.00  0.00    +0.000 NA
ENDROOT
BRANCH   1  11
ATOM      7  C   UNL     1       6.027   4.095  15.974  0.00  0.00    +0.000 A 
ATOM      8  C   UNL     1       7.231   4.397  16.615  0.00  0.00    +0.000 A 
ATOM      9  C   UNL     1       7.240   4.890  17.914  0.00  0.00    +0.000 A 
ATOM     10  C   UNL     1       6.041   5.066  18.594  0.00  0.00    +0.000 A 
ATOM     11  C   UNL     1       4.808   4.749  17.997  0.00  0.00    +0.000 A 
ATOM     12  C   UNL     1       4.820   4.311  16.655  0.00  0.00    +0.000 A 
BRANCH   7  15
ATOM     13  C   UNL     1       6.529   4.158  13.545  0.00  0.00    +0.000 C 
ATOM     14  O   UNL     1       7.198   5.187  13.513  0.00  0.00    +0.000 OA
ATOM     15  N   UNL     1       5.978   3.563  14.664  0.00  0.00    +0.000 N 
ATOM     16  H   UNL     1       5.596   2.633  14.571  0.00  0.00    +0.000 HD
BRANCH  13  18
ATOM     17  C   UNL     1       7.320   2.920  11.591  0.00  0.00    +0.000 C 
ATOM     18  C   UNL     1       6.278   3.391  12.293  0.00  0.00    +0.000 C 
ENDBRANCH  13  18
ENDBRANCH   7  15
ENDBRANCH   1  11
BRANCH   3  19
ATOM     19  N   UNL     1       1.815   6.936  21.183  0.00  0.00    +0.000 N 
ATOM     20  H   UNL     1       2.396   6.898  22.014  0.00  0.00    +0.000 HD
BRANCH  19  21
ATOM     21  C   UNL     1       1.389   8.146  20.764  0.00  0.00    +0.000 A 
ATOM     22  C   UNL     1       1.505   8.726  19.484  0.00  0.00    +0.000 A 
ATOM     23  N   UNL     1       0.949   9.939  19.430  0.00  0.00    +0.000 NA
ATOM     24  N   UNL     1       0.529  10.146  20.693  0.00  0.00    +0.000 N 
ATOM     25  C   UNL     1       0.709   9.069  21.517  0.00  0.00    +0.000 A 
BRANCH  24  26
ATOM     26  C   UNL     1      -0.035  11.427  21.055  0.00  0.00    +0.000 C 
BRANCH  26  27
ATOM     27  C   UNL     1      -0.837  11.345  22.341  0.00  0.00    +0.000 C 
BRANCH  27  28
ATOM     28  O   UNL     1      -2.035  12.111  22.187  0.00  0.00    +0.000 OA
ATOM     29  C   UNL     1      -2.816  12.095  23.375  0.00  0.00    +0.000 C 
ENDBRANCH  27  28
ENDBRANCH  26  27
ENDBRANCH  24  26
ENDBRANCH  19  21
ENDBRANCH   3  19
TORSDOF 8
ENDMDL
