MODEL 1
REMARK VINA RESULT:      -7.5      0.000      0.000
REMARK  Name = 
REMARK  8 active torsions:
REMARK  status: ('A' for Active; 'I' for Inactive)
REMARK    1  A    between atoms: C_1  and  N_2
REMARK    2  A    between atoms: N_2  and  C_3
REMARK    3  A    between atoms: N_2  and  C_4
REMARK    4  A    between atoms: C_4  and  C_5
REMARK    5  A    between atoms: C_5  and  C_6
REMARK    6  A    between atoms: C_12  and  N_13
REMARK    7  A    between atoms: N_13  and  S_14
REMARK    8  A    between atoms: S_14  and  C_17
REMARK                            x       y       z     vdW  Elec       q    Type
REMARK                         _______ _______ _______ _____ _____    ______ ____
ROOT
ATOM      1  C   UNL     1       4.124   5.433  17.730  0.00  0.00    +0.000 A 
ATOM      2  C   UNL     1       4.144   4.100  18.077  0.00  0.00    +0.000 A 
ATOM      3  N   UNL     1       3.309   3.915  19.143  0.00  0.00    +0.000 N 
ATOM      4  C   UNL     1       2.743   5.113  19.513  0.00  0.00    +0.000 A 
ATOM      5  C   UNL     1       1.827   5.407  20.539  0.00  0.00    +0.000 A 
ATOM      6  C   UNL     1       1.413   6.743  20.677  0.00  0.00    +0.000 A 
ATOM      7  C   UNL     1       1.888   7.726  19.815  0.00  0.00    +0.000 A 
ATOM      8  C   UNL     1       2.792   7.413  18.800  0.00  0.00    +0.000 A 
ATOM      9  C   UNL     1       3.235   6.087  18.645  0.00  0.00    +0.000 A 
ATOM     10  H   UNL     1       3.128   3.028  19.592  0.00  0.00    +0.000 HD
ENDROOT
BRANCH   7  11
ATOM     11  N   UNL     1       1.439   9.075  19.898  0.00  0.00    +0.000 N 
ATOM     12  H   UNL     1       1.897   9.676  20.582  0.00  0.00    +0.000 HD
BRANCH  11  13
ATOM     13  S   UNL     1       1.006   9.892  18.492  0.00  0.00    +0.000 S 
ATOM     14  O   UNL     1       1.972  10.951  18.318  0.00  0.00    +0.000 OA
ATOM     15  O   UNL     1       0.748   8.939  17.436  0.00  0.00    +0.000 OA
BRANCH  13  16
ATOM     16  C   UNL     1      -0.492  10.720  18.792  0.00  0.00    +0.000 A 
ATOM     17  C   UNL     1      -0.846  11.625  19.786  0.00  0.00    +0.000 A 
ATOM     18 CL   UNL     1       0.151  12.187  21.051  0.00  0.00    +0.000 Cl
ATOM     19  N   UNL     1      -2.153  12.049  19.672  0.00  0.00    +0.000 NA
ATOM     20  C   UNL     1      -2.566  11.422  18.611  0.00  0.00    +0.000 A 
ATOM     21  S   UNL     1      -4.073  11.383  17.754  0.00  0.00    +0.000 S 
ATOM     22  C   UNL     1      -3.344  10.258  16.605  0.00  0.00    +0.000 A 
ATOM     23  C   UNL     1      -2.065   9.966  16.893  0.00  0.00    +0.000 A 
ATOM     24  N   UNL     1      -1.626  10.620  18.031  0.00  0.00    +0.000 N 
ENDBRANCH  13  16
ENDBRANCH  11  13
ENDBRANCH   7  11
BRANCH   1  25
ATOM     25  C   UNL     1       4.877   6.061  16.587  0.00  0.00    +0.000 C 
BRANCH  25  26
ATOM     26  C   UNL     1       6.319   6.465  16.951  0.00  0.00    +0.000 C 
BRANCH  26  28
ATOM     27  C   UNL     1       7.695   4.625  17.658  0.00  0.00    +0.000 C 
ATOM     28  N   UNL     1       7.351   5.497  16.528  0.00  0.00    +0.000 NA
ATOM     29  C   UNL     1       6.923   4.682  15.391  0.00  0.00    +0.000 C 
ENDBRANCH  26  28
ENDBRANCH  25  26
ENDBRANCH   1  25
TORSDOF 6
ENDMDL
MODEL 2
REMARK VINA RESULT:      -7.5      3.802      8.605
REMARK  Name = 
REMARK  8 active torsions:
REMARK  status: ('A' for Active; 'I' for Inactive)
REMARK    1  A    between atoms: C_1  and  N_2
REMARK    2  A    between atoms: N_2  and  C_3
REMARK    3  A    between atoms: N_2  and  C_4
REMARK    4  A    between atoms: C_4  and  C_5
REMARK    5  A    between atoms: C_5  and  C_6
REMARK    6  A    between atoms: C_12  and  N_13
REMARK    7  A    between atoms: N_13  and  S_14
REMARK    8  A    between atoms: S_14  and  C_17
REMARK                            x       y       z     vdW  Elec       q    Type
REMARK                         _______ _______ _______ _____ _____    ______ ____
ROOT
ATOM      1  C   UNL     1      -0.008  10.543  20.196  0.00  0.00    +0.000 A 
ATOM      2  C   UNL     1      -0.255  11.256  19.045  0.00  0.00    +0.000 A 
ATOM      3  N   UNL     1       0.388  10.643  18.005  0.00  0.00    +0.000 N 
ATOM      4  C   UNL     1       1.066   9.535  18.459  0.00  0.00    +0.000 A 
ATOM      5  C   UNL     1       1.853   8.603  17.759  0.00  0.00    +0.000 A 
ATOM      6  C   UNL     1       2.424   7.552  18.497  0.00  0.00    +0.000 A 
ATOM      7  C   UNL     1       2.201   7.442  19.865  0.00  0.00    +0.000 A 
ATOM      8  C   UNL     1       1.413   8.374  20.539  0.00  0.00    +0.000 A 
ATOM      9  C   UNL     1       0.837   9.444  19.831  0.00  0.00    +0.000 A 
ATOM     10  H   UNL     1       0.365  10.953  17.044  0.00  0.00    +0.000 HD
ENDROOT
BRANCH   7  11
ATOM     11  N   UNL     1       2.721   6.354  20.624  0.00  0.00    +0.000 N 
ATOM     12  H   UNL     1       3.064   6.564  21.561  0.00  0.00    +0.000 HD
BRANCH  11  13
ATOM     13  S   UNL     1       1.989   4.844  20.516  0.00  0.00    +0.000 S 
ATOM     14  O   UNL     1       2.502   4.058  21.613  0.00  0.00    +0.000 OA
ATOM     15  O   UNL     1       0.567   5.006  20.317  0.00  0.00    +0.000 OA
BRANCH  13  16
ATOM     16  C   UNL     1       2.603   4.051  19.096  0.00  0.00    +0.000 A 
ATOM     17  C   UNL     1       2.048   3.055  18.301  0.00  0.00    +0.000 A 
ATOM     18 CL   UNL     1       0.536   2.298  18.527  0.00  0.00    +0.000 Cl
ATOM     19  N   UNL     1       2.873   2.692  17.257  0.00  0.00    +0.000 NA
ATOM     20  C   UNL     1       3.896   3.478  17.415  0.00  0.00    +0.000 A 
ATOM     21  S   UNL     1       5.382   3.698  16.547  0.00  0.00    +0.000 S 
ATOM     22  C   UNL     1       5.818   4.966  17.695  0.00  0.00    +0.000 A 
ATOM     23  C   UNL     1       4.883   5.165  18.640  0.00  0.00    +0.000 A 
ATOM     24  N   UNL     1       3.798   4.320  18.485  0.00  0.00    +0.000 N 
ENDBRANCH  13  16
ENDBRANCH  11  13
ENDBRANCH   7  11
BRANCH   1  25
ATOM     25  C   UNL     1      -0.555  10.854  21.564  0.00  0.00    +0.000 C 
BRANCH  25  26
ATOM     26  C   UNL     1      -0.357  12.323  21.983  0.00  0.00    +0.000 C 
BRANCH  26  28
ATOM     27  C   UNL     1      -2.244  13.804  21.812  0.00  0.00    +0.000 C 
ATOM     28  N   UNL     1      -1.500  12.912  22.710  0.00  0.00    +0.000 NA
ATOM     29  C   UNL     1      -2.404  11.897  23.251  0.00  0.00    +0.000 C 
ENDBRANCH  26  28
ENDBRANCH  25  26
ENDBRANCH   1  25
TORSDOF 6
ENDMDL
MODEL 3
REMARK VINA RESULT:      -7.4      0.761      1.002
REMARK  Name = 
REMARK  8 active torsions:
REMARK  status: ('A' for Active; 'I' for Inactive)
REMARK    1  A    between atoms: C_1  and  N_2
REMARK    2  A    between atoms: N_2  and  C_3
REMARK    3  A    between atoms: N_2  and  C_4
REMARK    4  A    between atoms: C_4  and  C_5
REMARK    5  A    between atoms: C_5  and  C_6
REMARK    6  A    between atoms: C_12  and  N_13
REMARK    7  A    between atoms: N_13  and  S_14
REMARK    8  A    between atoms: S_14  and  C_17
REMARK                            x       y       z     vdW  Elec       q    Type
REMARK                         _______ _______ _______ _____ _____    ______ ____
ROOT
ATOM      1  C   UNL     1       4.386   5.185  17.470  0.00  0.00    +0.000 A 
ATOM      2  C   UNL     1       4.394   3.842  17.776  0.00  0.00    +0.000 A 
ATOM      3  N   UNL     1       3.548   3.629  18.830  0.00  0.00    +0.000 N 
ATOM      4  C   UNL     1       2.987   4.820  19.231  0.00  0.00    +0.000 A 
ATOM      5  C   UNL     1       2.064   5.088  20.257  0.00  0.00    +0.000 A 
ATOM      6  C   UNL     1       1.657   6.422  20.432  0.00  0.00    +0.000 A 
ATOM      7  C   UNL     1       2.146   7.427  19.606  0.00  0.00    +0.000 A 
ATOM      8  C   UNL     1       3.057   7.140  18.589  0.00  0.00    +0.000 A 
ATOM      9  C   UNL     1       3.492   5.816  18.397  0.00  0.00    +0.000 A 
ATOM     10  H   UNL     1       3.358   2.730  19.249  0.00  0.00    +0.000 HD
ENDROOT
BRANCH   7  11
ATOM     11  N   UNL     1       1.705   8.777  19.725  0.00  0.00    +0.000 N 
ATOM     12  H   UNL     1       2.199   9.369  20.391  0.00  0.00    +0.000 HD
BRANCH  11  13
ATOM     13  S   UNL     1       1.202   9.609  18.353  0.00  0.00    +0.000 S 
ATOM     14  O   UNL     1       2.215  10.600  18.077  0.00  0.00    +0.000 OA
ATOM     15  O   UNL     1       0.787   8.667  17.337  0.00  0.00    +0.000 OA
BRANCH  13  16
ATOM     16  C   UNL     1      -0.205  10.538  18.774  0.00  0.00    +0.000 A 
ATOM     17  C   UNL     1      -0.410  11.467  19.787  0.00  0.00    +0.000 A 
ATOM     18 CL   UNL     1       0.728  11.961  20.958  0.00  0.00    +0.000 Cl
ATOM     19  N   UNL     1      -1.690  11.979  19.783  0.00  0.00    +0.000 NA
ATOM     20  C   UNL     1      -2.234  11.380  18.765  0.00  0.00    +0.000 A 
ATOM     21  S   UNL     1      -3.809  11.443  18.041  0.00  0.00    +0.000 S 
ATOM     22  C   UNL     1      -3.260  10.270  16.842  0.00  0.00    +0.000 A 
ATOM     23  C   UNL     1      -1.983   9.891  17.022  0.00  0.00    +0.000 A 
ATOM     24  N   UNL     1      -1.404  10.515  18.113  0.00  0.00    +0.000 N 
ENDBRANCH  13  16
ENDBRANCH  11  13
ENDBRANCH   7  11
BRANCH   1  25
ATOM     25  C   UNL     1       5.152   5.842  16.353  0.00  0.00    +0.000 C 
BRANCH  25  26
ATOM     26  C   UNL     1       6.660   5.976  16.640  0.00  0.00    +0.000 C 
BRANCH  26  28
ATOM     27  C   UNL     1       7.734   5.896  18.790  0.00  0.00    +0.000 C 
ATOM     28  N   UNL     1       6.985   6.748  17.857  0.00  0.00    +0.000 NA
ATOM     29  C   UNL     1       7.759   7.954  17.566  0.00  0.00    +0.000 C 
ENDBRANCH  26  28
ENDBRANCH  25  26
ENDBRANCH   1  25
TORSDOF 6
ENDMDL
MODEL 4
REMARK VINA RESULT:      -7.4      3.848      8.864
REMARK  Name = 
REMARK  8 active torsions:
REMARK  status: ('A' for Active; 'I' for Inactive)
REMARK    1  A    between atoms: C_1  and  N_2
REMARK    2  A    between atoms: N_2  and  C_3
REMARK    3  A    between atoms: N_2  and  C_4
REMARK    4  A    between atoms: C_4  and  C_5
REMARK    5  A    between atoms: C_5  and  C_6
REMARK    6  A    between atoms: C_12  and  N_13
REMARK    7  A    between atoms: N_13  and  S_14
REMARK    8  A    between atoms: S_14  and  C_17
REMARK                            x       y       z     vdW  Elec       q    Type
REMARK                         _______ _______ _______ _____ _____    ______ ____
ROOT
ATOM      1  C   UNL     1      -0.136  10.195  20.443  0.00  0.00    +0.000 A 
ATOM      2  C   UNL     1      -0.434  11.050  19.405  0.00  0.00    +0.000 A 
ATOM      3  N   UNL     1       0.272  10.658  18.301  0.00  0.00    +0.000 N 
ATOM      4  C   UNL     1       1.042   9.558  18.601  0.00  0.00    +0.000 A 
ATOM      5  C   UNL     1       1.915   8.812  17.789  0.00  0.00    +0.000 A 
ATOM      6  C   UNL     1       2.571   7.716  18.375  0.00  0.00    +0.000 A 
ATOM      7  C   UNL     1       2.344   7.383  19.706  0.00  0.00    +0.000 A 
ATOM      8  C   UNL     1       1.469   8.132  20.493  0.00  0.00    +0.000 A 
ATOM      9  C   UNL     1       0.808   9.242  19.939  0.00  0.00    +0.000 A 
ATOM     10  H   UNL     1       0.231  11.105  17.397  0.00  0.00    +0.000 HD
ENDROOT
BRANCH   7  11
ATOM     11  N   UNL     1       2.951   6.243  20.307  0.00  0.00    +0.000 N 
ATOM     12  H   UNL     1       3.070   6.260  21.319  0.00  0.00    +0.000 HD
BRANCH  11  13
ATOM     13  S   UNL     1       2.603   4.709  19.713  0.00  0.00    +0.000 S 
ATOM     14  O   UNL     1       2.811   3.787  20.804  0.00  0.00    +0.000 OA
ATOM     15  O   UNL     1       1.349   4.739  18.994  0.00  0.00    +0.000 OA
BRANCH  13  16
ATOM     16  C   UNL     1       3.830   4.290  18.556  0.00  0.00    +0.000 A 
ATOM     17  C   UNL     1       3.789   3.441  17.456  0.00  0.00    +0.000 A 
ATOM     18 CL   UNL     1       2.450   2.525  16.927  0.00  0.00    +0.000 Cl
ATOM     19  N   UNL     1       4.996   3.379  16.792  0.00  0.00    +0.000 NA
ATOM     20  C   UNL     1       5.740   4.200  17.473  0.00  0.00    +0.000 A 
ATOM     21  S   UNL     1       7.386   4.724  17.327  0.00  0.00    +0.000 S 
ATOM     22  C   UNL     1       7.140   5.754  18.740  0.00  0.00    +0.000 A 
ATOM     23  C   UNL     1       5.898   5.667  19.245  0.00  0.00    +0.000 A 
ATOM     24  N   UNL     1       5.107   4.784  18.531  0.00  0.00    +0.000 N 
ENDBRANCH  13  16
ENDBRANCH  11  13
ENDBRANCH   7  11
BRANCH   1  25
ATOM     25  C   UNL     1      -0.723  10.249  21.829  0.00  0.00    +0.000 C 
BRANCH  25  26
ATOM     26  C   UNL     1      -0.450  11.579  22.559  0.00  0.00    +0.000 C 
BRANCH  26  28
ATOM     27  C   UNL     1      -2.688  11.925  23.367  0.00  0.00    +0.000 C 
ATOM     28  N   UNL     1      -1.596  12.511  22.580  0.00  0.00    +0.000 NA
ATOM     29  C   UNL     1      -1.243  13.820  23.130  0.00  0.00    +0.000 C 
ENDBRANCH  26  28
ENDBRANCH  25  26
ENDBRANCH   1  25
TORSDOF 6
ENDMDL
MODEL 5
REMARK VINA RESULT:      -7.4      1.561      2.228
REMARK  Name = 
REMARK  8 active torsions:
REMARK  status: ('A' for Active; 'I' for Inactive)
REMARK    1  A    between atoms: C_1  and  N_2
REMARK    2  A    between atoms: N_2  and  C_3
REMARK    3  A    between atoms: N_2  and  C_4
REMARK    4  A    between atoms: C_4  and  C_5
REMARK    5  A    between atoms: C_5  and  C_6
REMARK    6  A    between atoms: C_12  and  N_13
REMARK    7  A    between atoms: N_13  and  S_14
REMARK    8  A    between atoms: S_14  and  C_17
REMARK                            x       y       z     vdW  Elec       q    Type
REMARK                         _______ _______ _______ _____ _____    ______ ____
ROOT
ATOM      1  C   UNL     1       3.928   4.920  17.620  0.00  0.00    +0.000 A 
ATOM      2  C   UNL     1       3.804   3.596  17.976  0.00  0.00    +0.000 A 
ATOM      3  N   UNL     1       2.980   3.512  19.065  0.00  0.00    +0.000 N 
ATOM      4  C   UNL     1       2.565   4.769  19.439  0.00  0.00    +0.000 A 
ATOM      5  C   UNL     1       1.715   5.171  20.485  0.00  0.00    +0.000 A 
ATOM      6  C   UNL     1       1.460   6.546  20.623  0.00  0.00    +0.000 A 
ATOM      7  C   UNL     1       2.023   7.464  19.743  0.00  0.00    +0.000 A 
ATOM      8  C   UNL     1       2.859   7.045  18.708  0.00  0.00    +0.000 A 
ATOM      9  C   UNL     1       3.143   5.676  18.551  0.00  0.00    +0.000 A 
ATOM     10  H   UNL     1       2.710   2.654  19.524  0.00  0.00    +0.000 HD
ENDROOT
BRANCH   7  11
ATOM     11  N   UNL     1       1.734   8.857  19.826  0.00  0.00    +0.000 N 
ATOM     12  H   UNL     1       2.344   9.423  20.415  0.00  0.00    +0.000 HD
BRANCH  11  13
ATOM     13  S   UNL     1       1.198   9.675  18.458  0.00  0.00    +0.000 S 
ATOM     14  O   UNL     1       2.195  10.676  18.160  0.00  0.00    +0.000 OA
ATOM     15  O   UNL     1       0.777   8.722  17.455  0.00  0.00    +0.000 OA
BRANCH  13  16
ATOM     16  C   UNL     1      -0.212  10.589  18.898  0.00  0.00    +0.000 A 
ATOM     17  C   UNL     1      -1.462  10.676  18.296  0.00  0.00    +0.000 A 
ATOM     18 CL   UNL     1      -1.968   9.869  16.881  0.00  0.00    +0.000 Cl
ATOM     19  N   UNL     1      -2.312  11.532  18.965  0.00  0.00    +0.000 NA
ATOM     20  C   UNL     1      -1.585  11.932  19.966  0.00  0.00    +0.000 A 
ATOM     21  S   UNL     1      -1.870  13.005  21.299  0.00  0.00    +0.000 S 
ATOM     22  C   UNL     1      -0.229  12.676  21.861  0.00  0.00    +0.000 A 
ATOM     23  C   UNL     1       0.438  11.821  21.068  0.00  0.00    +0.000 A 
ATOM     24  N   UNL     1      -0.327  11.403  19.993  0.00  0.00    +0.000 N 
ENDBRANCH  13  16
ENDBRANCH  11  13
ENDBRANCH   7  11
BRANCH   1  25
ATOM     25  C   UNL     1       4.719   5.452  16.454  0.00  0.00    +0.000 C 
BRANCH  25  26
ATOM     26  C   UNL     1       6.037   6.135  16.867  0.00  0.00    +0.000 C 
BRANCH  26  28
ATOM     27  C   UNL     1       7.679   4.525  17.570  0.00  0.00    +0.000 C 
ATOM     28  N   UNL     1       7.256   5.402  16.470  0.00  0.00    +0.000 NA
ATOM     29  C   UNL     1       7.063   4.608  15.257  0.00  0.00    +0.000 C 
ENDBRANCH  26  28
ENDBRANCH  25  26
ENDBRANCH   1  25
TORSDOF 6
ENDMDL
MODEL 6
REMARK VINA RESULT:      -7.3      2.606      2.784
REMARK  Name = 
REMARK  8 active torsions:
REMARK  status: ('A' for Active; 'I' for Inactive)
REMARK    1  A    between atoms: C_1  and  N_2
REMARK    2  A    between atoms: N_2  and  C_3
REMARK    3  A    between atoms: N_2  and  C_4
REMARK    4  A    between atoms: C_4  and  C_5
REMARK    5  A    between atoms: C_5  and  C_6
REMARK    6  A    between atoms: C_12  and  N_13
REMARK    7  A    between atoms: N_13  and  S_14
REMARK    8  A    between atoms: S_14  and  C_17
REMARK                            x       y       z     vdW  Elec       q    Type
REMARK                         _______ _______ _______ _____ _____    ______ ____
ROOT
ATOM      1  C   UNL     1       4.024   4.900  17.821  0.00  0.00    +0.000 A 
ATOM      2  C   UNL     1       4.032   3.574  18.190  0.00  0.00    +0.000 A 
ATOM      3  N   UNL     1       3.240   3.423  19.295  0.00  0.00    +0.000 N 
ATOM      4  C   UNL     1       2.715   4.640  19.667  0.00  0.00    +0.000 A 
ATOM      5  C   UNL     1       1.850   4.970  20.725  0.00  0.00    +0.000 A 
ATOM      6  C   UNL     1       1.468   6.316  20.856  0.00  0.00    +0.000 A 
ATOM      7  C   UNL     1       1.925   7.274  19.958  0.00  0.00    +0.000 A 
ATOM      8  C   UNL     1       2.778   6.925  18.911  0.00  0.00    +0.000 A 
ATOM      9  C   UNL     1       3.187   5.588  18.760  0.00  0.00    +0.000 A 
ATOM     10  H   UNL     1       3.061   2.548  19.766  0.00  0.00    +0.000 HD
ENDROOT
BRANCH   7  11
ATOM     11  N   UNL     1       1.507   8.634  20.035  0.00  0.00    +0.000 N 
ATOM     12  H   UNL     1       1.114   9.046  19.190  0.00  0.00    +0.000 HD
BRANCH  11  13
ATOM     13  S   UNL     1       0.779   9.199  21.442  0.00  0.00    +0.000 S 
ATOM     14  O   UNL     1      -0.440   8.443  21.607  0.00  0.00    +0.000 OA
ATOM     15  O   UNL     1       1.760   9.270  22.502  0.00  0.00    +0.000 OA
BRANCH  13  16
ATOM     16  C   UNL     1       0.242  10.825  21.152  0.00  0.00    +0.000 A 
ATOM     17  C   UNL     1      -0.678  11.613  21.835  0.00  0.00    +0.000 A 
ATOM     18 CL   UNL     1      -1.580  11.162  23.211  0.00  0.00    +0.000 Cl
ATOM     19  N   UNL     1      -0.826  12.862  21.270  0.00  0.00    +0.000 NA
ATOM     20  C   UNL     1       0.012  12.827  20.276  0.00  0.00    +0.000 A 
ATOM     21  S   UNL     1       0.469  13.971  19.055  0.00  0.00    +0.000 S 
ATOM     22  C   UNL     1       1.598  12.775  18.415  0.00  0.00    +0.000 A 
ATOM     23  C   UNL     1       1.589  11.621  19.103  0.00  0.00    +0.000 A 
ATOM     24  N   UNL     1       0.688  11.648  20.153  0.00  0.00    +0.000 N 
ENDBRANCH  13  16
ENDBRANCH  11  13
ENDBRANCH   7  11
BRANCH   1  25
ATOM     25  C   UNL     1       4.739   5.493  16.635  0.00  0.00    +0.000 C 
BRANCH  25  26
ATOM     26  C   UNL     1       5.918   6.405  17.024  0.00  0.00    +0.000 C 
BRANCH  26  28
ATOM     27  C   UNL     1       7.531   4.649  17.332  0.00  0.00    +0.000 C 
ATOM     28  N   UNL     1       6.876   5.798  17.970  0.00  0.00    +0.000 NA
ATOM     29  C   UNL     1       7.889   6.747  18.429  0.00  0.00    +0.000 C 
ENDBRANCH  26  28
ENDBRANCH  25  26
ENDBRANCH   1  25
TORSDOF 6
ENDMDL
MODEL 7
REMARK VINA RESULT:      -7.2      2.478      3.071
REMARK  Name = 
REMARK  8 active torsions:
REMARK  status: ('A' for Active; 'I' for Inactive)
REMARK    1  A    between atoms: C_1  and  N_2
REMARK    2  A    between atoms: N_2  and  C_3
REMARK    3  A    between atoms: N_2  and  C_4
REMARK    4  A    between atoms: C_4  and  C_5
REMARK    5  A    between atoms: C_5  and  C_6
REMARK    6  A    between atoms: C_12  and  N_13
REMARK    7  A    between atoms: N_13  and  S_14
REMARK    8  A    between atoms: S_14  and  C_17
REMARK                            x       y       z     vdW  Elec       q    Type
REMARK                         _______ _______ _______ _____ _____    ______ ____
ROOT
ATOM      1  C   UNL     1       3.260   3.617  17.539  0.00  0.00    +0.000 A 
ATOM      2  C   UNL     1       2.752   2.349  17.708  0.00  0.00    +0.000 A 
ATOM      3  N   UNL     1       1.929   2.351  18.801  0.00  0.00    +0.000 N 
ATOM      4  C   UNL     1       1.895   3.607  19.362  0.00  0.00    +0.000 A 
ATOM      5  C   UNL     1       1.189   4.082  20.481  0.00  0.00    +0.000 A 
ATOM      6  C   UNL     1       1.344   5.437  20.820  0.00  0.00    +0.000 A 
ATOM      7  C   UNL     1       2.158   6.270  20.060  0.00  0.00    +0.000 A 
ATOM      8  C   UNL     1       2.846   5.780  18.950  0.00  0.00    +0.000 A 
ATOM      9  C   UNL     1       2.720   4.426  18.592  0.00  0.00    +0.000 A 
ATOM     10  H   UNL     1       1.417   1.551  19.143  0.00  0.00    +0.000 HD
ENDROOT
BRANCH   7  11
ATOM     11  N   UNL     1       2.286   7.659  20.348  0.00  0.00    +0.000 N 
ATOM     12  H   UNL     1       2.716   8.243  19.632  0.00  0.00    +0.000 HD
BRANCH  11  13
ATOM     13  S   UNL     1       1.062   8.447  21.191  0.00  0.00    +0.000 S 
ATOM     14  O   UNL     1      -0.080   7.564  21.180  0.00  0.00    +0.000 OA
ATOM     15  O   UNL     1       1.586   8.970  22.432  0.00  0.00    +0.000 OA
BRANCH  13  16
ATOM     16  C   UNL     1       0.557   9.816  20.248  0.00  0.00    +0.000 A 
ATOM     17  C   UNL     1       0.787  10.135  18.914  0.00  0.00    +0.000 A 
ATOM     18 CL   UNL     1       1.685   9.219  17.790  0.00  0.00    +0.000 Cl
ATOM     19  N   UNL     1       0.208  11.333  18.551  0.00  0.00    +0.000 NA
ATOM     20  C   UNL     1      -0.378  11.712  19.648  0.00  0.00    +0.000 A 
ATOM     21  S   UNL     1      -1.336  13.092  20.078  0.00  0.00    +0.000 S 
ATOM     22  C   UNL     1      -1.498  12.423  21.703  0.00  0.00    +0.000 A 
ATOM     23  C   UNL     1      -0.857  11.252  21.857  0.00  0.00    +0.000 A 
ATOM     24  N   UNL     1      -0.219  10.852  20.696  0.00  0.00    +0.000 N 
ENDBRANCH  13  16
ENDBRANCH  11  13
ENDBRANCH   7  11
BRANCH   1  25
ATOM     25  C   UNL     1       4.182   4.060  16.434  0.00  0.00    +0.000 C 
BRANCH  25  26
ATOM     26  C   UNL     1       5.634   4.282  16.899  0.00  0.00    +0.000 C 
BRANCH  26  28
ATOM     27  C   UNL     1       5.126   6.445  15.980  0.00  0.00    +0.000 C 
ATOM     28  N   UNL     1       6.161   5.637  16.637  0.00  0.00    +0.000 NA
ATOM     29  C   UNL     1       6.608   6.310  17.857  0.00  0.00    +0.000 C 
ENDBRANCH  26  28
ENDBRANCH  25  26
ENDBRANCH   1  25
TORSDOF 6
ENDMDL
MODEL 8
REMARK VINA RESULT:      -7.1      3.277      8.291
REMARK  Name = 
REMARK  8 active torsions:
REMARK  status: ('A' for Active; 'I' for Inactive)
REMARK    1  A    between atoms: C_1  and  N_2
REMARK    2  A    between atoms: N_2  and  C_3
REMARK    3  A    between atoms: N_2  and  C_4
REMARK    4  A    between atoms: C_4  and  C_5
REMARK    5  A    between atoms: C_5  and  C_6
REMARK    6  A    between atoms: C_12  and  N_13
REMARK    7  A    between atoms: N_13  and  S_14
REMARK    8  A    between atoms: S_14  and  C_17
REMARK                            x       y       z     vdW  Elec       q    Type
REMARK                         _______ _______ _______ _____ _____    ______ ____
ROOT
ATOM      1  C   UNL     1      -0.675  11.315  19.575  0.00  0.00    +0.000 A 
ATOM      2  C   UNL     1      -1.326  11.772  20.699  0.00  0.00    +0.000 A 
ATOM      3  N   UNL     1      -0.949  11.001  21.765  0.00  0.00    +0.000 N 
ATOM      4  C   UNL     1      -0.062  10.032  21.355  0.00  0.00    +0.000 A 
ATOM      5  C   UNL     1       0.591   9.029  22.092  0.00  0.00    +0.000 A 
ATOM      6  C   UNL     1       1.462   8.173  21.395  0.00  0.00    +0.000 A 
ATOM      7  C   UNL     1       1.671   8.333  20.030  0.00  0.00    +0.000 A 
ATOM      8  C   UNL     1       1.017   9.338  19.317  0.00  0.00    +0.000 A 
ATOM      9  C   UNL     1       0.131  10.203  19.984  0.00  0.00    +0.000 A 
ATOM     10  H   UNL     1      -1.269  11.127  22.714  0.00  0.00    +0.000 HD
ENDROOT
BRANCH   7  11
ATOM     11  N   UNL     1       2.592   7.516  19.312  0.00  0.00    +0.000 N 
ATOM     12  H   UNL     1       3.584   7.701  19.454  0.00  0.00    +0.000 HD
BRANCH  11  13
ATOM     13  S   UNL     1       2.254   5.884  19.090  0.00  0.00    +0.000 S 
ATOM     14  O   UNL     1       1.643   5.419  20.313  0.00  0.00    +0.000 OA
ATOM     15  O   UNL     1       1.603   5.692  17.813  0.00  0.00    +0.000 OA
BRANCH  13  16
ATOM     16  C   UNL     1       3.765   5.029  19.012  0.00  0.00    +0.000 A 
ATOM     17  C   UNL     1       4.162   3.832  19.598  0.00  0.00    +0.000 A 
ATOM     18 CL   UNL     1       3.221   2.836  20.613  0.00  0.00    +0.000 Cl
ATOM     19  N   UNL     1       5.464   3.500  19.287  0.00  0.00    +0.000 NA
ATOM     20  C   UNL     1       5.830   4.474  18.508  0.00  0.00    +0.000 A 
ATOM     21  S   UNL     1       7.299   4.843  17.664  0.00  0.00    +0.000 S 
ATOM     22  C   UNL     1       6.520   6.294  17.027  0.00  0.00    +0.000 A 
ATOM     23  C   UNL     1       5.254   6.442  17.452  0.00  0.00    +0.000 A 
ATOM     24  N   UNL     1       4.865   5.415  18.293  0.00  0.00    +0.000 N 
ENDBRANCH  13  16
ENDBRANCH  11  13
ENDBRANCH   7  11
BRANCH   1  25
ATOM     25  C   UNL     1      -0.780  11.903  18.192  0.00  0.00    +0.000 C 
BRANCH  25  26
ATOM     26  C   UNL     1      -2.164  11.705  17.545  0.00  0.00    +0.000 C 
BRANCH  26  28
ATOM     27  C   UNL     1      -3.248   9.559  17.546  0.00  0.00    +0.000 C 
ATOM     28  N   UNL     1      -2.321  10.431  16.814  0.00  0.00    +0.000 NA
ATOM     29  C   UNL     1      -2.807  10.626  15.448  0.00  0.00    +0.000 C 
ENDBRANCH  26  28
ENDBRANCH  25  26
ENDBRANCH   1  25
TORSDOF 6
ENDMDL
MODEL 9
REMARK VINA RESULT:      -7.1      1.638      1.858
REMARK  Name = 
REMARK  8 active torsions:
REMARK  status: ('A' for Active; 'I' for Inactive)
REMARK    1  A    between atoms: C_1  and  N_2
REMARK    2  A    between atoms: N_2  and  C_3
REMARK    3  A    between atoms: N_2  and  C_4
REMARK    4  A    between atoms: C_4  and  C_5
REMARK    5  A    between atoms: C_5  and  C_6
REMARK    6  A    between atoms: C_12  and  N_13
REMARK    7  A    between atoms: N_13  and  S_14
REMARK    8  A    between atoms: S_14  and  C_17
REMARK                            x       y       z     vdW  Elec       q    Type
REMARK                         _______ _______ _______ _____ _____    ______ ____
ROOT
ATOM      1  C   UNL     1       3.889   6.675  17.849  0.00  0.00    +0.000 A 
ATOM      2  C   UNL     1       4.062   5.683  18.789  0.00  0.00    +0.000 A 
ATOM      3  N   UNL     1       3.241   5.941  19.852  0.00  0.00    +0.000 N 
ATOM      4  C   UNL     1       2.531   7.099  19.628  0.00  0.00    +0.000 A 
ATOM      5  C   UNL     1       1.573   7.746  20.429  0.00  0.00    +0.000 A 
ATOM      6  C   UNL     1       1.001   8.928  19.930  0.00  0.00    +0.000 A 
ATOM      7  C   UNL     1       1.368   9.423  18.683  0.00  0.00    +0.000 A 
ATOM      8  C   UNL     1       2.316   8.763  17.902  0.00  0.00    +0.000 A 
ATOM      9  C   UNL     1       2.915   7.584  18.379  0.00  0.00    +0.000 A 
ATOM     10  H   UNL     1       3.160   5.364  20.677  0.00  0.00    +0.000 HD
ENDROOT
BRANCH   7  11
ATOM     11  N   UNL     1       0.760  10.587  18.131  0.00  0.00    +0.000 N 
ATOM     12  H   UNL     1       0.011  10.443  17.455  0.00  0.00    +0.000 HD
BRANCH  11  13
ATOM     13  S   UNL     1       0.516  11.936  19.104  0.00  0.00    +0.000 S 
ATOM     14  O   UNL     1       1.074  11.617  20.397  0.00  0.00    +0.000 OA
ATOM     15  O   UNL     1       0.920  13.129  18.393  0.00  0.00    +0.000 OA
BRANCH  13  16
ATOM     16  C   UNL     1      -1.190  12.086  19.396  0.00  0.00    +0.000 A 
ATOM     17  C   UNL     1      -1.884  12.551  20.508  0.00  0.00    +0.000 A 
ATOM     18 CL   UNL     1      -1.205  13.124  21.964  0.00  0.00    +0.000 Cl
ATOM     19  N   UNL     1      -3.251  12.498  20.336  0.00  0.00    +0.000 NA
ATOM     20  C   UNL     1      -3.370  12.028  19.130  0.00  0.00    +0.000 A 
ATOM     21  S   UNL     1      -4.730  11.655  18.120  0.00  0.00    +0.000 S 
ATOM     22  C   UNL     1      -3.602  11.159  16.855  0.00  0.00    +0.000 A 
ATOM     23  C   UNL     1      -2.315  11.282  17.220  0.00  0.00    +0.000 A 
ATOM     24  N   UNL     1      -2.183  11.768  18.509  0.00  0.00    +0.000 N 
ENDBRANCH  13  16
ENDBRANCH  11  13
ENDBRANCH   7  11
BRANCH   1  25
ATOM     25  C   UNL     1       4.577   6.755  16.512  0.00  0.00    +0.000 C 
BRANCH  25  26
ATOM     26  C   UNL     1       5.091   5.395  16.004  0.00  0.00    +0.000 C 
BRANCH  26  28
ATOM     27  C   UNL     1       7.278   4.811  16.816  0.00  0.00    +0.000 C 
ATOM     28  N   UNL     1       6.532   5.367  15.679  0.00  0.00    +0.000 NA
ATOM     29  C   UNL     1       6.820   4.588  14.475  0.00  0.00    +0.000 C 
ENDBRANCH  26  28
ENDBRANCH  25  26
ENDBRANCH   1  25
TORSDOF 6
ENDMDL
