MODEL 1
REMARK VINA RESULT:      -8.3      0.000      0.000
REMARK  Name = 
REMARK  13 active torsions:
REMARK  status: ('A' for Active; 'I' for Inactive)
REMARK    1  A    between atoms: C_1  and  O_2
REMARK    2  A    between atoms: O_2  and  C_3
REMARK    3  A    between atoms: C_6  and  C_7
REMARK    4  A    between atoms: C_12  and  C_13
REMARK    5  A    between atoms: C_13  and  C_14
REMARK    6  A    between atoms: C_14  and  C_15
REMARK    7  A    between atoms: C_15  and  C_16
REMARK    8  A    between atoms: C_16  and  C_17
REMARK    9  A    between atoms: C_17  and  C_18
REMARK   10  A    between atoms: N_20  and  C_21
REMARK   11  A    between atoms: C_21  and  C_22
REMARK   12  A    between atoms: C_22  and  C_23
REMARK   13  A    between atoms: C_24  and  C_25
REMARK                            x       y       z     vdW  Elec       q    Type
REMARK                         _______ _______ _______ _____ _____    ______ ____
ROOT
ATOM      1  C   UNL     1       7.362   6.022  18.673  0.00  0.00    +0.000 C 
ENDROOT
BRANCH   1   2
ATOM      2  C   UNL     1       7.700   4.761  17.891  0.00  0.00    +0.000 C 
BRANCH   2   8
ATOM      3  C   UNL     1       5.466   4.337  16.646  0.00  0.00    +0.000 A 
ATOM      4  N   UNL     1       5.209   4.198  15.299  0.00  0.00    +0.000 N 
ATOM      5  C   UNL     1       6.385   4.302  14.614  0.00  0.00    +0.000 A 
ATOM      6  N   UNL     1       6.426   4.215  13.281  0.00  0.00    +0.000 N 
ATOM      7  N   UNL     1       7.389   4.493  15.427  0.00  0.00    +0.000 NA
ATOM      8  C   UNL     1       6.845   4.521  16.696  0.00  0.00    +0.000 A 
ATOM      9  H   UNL     1       4.308   4.051  14.876  0.00  0.00    +0.000 HD
ATOM     10  H   UNL     1       5.716   3.718  12.761  0.00  0.00    +0.000 HD
ATOM     11  H   UNL     1       7.357   4.117  12.886  0.00  0.00    +0.000 HD
BRANCH   3  15
ATOM     12  C   UNL     1       2.511   4.287  19.753  0.00  0.00    +0.000 A 
ATOM     13  C   UNL     1       3.597   3.418  19.797  0.00  0.00    +0.000 A 
ATOM     14  C   UNL     1       4.547   3.425  18.772  0.00  0.00    +0.000 A 
ATOM     15  C   UNL     1       4.440   4.304  17.687  0.00  0.00    +0.000 A 
ATOM     16  C   UNL     1       3.329   5.156  17.641  0.00  0.00    +0.000 A 
ATOM     17  C   UNL     1       2.369   5.145  18.663  0.00  0.00    +0.000 A 
BRANCH  12  19
ATOM     18  C   UNL     1       1.041   2.899  20.966  0.00  0.00    +0.000 C 
ATOM     19  O   UNL     1       1.642   4.177  20.801  0.00  0.00    +0.000 OA
ENDBRANCH  12  19
ENDBRANCH   3  15
ENDBRANCH   2   8
ENDBRANCH   1   2
BRANCH   1  20
ATOM     20  C   UNL     1       7.671   7.259  17.831  0.00  0.00    +0.000 C 
BRANCH  20  21
ATOM     21  C   UNL     1       8.547   8.262  18.567  0.00  0.00    +0.000 C 
BRANCH  21  22
ATOM     22  C   UNL     1       8.454   9.684  18.007  0.00  0.00    +0.000 C 
BRANCH  22  23
ATOM     23  C   UNL     1       9.417  10.555  18.720  0.00  0.00    +0.000 A 
ATOM     24  C   UNL     1      10.310  11.467  18.210  0.00  0.00    +0.000 A 
ATOM     25  N   UNL     1      10.757  12.128  19.313  0.00  0.00    +0.000 N 
ATOM     26  N   UNL     1      10.268  11.585  20.443  0.00  0.00    +0.000 NA
ATOM     27  N   UNL     1       9.427  10.624  20.088  0.00  0.00    +0.000 NA
BRANCH  25  28
ATOM     28  C   UNL     1      11.660  13.263  19.364  0.00  0.00    +0.000 C 
BRANCH  28  29
ATOM     29  C   UNL     1      11.232  14.504  18.590  0.00  0.00    +0.000 C 
ATOM     30  C   UNL     1      11.743  14.763  17.195  0.00  0.00    +0.000 C 
ATOM     31  C   UNL     1      10.396  15.412  19.125  0.00  0.00    +0.000 C 
BRANCH  31  32
ATOM     32  C   UNL     1       9.836  15.342  20.476  0.00  0.00    +0.000 A 
ATOM     33  C   UNL     1       8.557  14.808  20.672  0.00  0.00    +0.000 A 
ATOM     34  C   UNL     1       8.026  14.720  21.960  0.00  0.00    +0.000 A 
ATOM     35  C   UNL     1       8.770  15.164  23.051  0.00  0.00    +0.000 A 
ATOM     36  C   UNL     1      10.041  15.705  22.858  0.00  0.00    +0.000 A 
ATOM     37  C   UNL     1      10.574  15.797  21.571  0.00  0.00    +0.000 A 
ENDBRANCH  31  32
ENDBRANCH  28  29
ENDBRANCH  25  28
ENDBRANCH  22  23
ENDBRANCH  21  22
ENDBRANCH  20  21
ENDBRANCH   1  20
TORSDOF 11
ENDMDL
MODEL 2
REMARK VINA RESULT:      -8.2      7.355     10.397
REMARK  Name = 
REMARK  13 active torsions:
REMARK  status: ('A' for Active; 'I' for Inactive)
REMARK    1  A    between atoms: C_1  and  O_2
REMARK    2  A    between atoms: O_2  and  C_3
REMARK    3  A    between atoms: C_6  and  C_7
REMARK    4  A    between atoms: C_12  and  C_13
REMARK    5  A    between atoms: C_13  and  C_14
REMARK    6  A    between atoms: C_14  and  C_15
REMARK    7  A    between atoms: C_15  and  C_16
REMARK    8  A    between atoms: C_16  and  C_17
REMARK    9  A    between atoms: C_17  and  C_18
REMARK   10  A    between atoms: N_20  and  C_21
REMARK   11  A    between atoms: C_21  and  C_22
REMARK   12  A    between atoms: C_22  and  C_23
REMARK   13  A    between atoms: C_24  and  C_25
REMARK                            x       y       z     vdW  Elec       q    Type
REMARK                         _______ _______ _______ _____ _____    ______ ____
ROOT
ATOM      1  C   UNL     1       2.482   7.022  18.133  0.00  0.00    +0.000 C 
ENDROOT
BRANCH   1   2
ATOM      2  C   UNL     1       2.486   6.786  19.636  0.00  0.00    +0.000 C 
BRANCH   2   8
ATOM      3  C   UNL     1       3.523   4.410  19.595  0.00  0.00    +0.000 A 
ATOM      4  N   UNL     1       3.203   3.285  20.324  0.00  0.00    +0.000 N 
ATOM      5  C   UNL     1       2.157   3.581  21.150  0.00  0.00    +0.000 A 
ATOM      6  N   UNL     1       1.647   2.668  21.984  0.00  0.00    +0.000 N 
ATOM      7  N   UNL     1       1.773   4.819  21.001  0.00  0.00    +0.000 NA
ATOM      8  C   UNL     1       2.607   5.358  20.042  0.00  0.00    +0.000 A 
ATOM      9  H   UNL     1       3.660   2.391  20.272  0.00  0.00    +0.000 HD
ATOM     10  H   UNL     1       1.728   1.678  21.798  0.00  0.00    +0.000 HD
ATOM     11  H   UNL     1       0.762   2.926  22.413  0.00  0.00    +0.000 HD
BRANCH   3  15
ATOM     12  C   UNL     1       6.676   4.677  16.701  0.00  0.00    +0.000 A 
ATOM     13  C   UNL     1       5.446   4.124  16.357  0.00  0.00    +0.000 A 
ATOM     14  C   UNL     1       4.428   4.021  17.309  0.00  0.00    +0.000 A 
ATOM     15  C   UNL     1       4.611   4.476  18.621  0.00  0.00    +0.000 A 
ATOM     16  C   UNL     1       5.861   5.008  18.962  0.00  0.00    +0.000 A 
ATOM     17  C   UNL     1       6.888   5.104  18.011  0.00  0.00    +0.000 A 
BRANCH  12  19
ATOM     18  C   UNL     1       7.062   4.823  14.379  0.00  0.00    +0.000 C 
ATOM     19  O   UNL     1       7.596   4.709  15.692  0.00  0.00    +0.000 OA
ENDBRANCH  12  19
ENDBRANCH   3  15
ENDBRANCH   2   8
ENDBRANCH   1   2
BRANCH   1  20
ATOM     20  C   UNL     1       2.099   8.471  17.833  0.00  0.00    +0.000 C 
BRANCH  20  21
ATOM     21  C   UNL     1       1.424   9.153  19.013  0.00  0.00    +0.000 C 
BRANCH  21  22
ATOM     22  C   UNL     1       0.281  10.089  18.610  0.00  0.00    +0.000 C 
BRANCH  22  23
ATOM     23  C   UNL     1      -0.263  10.748  19.820  0.00  0.00    +0.000 A 
ATOM     24  C   UNL     1      -1.332  11.602  19.940  0.00  0.00    +0.000 A 
ATOM     25  N   UNL     1      -1.510  11.706  21.286  0.00  0.00    +0.000 N 
ATOM     26  N   UNL     1      -0.542  11.057  21.961  0.00  0.00    +0.000 NA
ATOM     27  N   UNL     1       0.224  10.449  21.065  0.00  0.00    +0.000 NA
BRANCH  25  28
ATOM     28  C   UNL     1      -2.558  12.417  21.993  0.00  0.00    +0.000 C 
BRANCH  28  29
ATOM     29  C   UNL     1      -2.919  13.798  21.458  0.00  0.00    +0.000 C 
ATOM     30  C   UNL     1      -2.012  14.981  21.689  0.00  0.00    +0.000 C 
ATOM     31  C   UNL     1      -4.057  14.011  20.773  0.00  0.00    +0.000 C 
BRANCH  31  32
ATOM     32  C   UNL     1      -5.068  12.990  20.491  0.00  0.00    +0.000 A 
ATOM     33  C   UNL     1      -6.106  12.769  21.403  0.00  0.00    +0.000 A 
ATOM     34  C   UNL     1      -7.085  11.812  21.129  0.00  0.00    +0.000 A 
ATOM     35  C   UNL     1      -7.026  11.075  19.948  0.00  0.00    +0.000 A 
ATOM     36  C   UNL     1      -5.988  11.286  19.042  0.00  0.00    +0.000 A 
ATOM     37  C   UNL     1      -5.006  12.241  19.314  0.00  0.00    +0.000 A 
ENDBRANCH  31  32
ENDBRANCH  28  29
ENDBRANCH  25  28
ENDBRANCH  22  23
ENDBRANCH  21  22
ENDBRANCH  20  21
ENDBRANCH   1  20
TORSDOF 11
ENDMDL
MODEL 3
REMARK VINA RESULT:      -8.2      7.110      9.929
REMARK  Name = 
REMARK  13 active torsions:
REMARK  status: ('A' for Active; 'I' for Inactive)
REMARK    1  A    between atoms: C_1  and  O_2
REMARK    2  A    between atoms: O_2  and  C_3
REMARK    3  A    between atoms: C_6  and  C_7
REMARK    4  A    between atoms: C_12  and  C_13
REMARK    5  A    between atoms: C_13  and  C_14
REMARK    6  A    between atoms: C_14  and  C_15
REMARK    7  A    between atoms: C_15  and  C_16
REMARK    8  A    between atoms: C_16  and  C_17
REMARK    9  A    between atoms: C_17  and  C_18
REMARK   10  A    between atoms: N_20  and  C_21
REMARK   11  A    between atoms: C_21  and  C_22
REMARK   12  A    between atoms: C_22  and  C_23
REMARK   13  A    between atoms: C_24  and  C_25
REMARK                            x       y       z     vdW  Elec       q    Type
REMARK                         _______ _______ _______ _____ _____    ______ ____
ROOT
ATOM      1  C   UNL     1       2.276   7.243  18.174  0.00  0.00    +0.000 C 
ENDROOT
BRANCH   1   2
ATOM      2  C   UNL     1       2.539   6.966  19.647  0.00  0.00    +0.000 C 
BRANCH   2   8
ATOM      3  C   UNL     1       3.509   4.569  19.459  0.00  0.00    +0.000 A 
ATOM      4  N   UNL     1       3.214   3.430  20.176  0.00  0.00    +0.000 N 
ATOM      5  C   UNL     1       2.239   3.723  21.085  0.00  0.00    +0.000 A 
ATOM      6  N   UNL     1       1.768   2.798  21.926  0.00  0.00    +0.000 N 
ATOM      7  N   UNL     1       1.877   4.975  21.002  0.00  0.00    +0.000 NA
ATOM      8  C   UNL     1       2.653   5.524  20.000  0.00  0.00    +0.000 A 
ATOM      9  H   UNL     1       3.643   2.527  20.064  0.00  0.00    +0.000 HD
ATOM     10  H   UNL     1       1.810   1.812  21.706  0.00  0.00    +0.000 HD
ATOM     11  H   UNL     1       0.924   3.062  22.427  0.00  0.00    +0.000 HD
BRANCH   3  15
ATOM     12  C   UNL     1       6.515   4.699  16.403  0.00  0.00    +0.000 A 
ATOM     13  C   UNL     1       6.848   4.935  17.733  0.00  0.00    +0.000 A 
ATOM     14  C   UNL     1       5.862   4.911  18.722  0.00  0.00    +0.000 A 
ATOM     15  C   UNL     1       4.524   4.641  18.409  0.00  0.00    +0.000 A 
ATOM     16  C   UNL     1       4.196   4.429  17.064  0.00  0.00    +0.000 A 
ATOM     17  C   UNL     1       5.182   4.463  16.067  0.00  0.00    +0.000 A 
BRANCH  12  19
ATOM     18  C   UNL     1       7.201   4.781  14.149  0.00  0.00    +0.000 C 
ATOM     19  O   UNL     1       7.559   4.765  15.525  0.00  0.00    +0.000 OA
ENDBRANCH  12  19
ENDBRANCH   3  15
ENDBRANCH   2   8
ENDBRANCH   1   2
BRANCH   1  20
ATOM     20  C   UNL     1       2.371   8.742  17.898  0.00  0.00    +0.000 C 
BRANCH  20  21
ATOM     21  C   UNL     1       1.062   9.470  18.171  0.00  0.00    +0.000 C 
BRANCH  21  22
ATOM     22  C   UNL     1       1.249  10.855  18.798  0.00  0.00    +0.000 C 
BRANCH  22  23
ATOM     23  C   UNL     1       0.574  10.892  20.116  0.00  0.00    +0.000 A 
ATOM     24  C   UNL     1      -0.368  11.774  20.587  0.00  0.00    +0.000 A 
ATOM     25  N   UNL     1      -0.793  11.199  21.746  0.00  0.00    +0.000 N 
ATOM     26  N   UNL     1      -0.080  10.096  22.038  0.00  0.00    +0.000 NA
ATOM     27  N   UNL     1       0.756   9.888  21.030  0.00  0.00    +0.000 NA
BRANCH  25  28
ATOM     28  C   UNL     1      -1.851  11.654  22.628  0.00  0.00    +0.000 C 
BRANCH  28  29
ATOM     29  C   UNL     1      -2.059  13.162  22.715  0.00  0.00    +0.000 C 
ATOM     30  C   UNL     1      -1.125  14.029  23.522  0.00  0.00    +0.000 C 
ATOM     31  C   UNL     1      -3.082  13.767  22.086  0.00  0.00    +0.000 C 
BRANCH  31  32
ATOM     32  C   UNL     1      -4.103  13.079  21.293  0.00  0.00    +0.000 A 
ATOM     33  C   UNL     1      -5.351  12.795  21.861  0.00  0.00    +0.000 A 
ATOM     34  C   UNL     1      -6.335  12.157  21.104  0.00  0.00    +0.000 A 
ATOM     35  C   UNL     1      -6.074  11.803  19.782  0.00  0.00    +0.000 A 
ATOM     36  C   UNL     1      -4.830  12.075  19.216  0.00  0.00    +0.000 A 
ATOM     37  C   UNL     1      -3.842  12.711  19.971  0.00  0.00    +0.000 A 
ENDBRANCH  31  32
ENDBRANCH  28  29
ENDBRANCH  25  28
ENDBRANCH  22  23
ENDBRANCH  21  22
ENDBRANCH  20  21
ENDBRANCH   1  20
TORSDOF 11
ENDMDL
MODEL 4
REMARK VINA RESULT:      -7.9      5.801      7.515
REMARK  Name = 
REMARK  13 active torsions:
REMARK  status: ('A' for Active; 'I' for Inactive)
REMARK    1  A    between atoms: C_1  and  O_2
REMARK    2  A    between atoms: O_2  and  C_3
REMARK    3  A    between atoms: C_6  and  C_7
REMARK    4  A    between atoms: C_12  and  C_13
REMARK    5  A    between atoms: C_13  and  C_14
REMARK    6  A    between atoms: C_14  and  C_15
REMARK    7  A    between atoms: C_15  and  C_16
REMARK    8  A    between atoms: C_16  and  C_17
REMARK    9  A    between atoms: C_17  and  C_18
REMARK   10  A    between atoms: N_20  and  C_21
REMARK   11  A    between atoms: C_21  and  C_22
REMARK   12  A    between atoms: C_22  and  C_23
REMARK   13  A    between atoms: C_24  and  C_25
REMARK                            x       y       z     vdW  Elec       q    Type
REMARK                         _______ _______ _______ _____ _____    ______ ____
ROOT
ATOM      1  C   UNL     1       3.656   7.270  17.143  0.00  0.00    +0.000 C 
ENDROOT
BRANCH   1   2
ATOM      2  C   UNL     1       5.121   6.875  17.037  0.00  0.00    +0.000 C 
BRANCH   2   8
ATOM      3  C   UNL     1       4.865   4.338  16.569  0.00  0.00    +0.000 A 
ATOM      4  N   UNL     1       5.391   3.561  15.560  0.00  0.00    +0.000 N 
ATOM      5  C   UNL     1       6.158   4.350  14.752  0.00  0.00    +0.000 A 
ATOM      6  N   UNL     1       6.783   3.852  13.681  0.00  0.00    +0.000 N 
ATOM      7  N   UNL     1       6.171   5.585  15.174  0.00  0.00    +0.000 NA
ATOM      8  C   UNL     1       5.373   5.606  16.300  0.00  0.00    +0.000 A 
ATOM      9  H   UNL     1       5.236   2.576  15.424  0.00  0.00    +0.000 HD
ATOM     10  H   UNL     1       7.032   2.874  13.620  0.00  0.00    +0.000 HD
ATOM     11  H   UNL     1       7.471   4.470  13.260  0.00  0.00    +0.000 HD
BRANCH   3  15
ATOM     12  C   UNL     1       2.252   2.789  19.596  0.00  0.00    +0.000 A 
ATOM     13  C   UNL     1       1.774   3.049  18.316  0.00  0.00    +0.000 A 
ATOM     14  C   UNL     1       2.624   3.573  17.338  0.00  0.00    +0.000 A 
ATOM     15  C   UNL     1       3.972   3.838  17.612  0.00  0.00    +0.000 A 
ATOM     16  C   UNL     1       4.436   3.596  18.912  0.00  0.00    +0.000 A 
ATOM     17  C   UNL     1       3.582   3.080  19.898  0.00  0.00    +0.000 A 
BRANCH  12  19
ATOM     18  C   UNL     1       1.605   2.513  21.847  0.00  0.00    +0.000 C 
ATOM     19  O   UNL     1       1.325   2.296  20.469  0.00  0.00    +0.000 OA
ENDBRANCH  12  19
ENDBRANCH   3  15
ENDBRANCH   2   8
ENDBRANCH   1   2
BRANCH   1  20
ATOM     20  C   UNL     1       3.178   7.127  18.587  0.00  0.00    +0.000 C 
BRANCH  20  21
ATOM     21  C   UNL     1       2.087   8.127  18.944  0.00  0.00    +0.000 C 
BRANCH  21  22
ATOM     22  C   UNL     1       1.691   9.043  17.782  0.00  0.00    +0.000 C 
BRANCH  22  23
ATOM     23  C   UNL     1       0.846  10.146  18.295  0.00  0.00    +0.000 A 
ATOM     24  C   UNL     1       1.219  11.381  18.768  0.00  0.00    +0.000 A 
ATOM     25  N   UNL     1       0.039  12.051  18.877  0.00  0.00    +0.000 N 
ATOM     26  N   UNL     1      -1.008  11.250  18.607  0.00  0.00    +0.000 NA
ATOM     27  N   UNL     1      -0.520  10.076  18.230  0.00  0.00    +0.000 NA
BRANCH  25  28
ATOM     28  C   UNL     1      -0.165  13.438  19.252  0.00  0.00    +0.000 C 
BRANCH  28  29
ATOM     29  C   UNL     1       0.817  14.018  20.263  0.00  0.00    +0.000 C 
ATOM     30  C   UNL     1       2.082  14.705  19.811  0.00  0.00    +0.000 C 
ATOM     31  C   UNL     1       0.596  13.929  21.587  0.00  0.00    +0.000 C 
BRANCH  31  32
ATOM     32  C   UNL     1      -0.554  13.264  22.202  0.00  0.00    +0.000 A 
ATOM     33  C   UNL     1      -0.526  11.882  22.417  0.00  0.00    +0.000 A 
ATOM     34  C   UNL     1      -1.612  11.246  23.021  0.00  0.00    +0.000 A 
ATOM     35  C   UNL     1      -2.725  11.989  23.410  0.00  0.00    +0.000 A 
ATOM     36  C   UNL     1      -2.761  13.365  23.189  0.00  0.00    +0.000 A 
ATOM     37  C   UNL     1      -1.677  14.004  22.582  0.00  0.00    +0.000 A 
ENDBRANCH  31  32
ENDBRANCH  28  29
ENDBRANCH  25  28
ENDBRANCH  22  23
ENDBRANCH  21  22
ENDBRANCH  20  21
ENDBRANCH   1  20
TORSDOF 11
ENDMDL
MODEL 5
REMARK VINA RESULT:      -7.9      2.484      3.360
REMARK  Name = 
REMARK  13 active torsions:
REMARK  status: ('A' for Active; 'I' for Inactive)
REMARK    1  A    between atoms: C_1  and  O_2
REMARK    2  A    between atoms: O_2  and  C_3
REMARK    3  A    between atoms: C_6  and  C_7
REMARK    4  A    between atoms: C_12  and  C_13
REMARK    5  A    between atoms: C_13  and  C_14
REMARK    6  A    between atoms: C_14  and  C_15
REMARK    7  A    between atoms: C_15  and  C_16
REMARK    8  A    between atoms: C_16  and  C_17
REMARK    9  A    between atoms: C_17  and  C_18
REMARK   10  A    between atoms: N_20  and  C_21
REMARK   11  A    between atoms: C_21  and  C_22
REMARK   12  A    between atoms: C_22  and  C_23
REMARK   13  A    between atoms: C_24  and  C_25
REMARK                            x       y       z     vdW  Elec       q    Type
REMARK                         _______ _______ _______ _____ _____    ______ ____
ROOT
ATOM      1  C   UNL     1       6.623   6.137  16.577  0.00  0.00    +0.000 C 
ENDROOT
BRANCH   1   2
ATOM      2  C   UNL     1       5.109   6.157  16.433  0.00  0.00    +0.000 C 
BRANCH   2   8
ATOM      3  C   UNL     1       3.373   5.267  18.140  0.00  0.00    +0.000 A 
ATOM      4  N   UNL     1       3.067   3.974  18.509  0.00  0.00    +0.000 N 
ATOM      5  C   UNL     1       3.874   3.118  17.817  0.00  0.00    +0.000 A 
ATOM      6  N   UNL     1       3.783   1.794  17.974  0.00  0.00    +0.000 N 
ATOM      7  N   UNL     1       4.687   3.768  17.030  0.00  0.00    +0.000 NA
ATOM      8  C   UNL     1       4.395   5.106  17.209  0.00  0.00    +0.000 A 
ATOM      9  H   UNL     1       2.364   3.694  19.172  0.00  0.00    +0.000 HD
ATOM     10  H   UNL     1       3.421   1.385  18.825  0.00  0.00    +0.000 HD
ATOM     11  H   UNL     1       4.544   1.260  17.563  0.00  0.00    +0.000 HD
BRANCH   3  15
ATOM     12  C   UNL     1       1.458   8.770  19.706  0.00  0.00    +0.000 A 
ATOM     13  C   UNL     1       1.640   7.646  20.507  0.00  0.00    +0.000 A 
ATOM     14  C   UNL     1       2.246   6.500  19.986  0.00  0.00    +0.000 A 
ATOM     15  C   UNL     1       2.694   6.453  18.660  0.00  0.00    +0.000 A 
ATOM     16  C   UNL     1       2.483   7.581  17.857  0.00  0.00    +0.000 A 
ATOM     17  C   UNL     1       1.866   8.729  18.374  0.00  0.00    +0.000 A 
BRANCH  12  19
ATOM     18  C   UNL     1       0.445   9.599  21.667  0.00  0.00    +0.000 C 
ATOM     19  O   UNL     1       0.839   9.822  20.319  0.00  0.00    +0.000 OA
ENDBRANCH  12  19
ENDBRANCH   3  15
ENDBRANCH   2   8
ENDBRANCH   1   2
BRANCH   1  20
ATOM     20  C   UNL     1       7.010   6.200  18.053  0.00  0.00    +0.000 C 
BRANCH  20  21
ATOM     21  C   UNL     1       8.010   7.308  18.349  0.00  0.00    +0.000 C 
BRANCH  21  22
ATOM     22  C   UNL     1       7.796   8.568  17.506  0.00  0.00    +0.000 C 
BRANCH  22  23
ATOM     23  C   UNL     1       8.510   9.705  18.133  0.00  0.00    +0.000 A 
ATOM     24  C   UNL     1       8.463  11.042  17.820  0.00  0.00    +0.000 A 
ATOM     25  N   UNL     1       9.124  11.634  18.853  0.00  0.00    +0.000 N 
ATOM     26  N   UNL     1       9.652  10.721  19.688  0.00  0.00    +0.000 NA
ATOM     27  N   UNL     1       9.265   9.526  19.262  0.00  0.00    +0.000 NA
BRANCH  25  28
ATOM     28  C   UNL     1       9.309  13.054  19.092  0.00  0.00    +0.000 C 
BRANCH  28  29
ATOM     29  C   UNL     1      10.371  13.435  20.117  0.00  0.00    +0.000 C 
ATOM     30  C   UNL     1      11.800  13.679  19.701  0.00  0.00    +0.000 C 
ATOM     31  C   UNL     1      10.074  13.558  21.423  0.00  0.00    +0.000 C 
BRANCH  31  32
ATOM     32  C   UNL     1       8.752  13.322  22.008  0.00  0.00    +0.000 A 
ATOM     33  C   UNL     1       8.471  12.094  22.619  0.00  0.00    +0.000 A 
ATOM     34  C   UNL     1       7.220  11.871  23.195  0.00  0.00    +0.000 A 
ATOM     35  C   UNL     1       6.250  12.871  23.163  0.00  0.00    +0.000 A 
ATOM     36  C   UNL     1       6.523  14.092  22.547  0.00  0.00    +0.000 A 
ATOM     37  C   UNL     1       7.773  14.317  21.967  0.00  0.00    +0.000 A 
ENDBRANCH  31  32
ENDBRANCH  28  29
ENDBRANCH  25  28
ENDBRANCH  22  23
ENDBRANCH  21  22
ENDBRANCH  20  21
ENDBRANCH   1  20
TORSDOF 11
ENDMDL
MODEL 6
REMARK VINA RESULT:      -7.8      1.510      2.081
REMARK  Name = 
REMARK  13 active torsions:
REMARK  status: ('A' for Active; 'I' for Inactive)
REMARK    1  A    between atoms: C_1  and  O_2
REMARK    2  A    between atoms: O_2  and  C_3
REMARK    3  A    between atoms: C_6  and  C_7
REMARK    4  A    between atoms: C_12  and  C_13
REMARK    5  A    between atoms: C_13  and  C_14
REMARK    6  A    between atoms: C_14  and  C_15
REMARK    7  A    between atoms: C_15  and  C_16
REMARK    8  A    between atoms: C_16  and  C_17
REMARK    9  A    between atoms: C_17  and  C_18
REMARK   10  A    between atoms: N_20  and  C_21
REMARK   11  A    between atoms: C_21  and  C_22
REMARK   12  A    between atoms: C_22  and  C_23
REMARK   13  A    between atoms: C_24  and  C_25
REMARK                            x       y       z     vdW  Elec       q    Type
REMARK                         _______ _______ _______ _____ _____    ______ ____
ROOT
ATOM      1  C   UNL     1       5.862   6.827  17.761  0.00  0.00    +0.000 C 
ENDROOT
BRANCH   1   2
ATOM      2  C   UNL     1       5.152   6.645  16.429  0.00  0.00    +0.000 C 
BRANCH   2   8
ATOM      3  C   UNL     1       4.978   4.075  16.135  0.00  0.00    +0.000 A 
ATOM      4  N   UNL     1       5.471   3.256  15.143  0.00  0.00    +0.000 N 
ATOM      5  C   UNL     1       6.149   4.022  14.239  0.00  0.00    +0.000 A 
ATOM      6  N   UNL     1       6.724   3.481  13.160  0.00  0.00    +0.000 N 
ATOM      7  N   UNL     1       6.135   5.281  14.581  0.00  0.00    +0.000 NA
ATOM      8  C   UNL     1       5.411   5.343  15.756  0.00  0.00    +0.000 A 
ATOM      9  H   UNL     1       5.352   2.260  15.079  0.00  0.00    +0.000 HD
ATOM     10  H   UNL     1       7.012   2.512  13.143  0.00  0.00    +0.000 HD
ATOM     11  H   UNL     1       7.356   4.098  12.656  0.00  0.00    +0.000 HD
BRANCH   3  15
ATOM     12  C   UNL     1       2.633   2.622  19.419  0.00  0.00    +0.000 A 
ATOM     13  C   UNL     1       2.046   2.851  18.178  0.00  0.00    +0.000 A 
ATOM     14  C   UNL     1       2.810   3.343  17.116  0.00  0.00    +0.000 A 
ATOM     15  C   UNL     1       4.177   3.608  17.266  0.00  0.00    +0.000 A 
ATOM     16  C   UNL     1       4.751   3.398  18.526  0.00  0.00    +0.000 A 
ATOM     17  C   UNL     1       3.985   2.914  19.596  0.00  0.00    +0.000 A 
BRANCH  12  19
ATOM     18  C   UNL     1       1.731   2.928  21.576  0.00  0.00    +0.000 C 
ATOM     19  O   UNL     1       1.784   2.157  20.382  0.00  0.00    +0.000 OA
ENDBRANCH  12  19
ENDBRANCH   3  15
ENDBRANCH   2   8
ENDBRANCH   1   2
BRANCH   1  20
ATOM     20  C   UNL     1       7.366   6.973  17.537  0.00  0.00    +0.000 C 
BRANCH  20  21
ATOM     21  C   UNL     1       7.834   8.418  17.637  0.00  0.00    +0.000 C 
BRANCH  21  22
ATOM     22  C   UNL     1       8.611   8.724  18.920  0.00  0.00    +0.000 C 
BRANCH  22  23
ATOM     23  C   UNL     1       9.098  10.123  18.876  0.00  0.00    +0.000 A 
ATOM     24  C   UNL     1       9.087  11.016  17.833  0.00  0.00    +0.000 A 
ATOM     25  N   UNL     1       9.435  12.195  18.417  0.00  0.00    +0.000 N 
ATOM     26  N   UNL     1       9.759  12.025  19.713  0.00  0.00    +0.000 NA
ATOM     27  N   UNL     1       9.538  10.752  20.011  0.00  0.00    +0.000 NA
BRANCH  25  28
ATOM     28  C   UNL     1       9.501  13.508  17.802  0.00  0.00    +0.000 C 
BRANCH  28  29
ATOM     29  C   UNL     1      10.896  14.065  17.542  0.00  0.00    +0.000 C 
ATOM     30  C   UNL     1      11.933  13.250  16.811  0.00  0.00    +0.000 C 
ATOM     31  C   UNL     1      11.251  15.292  17.963  0.00  0.00    +0.000 C 
BRANCH  31  32
ATOM     32  C   UNL     1      10.388  16.201  18.719  0.00  0.00    +0.000 A 
ATOM     33  C   UNL     1       9.786  17.288  18.073  0.00  0.00    +0.000 A 
ATOM     34  C   UNL     1       8.946  18.146  18.785  0.00  0.00    +0.000 A 
ATOM     35  C   UNL     1       8.707  17.921  20.139  0.00  0.00    +0.000 A 
ATOM     36  C   UNL     1       9.312  16.845  20.788  0.00  0.00    +0.000 A 
ATOM     37  C   UNL     1      10.154  15.986  20.079  0.00  0.00    +0.000 A 
ENDBRANCH  31  32
ENDBRANCH  28  29
ENDBRANCH  25  28
ENDBRANCH  22  23
ENDBRANCH  21  22
ENDBRANCH  20  21
ENDBRANCH   1  20
TORSDOF 11
ENDMDL
MODEL 7
REMARK VINA RESULT:      -7.8      6.274     11.026
REMARK  Name = 
REMARK  13 active torsions:
REMARK  status: ('A' for Active; 'I' for Inactive)
REMARK    1  A    between atoms: C_1  and  O_2
REMARK    2  A    between atoms: O_2  and  C_3
REMARK    3  A    between atoms: C_6  and  C_7
REMARK    4  A    between atoms: C_12  and  C_13
REMARK    5  A    between atoms: C_13  and  C_14
REMARK    6  A    between atoms: C_14  and  C_15
REMARK    7  A    between atoms: C_15  and  C_16
REMARK    8  A    between atoms: C_16  and  C_17
REMARK    9  A    between atoms: C_17  and  C_18
REMARK   10  A    between atoms: N_20  and  C_21
REMARK   11  A    between atoms: C_21  and  C_22
REMARK   12  A    between atoms: C_22  and  C_23
REMARK   13  A    between atoms: C_24  and  C_25
REMARK                            x       y       z     vdW  Elec       q    Type
REMARK                         _______ _______ _______ _____ _____    ______ ____
ROOT
ATOM      1  C   UNL     1       0.620  11.087  21.301  0.00  0.00    +0.000 C 
ENDROOT
BRANCH   1   2
ATOM      2  C   UNL     1      -0.499  12.096  21.091  0.00  0.00    +0.000 C 
BRANCH   2   8
ATOM      3  C   UNL     1      -0.250  12.973  18.664  0.00  0.00    +0.000 A 
ATOM      4  N   UNL     1      -1.057  12.786  17.562  0.00  0.00    +0.000 N 
ATOM      5  C   UNL     1      -2.126  12.019  17.925  0.00  0.00    +0.000 A 
ATOM      6  N   UNL     1      -3.067  11.672  17.042  0.00  0.00    +0.000 N 
ATOM      7  N   UNL     1      -2.071  11.702  19.190  0.00  0.00    +0.000 NA
ATOM      8  C   UNL     1      -0.914  12.280  19.673  0.00  0.00    +0.000 A 
ATOM      9  H   UNL     1      -0.892  13.143  16.636  0.00  0.00    +0.000 HD
ATOM     10  H   UNL     1      -3.249  12.226  16.216  0.00  0.00    +0.000 HD
ATOM     11  H   UNL     1      -3.906  11.266  17.447  0.00  0.00    +0.000 HD
BRANCH   3  15
ATOM     12  C   UNL     1       3.430  15.174  18.708  0.00  0.00    +0.000 A 
ATOM     13  C   UNL     1       2.241  15.776  19.108  0.00  0.00    +0.000 A 
ATOM     14  C   UNL     1       1.041  15.061  19.073  0.00  0.00    +0.000 A 
ATOM     15  C   UNL     1       1.002  13.727  18.649  0.00  0.00    +0.000 A 
ATOM     16  C   UNL     1       2.200  13.139  18.225  0.00  0.00    +0.000 A 
ATOM     17  C   UNL     1       3.405  13.857  18.249  0.00  0.00    +0.000 A 
BRANCH  12  19
ATOM     18  C   UNL     1       4.461  17.045  19.704  0.00  0.00    +0.000 C 
ATOM     19  O   UNL     1       4.533  15.976  18.770  0.00  0.00    +0.000 OA
ENDBRANCH  12  19
ENDBRANCH   3  15
ENDBRANCH   2   8
ENDBRANCH   1   2
BRANCH   1  20
ATOM     20  C   UNL     1       0.036   9.737  21.717  0.00  0.00    +0.000 C 
BRANCH  20  21
ATOM     21  C   UNL     1       1.070   8.620  21.686  0.00  0.00    +0.000 C 
BRANCH  21  22
ATOM     22  C   UNL     1       1.636   8.346  20.291  0.00  0.00    +0.000 C 
BRANCH  22  23
ATOM     23  C   UNL     1       1.967   6.906  20.171  0.00  0.00    +0.000 A 
ATOM     24  C   UNL     1       2.918   6.294  19.391  0.00  0.00    +0.000 A 
ATOM     25  N   UNL     1       2.932   5.013  19.851  0.00  0.00    +0.000 N 
ATOM     26  N   UNL     1       1.971   4.811  20.772  0.00  0.00    +0.000 NA
ATOM     27  N   UNL     1       1.380   5.978  20.989  0.00  0.00    +0.000 NA
BRANCH  25  28
ATOM     28  C   UNL     1       3.812   3.932  19.447  0.00  0.00    +0.000 C 
BRANCH  28  29
ATOM     29  C   UNL     1       3.771   3.539  17.975  0.00  0.00    +0.000 C 
ATOM     30  C   UNL     1       2.781   2.519  17.471  0.00  0.00    +0.000 C 
ATOM     31  C   UNL     1       4.617   4.080  17.080  0.00  0.00    +0.000 C 
BRANCH  31  32
ATOM     32  C   UNL     1       5.664   5.052  17.398  0.00  0.00    +0.000 A 
ATOM     33  C   UNL     1       6.731   4.681  18.225  0.00  0.00    +0.000 A 
ATOM     34  C   UNL     1       7.743   5.598  18.515  0.00  0.00    +0.000 A 
ATOM     35  C   UNL     1       7.690   6.884  17.981  0.00  0.00    +0.000 A 
ATOM     36  C   UNL     1       6.624   7.261  17.165  0.00  0.00    +0.000 A 
ATOM     37  C   UNL     1       5.609   6.346  16.875  0.00  0.00    +0.000 A 
ENDBRANCH  31  32
ENDBRANCH  28  29
ENDBRANCH  25  28
ENDBRANCH  22  23
ENDBRANCH  21  22
ENDBRANCH  20  21
ENDBRANCH   1  20
TORSDOF 11
ENDMDL
MODEL 8
REMARK VINA RESULT:      -7.8      5.919      7.979
REMARK  Name = 
REMARK  13 active torsions:
REMARK  status: ('A' for Active; 'I' for Inactive)
REMARK    1  A    between atoms: C_1  and  O_2
REMARK    2  A    between atoms: O_2  and  C_3
REMARK    3  A    between atoms: C_6  and  C_7
REMARK    4  A    between atoms: C_12  and  C_13
REMARK    5  A    between atoms: C_13  and  C_14
REMARK    6  A    between atoms: C_14  and  C_15
REMARK    7  A    between atoms: C_15  and  C_16
REMARK    8  A    between atoms: C_16  and  C_17
REMARK    9  A    between atoms: C_17  and  C_18
REMARK   10  A    between atoms: N_20  and  C_21
REMARK   11  A    between atoms: C_21  and  C_22
REMARK   12  A    between atoms: C_22  and  C_23
REMARK   13  A    between atoms: C_24  and  C_25
REMARK                            x       y       z     vdW  Elec       q    Type
REMARK                         _______ _______ _______ _____ _____    ______ ____
ROOT
ATOM      1  C   UNL     1       2.014   7.109  18.411  0.00  0.00    +0.000 C 
ENDROOT
BRANCH   1   2
ATOM      2  C   UNL     1       2.658   6.769  19.747  0.00  0.00    +0.000 C 
BRANCH   2   8
ATOM      3  C   UNL     1       3.625   4.387  19.413  0.00  0.00    +0.000 A 
ATOM      4  N   UNL     1       3.353   3.213  20.083  0.00  0.00    +0.000 N 
ATOM      5  C   UNL     1       2.406   3.459  21.034  0.00  0.00    +0.000 A 
ATOM      6  N   UNL     1       1.962   2.492  21.843  0.00  0.00    +0.000 N 
ATOM      7  N   UNL     1       2.040   4.712  21.022  0.00  0.00    +0.000 NA
ATOM      8  C   UNL     1       2.784   5.312  20.026  0.00  0.00    +0.000 A 
ATOM      9  H   UNL     1       3.780   2.318  19.913  0.00  0.00    +0.000 HD
ATOM     10  H   UNL     1       1.999   1.518  21.573  0.00  0.00    +0.000 HD
ATOM     11  H   UNL     1       1.133   2.730  22.381  0.00  0.00    +0.000 HD
BRANCH   3  15
ATOM     12  C   UNL     1       6.530   4.670  16.271  0.00  0.00    +0.000 A 
ATOM     13  C   UNL     1       6.925   4.702  17.605  0.00  0.00    +0.000 A 
ATOM     14  C   UNL     1       5.974   4.629  18.625  0.00  0.00    +0.000 A 
ATOM     15  C   UNL     1       4.608   4.513  18.339  0.00  0.00    +0.000 A 
ATOM     16  C   UNL     1       4.219   4.507  16.993  0.00  0.00    +0.000 A 
ATOM     17  C   UNL     1       5.171   4.590  15.967  0.00  0.00    +0.000 A 
BRANCH  12  19
ATOM     18  C   UNL     1       7.150   4.779  13.999  0.00  0.00    +0.000 C 
ATOM     19  O   UNL     1       7.546   4.766  15.365  0.00  0.00    +0.000 OA
ENDBRANCH  12  19
ENDBRANCH   3  15
ENDBRANCH   2   8
ENDBRANCH   1   2
BRANCH   1  20
ATOM     20  C   UNL     1       2.753   8.275  17.756  0.00  0.00    +0.000 C 
BRANCH  20  21
ATOM     21  C   UNL     1       1.968   9.577  17.827  0.00  0.00    +0.000 C 
BRANCH  21  22
ATOM     22  C   UNL     1       0.790   9.531  18.804  0.00  0.00    +0.000 C 
BRANCH  22  23
ATOM     23  C   UNL     1       0.057  10.817  18.749  0.00  0.00    +0.000 A 
ATOM     24  C   UNL     1       0.470  12.072  19.127  0.00  0.00    +0.000 A 
ATOM     25  N   UNL     1      -0.506  12.889  18.643  0.00  0.00    +0.000 N 
ATOM     26  N   UNL     1      -1.518  12.182  18.107  0.00  0.00    +0.000 NA
ATOM     27  N   UNL     1      -1.173  10.902  18.152  0.00  0.00    +0.000 NA
BRANCH  25  28
ATOM     28  C   UNL     1      -0.549  14.339  18.677  0.00  0.00    +0.000 C 
BRANCH  28  29
ATOM     29  C   UNL     1      -0.210  14.996  20.009  0.00  0.00    +0.000 C 
ATOM     30  C   UNL     1      -1.222  15.056  21.126  0.00  0.00    +0.000 C 
ATOM     31  C   UNL     1       0.996  15.551  20.232  0.00  0.00    +0.000 C 
BRANCH  31  32
ATOM     32  C   UNL     1       2.081  15.618  19.251  0.00  0.00    +0.000 A 
ATOM     33  C   UNL     1       3.088  14.646  19.260  0.00  0.00    +0.000 A 
ATOM     34  C   UNL     1       4.114  14.694  18.315  0.00  0.00    +0.000 A 
ATOM     35  C   UNL     1       4.135  15.710  17.362  0.00  0.00    +0.000 A 
ATOM     36  C   UNL     1       3.139  16.686  17.356  0.00  0.00    +0.000 A 
ATOM     37  C   UNL     1       2.113  16.642  18.302  0.00  0.00    +0.000 A 
ENDBRANCH  31  32
ENDBRANCH  28  29
ENDBRANCH  25  28
ENDBRANCH  22  23
ENDBRANCH  21  22
ENDBRANCH  20  21
ENDBRANCH   1  20
TORSDOF 11
ENDMDL
MODEL 9
REMARK VINA RESULT:      -7.8      7.215     11.099
REMARK  Name = 
REMARK  13 active torsions:
REMARK  status: ('A' for Active; 'I' for Inactive)
REMARK    1  A    between atoms: C_1  and  O_2
REMARK    2  A    between atoms: O_2  and  C_3
REMARK    3  A    between atoms: C_6  and  C_7
REMARK    4  A    between atoms: C_12  and  C_13
REMARK    5  A    between atoms: C_13  and  C_14
REMARK    6  A    between atoms: C_14  and  C_15
REMARK    7  A    between atoms: C_15  and  C_16
REMARK    8  A    between atoms: C_16  and  C_17
REMARK    9  A    between atoms: C_17  and  C_18
REMARK   10  A    between atoms: N_20  and  C_21
REMARK   11  A    between atoms: C_21  and  C_22
REMARK   12  A    between atoms: C_22  and  C_23
REMARK   13  A    between atoms: C_24  and  C_25
REMARK                            x       y       z     vdW  Elec       q    Type
REMARK                         _______ _______ _______ _____ _____    ______ ____
ROOT
ATOM      1  C   UNL     1      -2.082   9.983  17.036  0.00  0.00    +0.000 C 
ENDROOT
BRANCH   1   2
ATOM      2  C   UNL     1      -2.660  11.390  17.002  0.00  0.00    +0.000 C 
BRANCH   2   8
ATOM      3  C   UNL     1      -3.234  12.222  19.389  0.00  0.00    +0.000 A 
ATOM      4  N   UNL     1      -4.455  12.370  20.011  0.00  0.00    +0.000 N 
ATOM      5  C   UNL     1      -5.438  11.976  19.150  0.00  0.00    +0.000 A 
ATOM      6  N   UNL     1      -6.728  12.026  19.494  0.00  0.00    +0.000 N 
ATOM      7  N   UNL     1      -4.936  11.574  18.013  0.00  0.00    +0.000 NA
ATOM      8  C   UNL     1      -3.568  11.719  18.135  0.00  0.00    +0.000 A 
ATOM      9  H   UNL     1      -4.611  12.718  20.942  0.00  0.00    +0.000 HD
ATOM     10  H   UNL     1      -7.021  11.988  20.461  0.00  0.00    +0.000 HD
ATOM     11  H   UNL     1      -7.360  11.540  18.863  0.00  0.00    +0.000 HD
BRANCH   3  15
ATOM     12  C   UNL     1       0.494  13.316  21.204  0.00  0.00    +0.000 A 
ATOM     13  C   UNL     1       0.160  13.784  19.937  0.00  0.00    +0.000 A 
ATOM     14  C   UNL     1      -1.047  13.409  19.341  0.00  0.00    +0.000 A 
ATOM     15  C   UNL     1      -1.952  12.568  20.000  0.00  0.00    +0.000 A 
ATOM     16  C   UNL     1      -1.594  12.082  21.264  0.00  0.00    +0.000 A 
ATOM     17  C   UNL     1      -0.379  12.448  21.860  0.00  0.00    +0.000 A 
BRANCH  12  19
ATOM     18  C   UNL     1       2.772  13.703  20.734  0.00  0.00    +0.000 C 
ATOM     19  O   UNL     1       1.705  13.736  21.674  0.00  0.00    +0.000 OA
ENDBRANCH  12  19
ENDBRANCH   3  15
ENDBRANCH   2   8
ENDBRANCH   1   2
BRANCH   1  20
ATOM     20  C   UNL     1      -1.204   9.808  18.274  0.00  0.00    +0.000 C 
BRANCH  20  21
ATOM     21  C   UNL     1       0.262  10.108  17.997  0.00  0.00    +0.000 C 
BRANCH  21  22
ATOM     22  C   UNL     1       1.142  10.080  19.250  0.00  0.00    +0.000 C 
BRANCH  22  23
ATOM     23  C   UNL     1       1.477   8.676  19.582  0.00  0.00    +0.000 A 
ATOM     24  C   UNL     1       2.240   7.774  18.881  0.00  0.00    +0.000 A 
ATOM     25  N   UNL     1       2.396   6.740  19.754  0.00  0.00    +0.000 N 
ATOM     26  N   UNL     1       1.678   6.932  20.876  0.00  0.00    +0.000 NA
ATOM     27  N   UNL     1       1.120   8.132  20.787  0.00  0.00    +0.000 NA
BRANCH  25  28
ATOM     28  C   UNL     1       3.190   5.539  19.577  0.00  0.00    +0.000 C 
BRANCH  28  29
ATOM     29  C   UNL     1       3.160   4.905  18.191  0.00  0.00    +0.000 C 
ATOM     30  C   UNL     1       1.946   4.149  17.709  0.00  0.00    +0.000 C 
ATOM     31  C   UNL     1       4.212   4.989  17.357  0.00  0.00    +0.000 C 
BRANCH  31  32
ATOM     32  C   UNL     1       5.480   5.648  17.672  0.00  0.00    +0.000 A 
ATOM     33  C   UNL     1       6.409   5.008  18.502  0.00  0.00    +0.000 A 
ATOM     34  C   UNL     1       7.629   5.623  18.790  0.00  0.00    +0.000 A 
ATOM     35  C   UNL     1       7.922   6.875  18.251  0.00  0.00    +0.000 A 
ATOM     36  C   UNL     1       6.995   7.519  17.432  0.00  0.00    +0.000 A 
ATOM     37  C   UNL     1       5.773   6.907  17.144  0.00  0.00    +0.000 A 
ENDBRANCH  31  32
ENDBRANCH  28  29
ENDBRANCH  25  28
ENDBRANCH  22  23
ENDBRANCH  21  22
ENDBRANCH  20  21
ENDBRANCH   1  20
TORSDOF 11
ENDMDL
