MODEL 1
REMARK VINA RESULT:      -5.0      0.000      0.000
REMARK  Name = 
REMARK  10 active torsions:
REMARK  status: ('A' for Active; 'I' for Inactive)
REMARK    1  A    between atoms: C_1  and  C_2
REMARK    2  A    between atoms: C_2  and  O_3
REMARK    3  A    between atoms: O_3  and  C_4
REMARK    4  A    between atoms: C_4  and  C_6
REMARK    5  A    between atoms: C_6  and  C_7
REMARK    6  A    between atoms: C_7  and  O_8
REMARK    7  A    between atoms: C_7  and  C_9
REMARK    8  A    between atoms: C_9  and  O_11
REMARK    9  A    between atoms: O_11  and  C_12
REMARK   10  A    between atoms: C_12  and  C_13
REMARK                            x       y       z     vdW  Elec       q    Type
REMARK                         _______ _______ _______ _____ _____    ______ ____
ROOT
ATOM      1  C   UNL     1       3.522   2.629  17.840  0.00  0.00    +0.000 C 
ENDROOT
BRANCH   1   2
ATOM      2  O   UNL     1       4.251   1.871  18.804  0.00  0.00    +0.000 OA
ATOM      3  H   UNL     1       5.015   1.482  18.324  0.00  0.00    +0.000 HD
ENDBRANCH   1   2
BRANCH   1   4
ATOM      4  C   UNL     1       2.038   2.805  18.203  0.00  0.00    +0.000 C 
ATOM      5  O   UNL     1       1.250   3.526  17.605  0.00  0.00    +0.000 OA
BRANCH   4   6
ATOM      6  O   UNL     1       1.762   2.122  19.354  0.00  0.00    +0.000 OA
BRANCH   6   7
ATOM      7  C   UNL     1       1.219   2.914  20.422  0.00  0.00    +0.000 C 
ATOM      8  C   UNL     1       2.205   2.884  21.575  0.00  0.00    +0.000 C 
ENDBRANCH   6   7
ENDBRANCH   4   6
ENDBRANCH   1   4
BRANCH   1   9
ATOM      9  C   UNL     1       4.230   3.950  17.571  0.00  0.00    +0.000 C 
BRANCH   9  10
ATOM     10  C   UNL     1       4.754   4.520  18.860  0.00  0.00    +0.000 C 
ATOM     11  O   UNL     1       4.092   5.215  19.621  0.00  0.00    +0.000 OA
BRANCH  10  12
ATOM     12  O   UNL     1       6.060   4.192  19.021  0.00  0.00    +0.000 OA
BRANCH  12  14
ATOM     13  C   UNL     1       7.724   5.898  18.883  0.00  0.00    +0.000 C 
ATOM     14  C   UNL     1       6.959   4.838  18.111  0.00  0.00    +0.000 C 
ENDBRANCH  12  14
ENDBRANCH  10  12
ENDBRANCH   9  10
ENDBRANCH   1   9
TORSDOF 8
ENDMDL
MODEL 2
REMARK VINA RESULT:      -4.9      3.451      5.155
REMARK  Name = 
REMARK  10 active torsions:
REMARK  status: ('A' for Active; 'I' for Inactive)
REMARK    1  A    between atoms: C_1  and  C_2
REMARK    2  A    between atoms: C_2  and  O_3
REMARK    3  A    between atoms: O_3  and  C_4
REMARK    4  A    between atoms: C_4  and  C_6
REMARK    5  A    between atoms: C_6  and  C_7
REMARK    6  A    between atoms: C_7  and  O_8
REMARK    7  A    between atoms: C_7  and  C_9
REMARK    8  A    between atoms: C_9  and  O_11
REMARK    9  A    between atoms: O_11  and  C_12
REMARK   10  A    between atoms: C_12  and  C_13
REMARK                            x       y       z     vdW  Elec       q    Type
REMARK                         _______ _______ _______ _____ _____    ______ ____
ROOT
ATOM      1  C   UNL     1       6.546   4.452  17.074  0.00  0.00    +0.000 C 
ENDROOT
BRANCH   1   2
ATOM      2  O   UNL     1       7.940   4.172  16.950  0.00  0.00    +0.000 OA
ATOM      3  H   UNL     1       8.016   3.195  16.876  0.00  0.00    +0.000 HD
ENDBRANCH   1   2
BRANCH   1   4
ATOM      4  C   UNL     1       6.177   5.113  18.413  0.00  0.00    +0.000 C 
ATOM      5  O   UNL     1       6.729   4.889  19.482  0.00  0.00    +0.000 OA
BRANCH   4   6
ATOM      6  O   UNL     1       5.075   5.904  18.246  0.00  0.00    +0.000 OA
BRANCH   6   7
ATOM      7  C   UNL     1       3.951   5.571  19.076  0.00  0.00    +0.000 C 
ATOM      8  C   UNL     1       2.692   5.722  18.244  0.00  0.00    +0.000 C 
ENDBRANCH   6   7
ENDBRANCH   4   6
ENDBRANCH   1   4
BRANCH   1   9
ATOM      9  C   UNL     1       6.065   5.244  15.866  0.00  0.00    +0.000 C 
BRANCH   9  10
ATOM     10  C   UNL     1       6.871   4.868  14.654  0.00  0.00    +0.000 C 
ATOM     11  O   UNL     1       7.841   5.500  14.253  0.00  0.00    +0.000 OA
BRANCH  10  12
ATOM     12  O   UNL     1       6.340   3.770  14.059  0.00  0.00    +0.000 OA
BRANCH  12  14
ATOM     13  C   UNL     1       5.243   3.228  12.010  0.00  0.00    +0.000 C 
ATOM     14  C   UNL     1       6.541   3.698  12.642  0.00  0.00    +0.000 C 
ENDBRANCH  12  14
ENDBRANCH  10  12
ENDBRANCH   9  10
ENDBRANCH   1   9
TORSDOF 8
ENDMDL
MODEL 3
REMARK VINA RESULT:      -4.9      1.356      5.050
REMARK  Name = 
REMARK  10 active torsions:
REMARK  status: ('A' for Active; 'I' for Inactive)
REMARK    1  A    between atoms: C_1  and  C_2
REMARK    2  A    between atoms: C_2  and  O_3
REMARK    3  A    between atoms: O_3  and  C_4
REMARK    4  A    between atoms: C_4  and  C_6
REMARK    5  A    between atoms: C_6  and  C_7
REMARK    6  A    between atoms: C_7  and  O_8
REMARK    7  A    between atoms: C_7  and  C_9
REMARK    8  A    between atoms: C_9  and  O_11
REMARK    9  A    between atoms: O_11  and  C_12
REMARK   10  A    between atoms: C_12  and  C_13
REMARK                            x       y       z     vdW  Elec       q    Type
REMARK                         _______ _______ _______ _____ _____    ______ ____
ROOT
ATOM      1  C   UNL     1       4.589   3.828  19.101  0.00  0.00    +0.000 C 
ENDROOT
BRANCH   1   2
ATOM      2  O   UNL     1       4.962   2.557  19.633  0.00  0.00    +0.000 OA
ATOM      3  H   UNL     1       5.893   2.407  19.354  0.00  0.00    +0.000 HD
ENDBRANCH   1   2
BRANCH   1   4
ATOM      4  C   UNL     1       5.789   4.755  18.848  0.00  0.00    +0.000 C 
ATOM      5  O   UNL     1       6.539   5.186  19.714  0.00  0.00    +0.000 OA
BRANCH   4   6
ATOM      6  O   UNL     1       5.826   5.110  17.529  0.00  0.00    +0.000 OA
BRANCH   6   7
ATOM      7  C   UNL     1       7.036   4.766  16.834  0.00  0.00    +0.000 C 
ATOM      8  C   UNL     1       6.662   4.312  15.437  0.00  0.00    +0.000 C 
ENDBRANCH   6   7
ENDBRANCH   4   6
ENDBRANCH   1   4
BRANCH   1   9
ATOM      9  C   UNL     1       3.711   3.640  17.871  0.00  0.00    +0.000 C 
BRANCH   9  10
ATOM     10  C   UNL     1       2.272   3.884  18.229  0.00  0.00    +0.000 C 
ATOM     11  O   UNL     1       1.367   3.971  17.408  0.00  0.00    +0.000 OA
BRANCH  10  12
ATOM     12  O   UNL     1       2.142   4.035  19.571  0.00  0.00    +0.000 OA
BRANCH  12  14
ATOM     13  C   UNL     1       1.510   2.738  21.473  0.00  0.00    +0.000 C 
ATOM     14  C   UNL     1       1.042   3.324  20.152  0.00  0.00    +0.000 C 
ENDBRANCH  12  14
ENDBRANCH  10  12
ENDBRANCH   9  10
ENDBRANCH   1   9
TORSDOF 8
ENDMDL
MODEL 4
REMARK VINA RESULT:      -4.8      2.416      5.503
REMARK  Name = 
REMARK  10 active torsions:
REMARK  status: ('A' for Active; 'I' for Inactive)
REMARK    1  A    between atoms: C_1  and  C_2
REMARK    2  A    between atoms: C_2  and  O_3
REMARK    3  A    between atoms: O_3  and  C_4
REMARK    4  A    between atoms: C_4  and  C_6
REMARK    5  A    between atoms: C_6  and  C_7
REMARK    6  A    between atoms: C_7  and  O_8
REMARK    7  A    between atoms: C_7  and  C_9
REMARK    8  A    between atoms: C_9  and  O_11
REMARK    9  A    between atoms: O_11  and  C_12
REMARK   10  A    between atoms: C_12  and  C_13
REMARK                            x       y       z     vdW  Elec       q    Type
REMARK                         _______ _______ _______ _____ _____    ______ ____
ROOT
ATOM      1  C   UNL     1       5.348   4.341  17.557  0.00  0.00    +0.000 C 
ENDROOT
BRANCH   1   2
ATOM      2  O   UNL     1       5.827   3.660  18.715  0.00  0.00    +0.000 OA
ATOM      3  H   UNL     1       5.454   4.140  19.488  0.00  0.00    +0.000 HD
ENDBRANCH   1   2
BRANCH   1   4
ATOM      4  C   UNL     1       6.389   4.424  16.428  0.00  0.00    +0.000 C 
ATOM      5  O   UNL     1       7.584   4.632  16.589  0.00  0.00    +0.000 OA
BRANCH   4   6
ATOM      6  O   UNL     1       5.762   4.338  15.217  0.00  0.00    +0.000 OA
BRANCH   6   7
ATOM      7  C   UNL     1       6.632   4.169  14.086  0.00  0.00    +0.000 C 
ATOM      8  C   UNL     1       5.809   3.616  12.939  0.00  0.00    +0.000 C 
ENDBRANCH   6   7
ENDBRANCH   4   6
ENDBRANCH   1   4
BRANCH   1   9
ATOM      9  C   UNL     1       4.027   3.735  17.105  0.00  0.00    +0.000 C 
BRANCH   9  10
ATOM     10  C   UNL     1       3.548   2.737  18.122  0.00  0.00    +0.000 C 
ATOM     11  O   UNL     1       3.690   1.525  18.012  0.00  0.00    +0.000 OA
BRANCH  10  12
ATOM     12  O   UNL     1       2.907   3.371  19.136  0.00  0.00    +0.000 OA
BRANCH  12  14
ATOM     13  C   UNL     1       0.868   3.892  20.263  0.00  0.00    +0.000 C 
ATOM     14  C   UNL     1       1.506   3.585  18.919  0.00  0.00    +0.000 C 
ENDBRANCH  12  14
ENDBRANCH  10  12
ENDBRANCH   9  10
ENDBRANCH   1   9
TORSDOF 8
ENDMDL
MODEL 5
REMARK VINA RESULT:      -4.8      2.089      5.433
REMARK  Name = 
REMARK  10 active torsions:
REMARK  status: ('A' for Active; 'I' for Inactive)
REMARK    1  A    between atoms: C_1  and  C_2
REMARK    2  A    between atoms: C_2  and  O_3
REMARK    3  A    between atoms: O_3  and  C_4
REMARK    4  A    between atoms: C_4  and  C_6
REMARK    5  A    between atoms: C_6  and  C_7
REMARK    6  A    between atoms: C_7  and  O_8
REMARK    7  A    between atoms: C_7  and  C_9
REMARK    8  A    between atoms: C_9  and  O_11
REMARK    9  A    between atoms: O_11  and  C_12
REMARK   10  A    between atoms: C_12  and  C_13
REMARK                            x       y       z     vdW  Elec       q    Type
REMARK                         _______ _______ _______ _____ _____    ______ ____
ROOT
ATOM      1  C   UNL     1       5.805   4.686  18.032  0.00  0.00    +0.000 C 
ENDROOT
BRANCH   1   2
ATOM      2  O   UNL     1       5.684   3.451  18.736  0.00  0.00    +0.000 OA
ATOM      3  H   UNL     1       6.152   2.779  18.191  0.00  0.00    +0.000 HD
ENDBRANCH   1   2
BRANCH   1   4
ATOM      4  C   UNL     1       6.961   4.695  17.017  0.00  0.00    +0.000 C 
ATOM      5  O   UNL     1       8.087   4.266  17.233  0.00  0.00    +0.000 OA
BRANCH   4   6
ATOM      6  O   UNL     1       6.572   5.350  15.883  0.00  0.00    +0.000 OA
BRANCH   6   7
ATOM      7  C   UNL     1       7.038   4.774  14.652  0.00  0.00    +0.000 C 
ATOM      8  C   UNL     1       5.878   4.036  14.011  0.00  0.00    +0.000 C 
ENDBRANCH   6   7
ENDBRANCH   4   6
ENDBRANCH   1   4
BRANCH   1   9
ATOM      9  C   UNL     1       4.467   5.067  17.413  0.00  0.00    +0.000 C 
BRANCH   9  10
ATOM     10  C   UNL     1       3.347   4.678  18.338  0.00  0.00    +0.000 C 
ATOM     11  O   UNL     1       3.329   4.931  19.536  0.00  0.00    +0.000 OA
BRANCH  10  12
ATOM     12  O   UNL     1       2.403   3.977  17.661  0.00  0.00    +0.000 OA
BRANCH  12  14
ATOM     13  C   UNL     1       0.913   2.468  18.758  0.00  0.00    +0.000 C 
ATOM     14  C   UNL     1       2.260   2.611  18.071  0.00  0.00    +0.000 C 
ENDBRANCH  12  14
ENDBRANCH  10  12
ENDBRANCH   9  10
ENDBRANCH   1   9
TORSDOF 8
ENDMDL
MODEL 6
REMARK VINA RESULT:      -4.7      2.469      5.555
REMARK  Name = 
REMARK  10 active torsions:
REMARK  status: ('A' for Active; 'I' for Inactive)
REMARK    1  A    between atoms: C_1  and  C_2
REMARK    2  A    between atoms: C_2  and  O_3
REMARK    3  A    between atoms: O_3  and  C_4
REMARK    4  A    between atoms: C_4  and  C_6
REMARK    5  A    between atoms: C_6  and  C_7
REMARK    6  A    between atoms: C_7  and  O_8
REMARK    7  A    between atoms: C_7  and  C_9
REMARK    8  A    between atoms: C_9  and  O_11
REMARK    9  A    between atoms: O_11  and  C_12
REMARK   10  A    between atoms: C_12  and  C_13
REMARK                            x       y       z     vdW  Elec       q    Type
REMARK                         _______ _______ _______ _____ _____    ______ ____
ROOT
ATOM      1  C   UNL     1       6.362   5.092  17.623  0.00  0.00    +0.000 C 
ENDROOT
BRANCH   1   2
ATOM      2  O   UNL     1       7.309   4.098  18.011  0.00  0.00    +0.000 OA
ATOM      3  H   UNL     1       7.802   4.474  18.774  0.00  0.00    +0.000 HD
ENDBRANCH   1   2
BRANCH   1   4
ATOM      4  C   UNL     1       6.867   6.004  16.493  0.00  0.00    +0.000 C 
ATOM      5  O   UNL     1       7.647   6.936  16.639  0.00  0.00    +0.000 OA
BRANCH   4   6
ATOM      6  O   UNL     1       6.232   5.685  15.326  0.00  0.00    +0.000 OA
BRANCH   6   7
ATOM      7  C   UNL     1       7.021   4.944  14.381  0.00  0.00    +0.000 C 
ATOM      8  C   UNL     1       6.119   3.922  13.716  0.00  0.00    +0.000 C 
ENDBRANCH   6   7
ENDBRANCH   4   6
ENDBRANCH   1   4
BRANCH   1   9
ATOM      9  C   UNL     1       5.022   4.441  17.309  0.00  0.00    +0.000 C 
BRANCH   9  10
ATOM     10  C   UNL     1       4.605   3.554  18.449  0.00  0.00    +0.000 C 
ATOM     11  O   UNL     1       5.132   3.565  19.555  0.00  0.00    +0.000 OA
BRANCH  10  12
ATOM     12  O   UNL     1       3.605   2.725  18.056  0.00  0.00    +0.000 OA
BRANCH  12  14
ATOM     13  C   UNL     1       1.486   3.814  18.204  0.00  0.00    +0.000 C 
ATOM     14  C   UNL     1       2.585   3.347  17.265  0.00  0.00    +0.000 C 
ENDBRANCH  12  14
ENDBRANCH  10  12
ENDBRANCH   9  10
ENDBRANCH   1   9
TORSDOF 8
ENDMDL
MODEL 7
REMARK VINA RESULT:      -4.7      3.453      5.889
REMARK  Name = 
REMARK  10 active torsions:
REMARK  status: ('A' for Active; 'I' for Inactive)
REMARK    1  A    between atoms: C_1  and  C_2
REMARK    2  A    between atoms: C_2  and  O_3
REMARK    3  A    between atoms: O_3  and  C_4
REMARK    4  A    between atoms: C_4  and  C_6
REMARK    5  A    between atoms: C_6  and  C_7
REMARK    6  A    between atoms: C_7  and  O_8
REMARK    7  A    between atoms: C_7  and  C_9
REMARK    8  A    between atoms: C_9  and  O_11
REMARK    9  A    between atoms: O_11  and  C_12
REMARK   10  A    between atoms: C_12  and  C_13
REMARK                            x       y       z     vdW  Elec       q    Type
REMARK                         _______ _______ _______ _____ _____    ______ ____
ROOT
ATOM      1  C   UNL     1       6.794   4.685  16.153  0.00  0.00    +0.000 C 
ENDROOT
BRANCH   1   2
ATOM      2  O   UNL     1       7.870   4.129  16.906  0.00  0.00    +0.000 OA
ATOM      3  H   UNL     1       7.520   3.979  17.812  0.00  0.00    +0.000 HD
ENDBRANCH   1   2
BRANCH   1   4
ATOM      4  C   UNL     1       7.060   4.703  14.638  0.00  0.00    +0.000 C 
ATOM      5  O   UNL     1       7.852   5.446  14.074  0.00  0.00    +0.000 OA
BRANCH   4   6
ATOM      6  O   UNL     1       6.202   3.845  14.010  0.00  0.00    +0.000 OA
BRANCH   6   7
ATOM      7  C   UNL     1       6.418   3.684  12.599  0.00  0.00    +0.000 C 
ATOM      8  C   UNL     1       5.110   3.245  11.971  0.00  0.00    +0.000 C 
ENDBRANCH   6   7
ENDBRANCH   4   6
ENDBRANCH   1   4
BRANCH   1   9
ATOM      9  C   UNL     1       5.488   3.994  16.520  0.00  0.00    +0.000 C 
BRANCH   9  10
ATOM     10  C   UNL     1       4.883   4.653  17.729  0.00  0.00    +0.000 C 
ATOM     11  O   UNL     1       5.131   5.800  18.080  0.00  0.00    +0.000 OA
BRANCH  10  12
ATOM     12  O   UNL     1       4.074   3.782  18.382  0.00  0.00    +0.000 OA
BRANCH  12  14
ATOM     13  C   UNL     1       1.852   4.353  17.721  0.00  0.00    +0.000 C 
ATOM     14  C   UNL     1       2.955   3.314  17.618  0.00  0.00    +0.000 C 
ENDBRANCH  12  14
ENDBRANCH  10  12
ENDBRANCH   9  10
ENDBRANCH   1   9
TORSDOF 8
ENDMDL
MODEL 8
REMARK VINA RESULT:      -4.7      2.323      3.773
REMARK  Name = 
REMARK  10 active torsions:
REMARK  status: ('A' for Active; 'I' for Inactive)
REMARK    1  A    between atoms: C_1  and  C_2
REMARK    2  A    between atoms: C_2  and  O_3
REMARK    3  A    between atoms: O_3  and  C_4
REMARK    4  A    between atoms: C_4  and  C_6
REMARK    5  A    between atoms: C_6  and  C_7
REMARK    6  A    between atoms: C_7  and  O_8
REMARK    7  A    between atoms: C_7  and  C_9
REMARK    8  A    between atoms: C_9  and  O_11
REMARK    9  A    between atoms: O_11  and  C_12
REMARK   10  A    between atoms: C_12  and  C_13
REMARK                            x       y       z     vdW  Elec       q    Type
REMARK                         _______ _______ _______ _____ _____    ______ ____
ROOT
ATOM      1  C   UNL     1       5.658   4.741  18.634  0.00  0.00    +0.000 C 
ENDROOT
BRANCH   1   2
ATOM      2  O   UNL     1       6.456   5.044  19.777  0.00  0.00    +0.000 OA
ATOM      3  H   UNL     1       5.988   4.654  20.548  0.00  0.00    +0.000 HD
ENDBRANCH   1   2
BRANCH   1   4
ATOM      4  C   UNL     1       4.165   5.048  18.837  0.00  0.00    +0.000 C 
ATOM      5  O   UNL     1       3.641   5.300  19.914  0.00  0.00    +0.000 OA
BRANCH   4   6
ATOM      6  O   UNL     1       3.498   4.892  17.655  0.00  0.00    +0.000 OA
BRANCH   6   7
ATOM      7  C   UNL     1       2.232   4.218  17.750  0.00  0.00    +0.000 C 
ATOM      8  C   UNL     1       2.479   2.731  17.584  0.00  0.00    +0.000 C 
ENDBRANCH   6   7
ENDBRANCH   4   6
ENDBRANCH   1   4
BRANCH   1   9
ATOM      9  C   UNL     1       6.241   5.412  17.398  0.00  0.00    +0.000 C 
BRANCH   9  10
ATOM     10  C   UNL     1       7.468   4.671  16.945  0.00  0.00    +0.000 C 
ATOM     11  O   UNL     1       8.260   4.126  17.705  0.00  0.00    +0.000 OA
BRANCH  10  12
ATOM     12  O   UNL     1       7.586   4.739  15.595  0.00  0.00    +0.000 OA
BRANCH  12  14
ATOM     13  C   UNL     1       6.131   3.878  13.910  0.00  0.00    +0.000 C 
ATOM     14  C   UNL     1       6.362   5.007  14.899  0.00  0.00    +0.000 C 
ENDBRANCH  12  14
ENDBRANCH  10  12
ENDBRANCH   9  10
ENDBRANCH   1   9
TORSDOF 8
ENDMDL
MODEL 9
REMARK VINA RESULT:      -4.7      1.493      1.721
REMARK  Name = 
REMARK  10 active torsions:
REMARK  status: ('A' for Active; 'I' for Inactive)
REMARK    1  A    between atoms: C_1  and  C_2
REMARK    2  A    between atoms: C_2  and  O_3
REMARK    3  A    between atoms: O_3  and  C_4
REMARK    4  A    between atoms: C_4  and  C_6
REMARK    5  A    between atoms: C_6  and  C_7
REMARK    6  A    between atoms: C_7  and  O_8
REMARK    7  A    between atoms: C_7  and  C_9
REMARK    8  A    between atoms: C_9  and  O_11
REMARK    9  A    between atoms: O_11  and  C_12
REMARK   10  A    between atoms: C_12  and  C_13
REMARK                            x       y       z     vdW  Elec       q    Type
REMARK                         _______ _______ _______ _____ _____    ______ ____
ROOT
ATOM      1  C   UNL     1       3.421   4.880  17.663  0.00  0.00    +0.000 C 
ENDROOT
BRANCH   1   2
ATOM      2  O   UNL     1       4.148   3.843  17.005  0.00  0.00    +0.000 OA
ATOM      3  H   UNL     1       4.076   4.028  16.042  0.00  0.00    +0.000 HD
ENDBRANCH   1   2
BRANCH   1   4
ATOM      4  C   UNL     1       2.007   4.453  18.090  0.00  0.00    +0.000 C 
ATOM      5  O   UNL     1       1.162   3.978  17.343  0.00  0.00    +0.000 OA
BRANCH   4   6
ATOM      6  O   UNL     1       1.803   4.784  19.400  0.00  0.00    +0.000 OA
BRANCH   6   7
ATOM      7  C   UNL     1       0.951   3.889  20.133  0.00  0.00    +0.000 C 
ATOM      8  C   UNL     1       1.767   3.278  21.255  0.00  0.00    +0.000 C 
ENDBRANCH   6   7
ENDBRANCH   4   6
ENDBRANCH   1   4
BRANCH   1   9
ATOM      9  C   UNL     1       4.245   5.445  18.811  0.00  0.00    +0.000 C 
BRANCH   9  10
ATOM     10  C   UNL     1       5.249   4.425  19.272  0.00  0.00    +0.000 C 
ATOM     11  O   UNL     1       4.977   3.254  19.507  0.00  0.00    +0.000 OA
BRANCH  10  12
ATOM     12  O   UNL     1       6.466   5.003  19.428  0.00  0.00    +0.000 OA
BRANCH  12  14
ATOM     13  C   UNL     1       7.571   4.589  17.352  0.00  0.00    +0.000 C 
ATOM     14  C   UNL     1       6.976   5.654  18.258  0.00  0.00    +0.000 C 
ENDBRANCH  12  14
ENDBRANCH  10  12
ENDBRANCH   9  10
ENDBRANCH   1   9
TORSDOF 8
ENDMDL
