MODEL 1
REMARK VINA RESULT:      -7.6      0.000      0.000
REMARK  Name = 
REMARK  2 active torsions:
REMARK  status: ('A' for Active; 'I' for Inactive)
REMARK    1  A    between atoms: N_1  and  C_2
REMARK    2  A    between atoms: C_10  and  C_11
REMARK                            x       y       z     vdW  Elec       q    Type
REMARK                         _______ _______ _______ _____ _____    ______ ____
ROOT
ATOM      1  C   UNL     1       3.698   2.828  18.629  0.00  0.00    +0.000 A 
ATOM      2  C   UNL     1       2.938   3.117  19.774  0.00  0.00    +0.000 A 
ATOM      3  C   UNL     1       2.593   4.427  20.091  0.00  0.00    +0.000 A 
ATOM      4  C   UNL     1       3.019   5.479  19.287  0.00  0.00    +0.000 A 
ATOM      5  C   UNL     1       3.784   5.228  18.133  0.00  0.00    +0.000 A 
ATOM      6  C   UNL     1       4.227   6.289  17.321  0.00  0.00    +0.000 A 
ATOM      7  O   UNL     1       3.961   7.444  17.609  0.00  0.00    +0.000 OA
ATOM      8  N   UNL     1       4.943   6.030  16.180  0.00  0.00    +0.000 N 
ATOM      9  C   UNL     1       5.235   4.758  15.778  0.00  0.00    +0.000 A 
ATOM     10  C   UNL     1       4.830   3.677  16.585  0.00  0.00    +0.000 A 
ATOM     11  C   UNL     1       4.112   3.894  17.780  0.00  0.00    +0.000 A 
ATOM     12  H   UNL     1       5.223   6.847  15.594  0.00  0.00    +0.000 HD
ENDROOT
BRANCH   9  13
ATOM     13  C   UNL     1       5.939   4.523  14.476  0.00  0.00    +0.000 A 
ATOM     14  C   UNL     1       7.155   5.174  14.178  0.00  0.00    +0.000 A 
ATOM     15  C   UNL     1       7.790   4.971  12.948  0.00  0.00    +0.000 A 
ATOM     16  C   UNL     1       7.218   4.133  11.991  0.00  0.00    +0.000 A 
ATOM     17  C   UNL     1       6.014   3.484  12.266  0.00  0.00    +0.000 A 
ATOM     18  C   UNL     1       5.382   3.669  13.498  0.00  0.00    +0.000 A 
ENDBRANCH   9  13
BRANCH   1  19
ATOM     19  N   UNL     1       4.032   1.465  18.385  0.00  0.00    +0.000 N 
ATOM     20  H   UNL     1       3.286   0.760  18.282  0.00  0.00    +0.000 HD
ATOM     21  H   UNL     1       4.996   1.113  18.370  0.00  0.00    +0.000 HD
ENDBRANCH   1  19
TORSDOF 2
ENDMDL
MODEL 2
REMARK VINA RESULT:      -7.6      0.078      1.143
REMARK  Name = 
REMARK  2 active torsions:
REMARK  status: ('A' for Active; 'I' for Inactive)
REMARK    1  A    between atoms: N_1  and  C_2
REMARK    2  A    between atoms: C_10  and  C_11
REMARK                            x       y       z     vdW  Elec       q    Type
REMARK                         _______ _______ _______ _____ _____    ______ ____
ROOT
ATOM      1  C   UNL     1       3.748   2.810  18.687  0.00  0.00    +0.000 A 
ATOM      2  C   UNL     1       3.014   3.088  19.852  0.00  0.00    +0.000 A 
ATOM      3  C   UNL     1       2.662   4.392  20.182  0.00  0.00    +0.000 A 
ATOM      4  C   UNL     1       3.056   5.452  19.372  0.00  0.00    +0.000 A 
ATOM      5  C   UNL     1       3.794   5.213  18.198  0.00  0.00    +0.000 A 
ATOM      6  C   UNL     1       4.205   6.281  17.378  0.00  0.00    +0.000 A 
ATOM      7  O   UNL     1       3.934   7.433  17.677  0.00  0.00    +0.000 OA
ATOM      8  N   UNL     1       4.894   6.035  16.219  0.00  0.00    +0.000 N 
ATOM      9  C   UNL     1       5.191   4.767  15.806  0.00  0.00    +0.000 A 
ATOM     10  C   UNL     1       4.819   3.679  16.618  0.00  0.00    +0.000 A 
ATOM     11  C   UNL     1       4.128   3.885  17.831  0.00  0.00    +0.000 A 
ATOM     12  H   UNL     1       5.151   6.857  15.629  0.00  0.00    +0.000 HD
ENDROOT
BRANCH   9  13
ATOM     13  C   UNL     1       5.865   4.544  14.486  0.00  0.00    +0.000 A 
ATOM     14  C   UNL     1       5.299   3.692  13.514  0.00  0.00    +0.000 A 
ATOM     15  C   UNL     1       5.949   3.467  12.296  0.00  0.00    +0.000 A 
ATOM     16  C   UNL     1       7.180   4.069  12.034  0.00  0.00    +0.000 A 
ATOM     17  C   UNL     1       7.758   4.911  12.985  0.00  0.00    +0.000 A 
ATOM     18  C   UNL     1       7.106   5.154  14.197  0.00  0.00    +0.000 A 
ENDBRANCH   9  13
BRANCH   1  19
ATOM     19  N   UNL     1       4.091   1.452  18.430  0.00  0.00    +0.000 N 
ATOM     20  H   UNL     1       3.432   0.839  17.926  0.00  0.00    +0.000 HD
ATOM     21  H   UNL     1       4.948   1.009  18.781  0.00  0.00    +0.000 HD
ENDBRANCH   1  19
TORSDOF 2
ENDMDL
MODEL 3
REMARK VINA RESULT:      -7.4      2.860      6.532
REMARK  Name = 
REMARK  2 active torsions:
REMARK  status: ('A' for Active; 'I' for Inactive)
REMARK    1  A    between atoms: N_1  and  C_2
REMARK    2  A    between atoms: C_10  and  C_11
REMARK                            x       y       z     vdW  Elec       q    Type
REMARK                         _______ _______ _______ _____ _____    ______ ____
ROOT
ATOM      1  C   UNL     1       6.341   6.121  16.619  0.00  0.00    +0.000 A 
ATOM      2  C   UNL     1       6.978   5.070  15.940  0.00  0.00    +0.000 A 
ATOM      3  C   UNL     1       6.328   3.859  15.726  0.00  0.00    +0.000 A 
ATOM      4  C   UNL     1       5.039   3.659  16.208  0.00  0.00    +0.000 A 
ATOM      5  C   UNL     1       4.370   4.688  16.896  0.00  0.00    +0.000 A 
ATOM      6  C   UNL     1       3.068   4.490  17.395  0.00  0.00    +0.000 A 
ATOM      7  O   UNL     1       2.503   3.419  17.246  0.00  0.00    +0.000 OA
ATOM      8  N   UNL     1       2.412   5.511  18.034  0.00  0.00    +0.000 N 
ATOM      9  C   UNL     1       2.973   6.746  18.195  0.00  0.00    +0.000 A 
ATOM     10  C   UNL     1       4.284   6.967  17.732  0.00  0.00    +0.000 A 
ATOM     11  C   UNL     1       5.007   5.940  17.088  0.00  0.00    +0.000 A 
ATOM     12  H   UNL     1       1.439   5.325  18.360  0.00  0.00    +0.000 HD
ENDROOT
BRANCH   9  13
ATOM     13  C   UNL     1       2.182   7.856  18.817  0.00  0.00    +0.000 A 
ATOM     14  C   UNL     1       1.794   7.803  20.173  0.00  0.00    +0.000 A 
ATOM     15  C   UNL     1       1.031   8.830  20.738  0.00  0.00    +0.000 A 
ATOM     16  C   UNL     1       0.625   9.915  19.961  0.00  0.00    +0.000 A 
ATOM     17  C   UNL     1       0.994   9.983  18.616  0.00  0.00    +0.000 A 
ATOM     18  C   UNL     1       1.771   8.969  18.050  0.00  0.00    +0.000 A 
ENDBRANCH   9  13
BRANCH   1  19
ATOM     19  N   UNL     1       7.080   7.322  16.820  0.00  0.00    +0.000 N 
ATOM     20  H   UNL     1       6.587   8.205  17.022  0.00  0.00    +0.000 HD
ATOM     21  H   UNL     1       8.099   7.385  16.708  0.00  0.00    +0.000 HD
ENDBRANCH   1  19
TORSDOF 2
ENDMDL
MODEL 4
REMARK VINA RESULT:      -7.4      2.867      6.541
REMARK  Name = 
REMARK  2 active torsions:
REMARK  status: ('A' for Active; 'I' for Inactive)
REMARK    1  A    between atoms: N_1  and  C_2
REMARK    2  A    between atoms: C_10  and  C_11
REMARK                            x       y       z     vdW  Elec       q    Type
REMARK                         _______ _______ _______ _____ _____    ______ ____
ROOT
ATOM      1  C   UNL     1       6.370   6.208  16.635  0.00  0.00    +0.000 A 
ATOM      2  C   UNL     1       7.037   5.169  15.965  0.00  0.00    +0.000 A 
ATOM      3  C   UNL     1       6.418   3.942  15.753  0.00  0.00    +0.000 A 
ATOM      4  C   UNL     1       5.130   3.714  16.227  0.00  0.00    +0.000 A 
ATOM      5  C   UNL     1       4.432   4.730  16.905  0.00  0.00    +0.000 A 
ATOM      6  C   UNL     1       3.132   4.503  17.396  0.00  0.00    +0.000 A 
ATOM      7  O   UNL     1       2.593   3.419  17.248  0.00  0.00    +0.000 OA
ATOM      8  N   UNL     1       2.448   5.511  18.025  0.00  0.00    +0.000 N 
ATOM      9  C   UNL     1       2.977   6.760  18.184  0.00  0.00    +0.000 A 
ATOM     10  C   UNL     1       4.286   7.010  17.729  0.00  0.00    +0.000 A 
ATOM     11  C   UNL     1       5.038   5.998  17.096  0.00  0.00    +0.000 A 
ATOM     12  H   UNL     1       1.476   5.304  18.345  0.00  0.00    +0.000 HD
ENDROOT
BRANCH   9  13
ATOM     13  C   UNL     1       2.156   7.854  18.796  0.00  0.00    +0.000 A 
ATOM     14  C   UNL     1       1.725   8.957  18.028  0.00  0.00    +0.000 A 
ATOM     15  C   UNL     1       0.983   9.988  18.614  0.00  0.00    +0.000 A 
ATOM     16  C   UNL     1       0.675   9.948  19.974  0.00  0.00    +0.000 A 
ATOM     17  C   UNL     1       1.096   8.868  20.750  0.00  0.00    +0.000 A 
ATOM     18  C   UNL     1       1.823   7.826  20.168  0.00  0.00    +0.000 A 
ENDBRANCH   9  13
BRANCH   1  19
ATOM     19  N   UNL     1       7.079   7.427  16.835  0.00  0.00    +0.000 N 
ATOM     20  H   UNL     1       8.099   7.463  16.686  0.00  0.00    +0.000 HD
ATOM     21  H   UNL     1       6.641   8.284  17.193  0.00  0.00    +0.000 HD
ENDBRANCH   1  19
TORSDOF 2
ENDMDL
MODEL 5
REMARK VINA RESULT:      -7.3      2.041      3.055
REMARK  Name = 
REMARK  2 active torsions:
REMARK  status: ('A' for Active; 'I' for Inactive)
REMARK    1  A    between atoms: N_1  and  C_2
REMARK    2  A    between atoms: C_10  and  C_11
REMARK                            x       y       z     vdW  Elec       q    Type
REMARK                         _______ _______ _______ _____ _____    ______ ____
ROOT
ATOM      1  C   UNL     1       2.443   5.565  19.569  0.00  0.00    +0.000 A 
ATOM      2  C   UNL     1       1.661   5.183  20.671  0.00  0.00    +0.000 A 
ATOM      3  C   UNL     1       1.541   3.846  21.035  0.00  0.00    +0.000 A 
ATOM      4  C   UNL     1       2.178   2.857  20.292  0.00  0.00    +0.000 A 
ATOM      5  C   UNL     1       2.968   3.201  19.179  0.00  0.00    +0.000 A 
ATOM      6  C   UNL     1       3.607   2.206  18.417  0.00  0.00    +0.000 A 
ATOM      7  O   UNL     1       3.480   1.027  18.704  0.00  0.00    +0.000 OA
ATOM      8  N   UNL     1       4.402   2.555  17.355  0.00  0.00    +0.000 N 
ATOM      9  C   UNL     1       4.621   3.858  17.008  0.00  0.00    +0.000 A 
ATOM     10  C   UNL     1       3.972   4.875  17.734  0.00  0.00    +0.000 A 
ATOM     11  C   UNL     1       3.127   4.564  18.820  0.00  0.00    +0.000 A 
ATOM     12  H   UNL     1       4.879   1.783  16.839  0.00  0.00    +0.000 HD
ENDROOT
BRANCH   9  13
ATOM     13  C   UNL     1       5.570   4.192  15.899  0.00  0.00    +0.000 A 
ATOM     14  C   UNL     1       6.687   5.025  16.122  0.00  0.00    +0.000 A 
ATOM     15  C   UNL     1       7.553   5.355  15.074  0.00  0.00    +0.000 A 
ATOM     16  C   UNL     1       7.310   4.880  13.785  0.00  0.00    +0.000 A 
ATOM     17  C   UNL     1       6.208   4.059  13.543  0.00  0.00    +0.000 A 
ATOM     18  C   UNL     1       5.349   3.711  14.589  0.00  0.00    +0.000 A 
ENDBRANCH   9  13
BRANCH   1  19
ATOM     19  N   UNL     1       2.496   6.951  19.245  0.00  0.00    +0.000 N 
ATOM     20  H   UNL     1       3.190   7.297  18.566  0.00  0.00    +0.000 HD
ATOM     21  H   UNL     1       1.916   7.662  19.706  0.00  0.00    +0.000 HD
ENDBRANCH   1  19
TORSDOF 2
ENDMDL
MODEL 6
REMARK VINA RESULT:      -7.2      2.036      3.230
REMARK  Name = 
REMARK  2 active torsions:
REMARK  status: ('A' for Active; 'I' for Inactive)
REMARK    1  A    between atoms: N_1  and  C_2
REMARK    2  A    between atoms: C_10  and  C_11
REMARK                            x       y       z     vdW  Elec       q    Type
REMARK                         _______ _______ _______ _____ _____    ______ ____
ROOT
ATOM      1  C   UNL     1       2.475   5.558  19.597  0.00  0.00    +0.000 A 
ATOM      2  C   UNL     1       1.720   5.168  20.715  0.00  0.00    +0.000 A 
ATOM      3  C   UNL     1       1.612   3.829  21.074  0.00  0.00    +0.000 A 
ATOM      4  C   UNL     1       2.233   2.846  20.310  0.00  0.00    +0.000 A 
ATOM      5  C   UNL     1       2.996   3.198  19.182  0.00  0.00    +0.000 A 
ATOM      6  C   UNL     1       3.619   2.208  18.399  0.00  0.00    +0.000 A 
ATOM      7  O   UNL     1       3.501   1.027  18.682  0.00  0.00    +0.000 OA
ATOM      8  N   UNL     1       4.389   2.565  17.321  0.00  0.00    +0.000 N 
ATOM      9  C   UNL     1       4.596   3.870  16.977  0.00  0.00    +0.000 A 
ATOM     10  C   UNL     1       3.963   4.882  17.723  0.00  0.00    +0.000 A 
ATOM     11  C   UNL     1       3.144   4.563  18.827  0.00  0.00    +0.000 A 
ATOM     12  H   UNL     1       4.855   1.797  16.789  0.00  0.00    +0.000 HD
ENDROOT
BRANCH   9  13
ATOM     13  C   UNL     1       5.520   4.213  15.847  0.00  0.00    +0.000 A 
ATOM     14  C   UNL     1       5.296   3.713  14.547  0.00  0.00    +0.000 A 
ATOM     15  C   UNL     1       6.179   4.015  13.504  0.00  0.00    +0.000 A 
ATOM     16  C   UNL     1       7.307   4.800  13.743  0.00  0.00    +0.000 A 
ATOM     17  C   UNL     1       7.547   5.300  15.024  0.00  0.00    +0.000 A 
ATOM     18  C   UNL     1       6.660   5.017  16.066  0.00  0.00    +0.000 A 
ENDBRANCH   9  13
BRANCH   1  19
ATOM     19  N   UNL     1       2.518   6.946  19.280  0.00  0.00    +0.000 N 
ATOM     20  H   UNL     1       2.758   7.636  20.008  0.00  0.00    +0.000 HD
ATOM     21  H   UNL     1       2.254   7.326  18.363  0.00  0.00    +0.000 HD
ENDBRANCH   1  19
TORSDOF 2
ENDMDL
MODEL 7
REMARK VINA RESULT:      -7.2      1.151      1.431
REMARK  Name = 
REMARK  2 active torsions:
REMARK  status: ('A' for Active; 'I' for Inactive)
REMARK    1  A    between atoms: N_1  and  C_2
REMARK    2  A    between atoms: C_10  and  C_11
REMARK                            x       y       z     vdW  Elec       q    Type
REMARK                         _______ _______ _______ _____ _____    ______ ____
ROOT
ATOM      1  C   UNL     1       2.378   2.512  19.022  0.00  0.00    +0.000 A 
ATOM      2  C   UNL     1       1.415   2.678  20.031  0.00  0.00    +0.000 A 
ATOM      3  C   UNL     1       1.037   3.948  20.456  0.00  0.00    +0.000 A 
ATOM      4  C   UNL     1       1.629   5.078  19.903  0.00  0.00    +0.000 A 
ATOM      5  C   UNL     1       2.599   4.951  18.892  0.00  0.00    +0.000 A 
ATOM      6  C   UNL     1       3.210   6.091  18.335  0.00  0.00    +0.000 A 
ATOM      7  O   UNL     1       2.913   7.208  18.726  0.00  0.00    +0.000 OA
ATOM      8  N   UNL     1       4.129   5.956  17.326  0.00  0.00    +0.000 N 
ATOM      9  C   UNL     1       4.473   4.738  16.814  0.00  0.00    +0.000 A 
ATOM     10  C   UNL     1       3.900   3.577  17.370  0.00  0.00    +0.000 A 
ATOM     11  C   UNL     1       2.967   3.664  18.424  0.00  0.00    +0.000 A 
ATOM     12  H   UNL     1       4.532   6.831  16.925  0.00  0.00    +0.000 HD
ENDROOT
BRANCH   9  13
ATOM     13  C   UNL     1       5.413   4.648  15.650  0.00  0.00    +0.000 A 
ATOM     14  C   UNL     1       6.664   5.300  15.673  0.00  0.00    +0.000 A 
ATOM     15  C   UNL     1       7.523   5.235  14.570  0.00  0.00    +0.000 A 
ATOM     16  C   UNL     1       7.143   4.539  13.423  0.00  0.00    +0.000 A 
ATOM     17  C   UNL     1       5.906   3.893  13.380  0.00  0.00    +0.000 A 
ATOM     18  C   UNL     1       5.051   3.939  14.483  0.00  0.00    +0.000 A 
ENDBRANCH   9  13
BRANCH   1  19
ATOM     19  N   UNL     1       2.730   1.181  18.658  0.00  0.00    +0.000 N 
ATOM     20  H   UNL     1       2.303   0.741  17.828  0.00  0.00    +0.000 HD
ATOM     21  H   UNL     1       3.350   0.585  19.220  0.00  0.00    +0.000 HD
ENDBRANCH   1  19
TORSDOF 2
ENDMDL
MODEL 8
REMARK VINA RESULT:      -7.2      1.166      1.876
REMARK  Name = 
REMARK  2 active torsions:
REMARK  status: ('A' for Active; 'I' for Inactive)
REMARK    1  A    between atoms: N_1  and  C_2
REMARK    2  A    between atoms: C_10  and  C_11
REMARK                            x       y       z     vdW  Elec       q    Type
REMARK                         _______ _______ _______ _____ _____    ______ ____
ROOT
ATOM      1  C   UNL     1       2.437   2.481  19.091  0.00  0.00    +0.000 A 
ATOM      2  C   UNL     1       1.469   2.607  20.100  0.00  0.00    +0.000 A 
ATOM      3  C   UNL     1       1.039   3.860  20.527  0.00  0.00    +0.000 A 
ATOM      4  C   UNL     1       1.584   5.014  19.974  0.00  0.00    +0.000 A 
ATOM      5  C   UNL     1       2.558   4.927  18.963  0.00  0.00    +0.000 A 
ATOM      6  C   UNL     1       3.122   6.091  18.406  0.00  0.00    +0.000 A 
ATOM      7  O   UNL     1       2.780   7.194  18.798  0.00  0.00    +0.000 OA
ATOM      8  N   UNL     1       4.046   5.995  17.397  0.00  0.00    +0.000 N 
ATOM      9  C   UNL     1       4.439   4.792  16.884  0.00  0.00    +0.000 A 
ATOM     10  C   UNL     1       3.914   3.608  17.439  0.00  0.00    +0.000 A 
ATOM     11  C   UNL     1       2.979   3.656  18.494  0.00  0.00    +0.000 A 
ATOM     12  H   UNL     1       4.412   6.886  16.996  0.00  0.00    +0.000 HD
ENDROOT
BRANCH   9  13
ATOM     13  C   UNL     1       5.381   4.741  15.720  0.00  0.00    +0.000 A 
ATOM     14  C   UNL     1       5.061   4.012  14.555  0.00  0.00    +0.000 A 
ATOM     15  C   UNL     1       5.959   3.947  13.484  0.00  0.00    +0.000 A 
ATOM     16  C   UNL     1       7.195   4.589  13.563  0.00  0.00    +0.000 A 
ATOM     17  C   UNL     1       7.531   5.311  14.709  0.00  0.00    +0.000 A 
ATOM     18  C   UNL     1       6.632   5.394  15.775  0.00  0.00    +0.000 A 
ENDBRANCH   9  13
BRANCH   1  19
ATOM     19  N   UNL     1       2.843   1.165  18.726  0.00  0.00    +0.000 N 
ATOM     20  H   UNL     1       3.262   0.991  17.800  0.00  0.00    +0.000 HD
ATOM     21  H   UNL     1       2.681   0.339  19.314  0.00  0.00    +0.000 HD
ENDBRANCH   1  19
TORSDOF 2
ENDMDL
MODEL 9
REMARK VINA RESULT:      -7.2      2.938      4.574
REMARK  Name = 
REMARK  2 active torsions:
REMARK  status: ('A' for Active; 'I' for Inactive)
REMARK    1  A    between atoms: N_1  and  C_2
REMARK    2  A    between atoms: C_10  and  C_11
REMARK                            x       y       z     vdW  Elec       q    Type
REMARK                         _______ _______ _______ _____ _____    ______ ____
ROOT
ATOM      1  C   UNL     1       1.615   9.202  18.803  0.00  0.00    +0.000 A 
ATOM      2  C   UNL     1       0.846   9.703  19.866  0.00  0.00    +0.000 A 
ATOM      3  C   UNL     1       0.619   8.940  21.006  0.00  0.00    +0.000 A 
ATOM      4  C   UNL     1       1.131   7.651  21.101  0.00  0.00    +0.000 A 
ATOM      5  C   UNL     1       1.904   7.113  20.056  0.00  0.00    +0.000 A 
ATOM      6  C   UNL     1       2.417   5.805  20.141  0.00  0.00    +0.000 A 
ATOM      7  O   UNL     1       2.193   5.113  21.120  0.00  0.00    +0.000 OA
ATOM      8  N   UNL     1       3.197   5.304  19.130  0.00  0.00    +0.000 N 
ATOM      9  C   UNL     1       3.521   6.042  18.028  0.00  0.00    +0.000 A 
ATOM     10  C   UNL     1       2.999   7.344  17.900  0.00  0.00    +0.000 A 
ATOM     11  C   UNL     1       2.173   7.894  18.903  0.00  0.00    +0.000 A 
ATOM     12  H   UNL     1       3.579   4.340  19.253  0.00  0.00    +0.000 HD
ENDROOT
BRANCH   9  13
ATOM     13  C   UNL     1       4.452   5.483  16.995  0.00  0.00    +0.000 A 
ATOM     14  C   UNL     1       5.080   6.323  16.050  0.00  0.00    +0.000 A 
ATOM     15  C   UNL     1       5.925   5.789  15.072  0.00  0.00    +0.000 A 
ATOM     16  C   UNL     1       6.143   4.414  15.004  0.00  0.00    +0.000 A 
ATOM     17  C   UNL     1       5.526   3.567  15.926  0.00  0.00    +0.000 A 
ATOM     18  C   UNL     1       4.695   4.094  16.917  0.00  0.00    +0.000 A 
ENDBRANCH   9  13
BRANCH   1  19
ATOM     19  N   UNL     1       1.783  10.033  17.659  0.00  0.00    +0.000 N 
ATOM     20  H   UNL     1       1.662  11.054  17.739  0.00  0.00    +0.000 HD
ATOM     21  H   UNL     1       1.956   9.669  16.715  0.00  0.00    +0.000 HD
ENDBRANCH   1  19
TORSDOF 2
ENDMDL
