MODEL 1
REMARK VINA RESULT:      -7.5      0.000      0.000
REMARK  Name = 
REMARK  17 active torsions:
REMARK  status: ('A' for Active; 'I' for Inactive)
REMARK    1  A    between atoms: C_1  and  O_2
REMARK    2  A    between atoms: O_2  and  C_3
REMARK    3  A    between atoms: C_3  and  C_4
REMARK    4  A    between atoms: C_4  and  O_5
REMARK    5  A    between atoms: O_5  and  C_6
REMARK    6  A    between atoms: C_12  and  N_13
REMARK    7  A    between atoms: N_13  and  C_14
REMARK    8  A    between atoms: N_13  and  C_20
REMARK    9  A    between atoms: C_14  and  C_15
REMARK   10  A    between atoms: C_15  and  N_16
REMARK   11  A    between atoms: N_16  and  C_17
REMARK   12  A    between atoms: C_17  and  C_18
REMARK   13  A    between atoms: C_17  and  C_19
REMARK   14  A    between atoms: C_22  and  O_23
REMARK   15  A    between atoms: O_23  and  C_24
REMARK   16  A    between atoms: C_26  and  O_27
REMARK   17  A    between atoms: O_27  and  C_28
REMARK                            x       y       z     vdW  Elec       q    Type
REMARK                         _______ _______ _______ _____ _____    ______ ____
ROOT
ATOM      1  N   UNL     1       3.169   5.060  17.516  0.00  0.00    +0.000 N 
ENDROOT
BRANCH   1   8
ATOM      2  C   UNL     1       1.092  10.450  19.687  0.00  0.00    +0.000 A 
ATOM      3  C   UNL     1       0.875   9.889  20.888  0.00  0.00    +0.000 A 
ATOM      4  N   UNL     1       1.139   8.600  21.239  0.00  0.00    +0.000 NA
ATOM      5  C   UNL     1       1.618   7.828  20.315  0.00  0.00    +0.000 A 
ATOM      6  C   UNL     1       1.902   6.419  20.670  0.00  0.00    +0.000 A 
ATOM      7  C   UNL     1       2.384   5.587  19.742  0.00  0.00    +0.000 A 
ATOM      8  C   UNL     1       2.654   6.027  18.380  0.00  0.00    +0.000 A 
ATOM      9  C   UNL     1       2.391   7.313  18.084  0.00  0.00    +0.000 A 
ATOM     10  N   UNL     1       1.890   8.226  19.017  0.00  0.00    +0.000 N 
ATOM     11  C   UNL     1       1.680   9.550  18.634  0.00  0.00    +0.000 A 
ATOM     12  O   UNL     1       1.947  10.001  17.519  0.00  0.00    +0.000 OA
BRANCH   2  13
ATOM     13  O   UNL     1       0.823  11.762  19.337  0.00  0.00    +0.000 OA
BRANCH  13  14
ATOM     14  C   UNL     1      -0.550  12.149  19.387  0.00  0.00    +0.000 C 
BRANCH  14  15
ATOM     15  C   UNL     1      -1.040  12.552  18.005  0.00  0.00    +0.000 C 
BRANCH  15  17
ATOM     16  C   UNL     1      -2.072  10.437  17.933  0.00  0.00    +0.000 C 
ATOM     17  O   UNL     1      -2.243  11.831  17.733  0.00  0.00    +0.000 OA
ENDBRANCH  15  17
ENDBRANCH  14  15
ENDBRANCH  13  14
ENDBRANCH   2  13
ENDBRANCH   1   8
BRANCH   1  18
ATOM     18  C   UNL     1       4.568   5.045  17.170  0.00  0.00    +0.000 A 
ATOM     19  C   UNL     1       5.573   4.894  18.138  0.00  0.00    +0.000 A 
ATOM     20  C   UNL     1       6.923   4.798  17.774  0.00  0.00    +0.000 A 
ATOM     21  C   UNL     1       7.282   4.821  16.427  0.00  0.00    +0.000 A 
ATOM     22  C   UNL     1       6.312   5.010  15.446  0.00  0.00    +0.000 A 
ATOM     23  C   UNL     1       4.975   5.149  15.824  0.00  0.00    +0.000 A 
BRANCH  20  24
ATOM     24  O   UNL     1       7.807   4.634  18.808  0.00  0.00    +0.000 OA
ATOM     25  C   UNL     1       7.880   5.731  19.714  0.00  0.00    +0.000 C 
ENDBRANCH  20  24
BRANCH  22  26
ATOM     26  O   UNL     1       6.781   5.037  14.159  0.00  0.00    +0.000 OA
ATOM     27  C   UNL     1       6.431   3.936  13.326  0.00  0.00    +0.000 C 
ENDBRANCH  22  26
ENDBRANCH   1  18
BRANCH   1  28
ATOM     28  C   UNL     1       2.546   3.738  17.231  0.00  0.00    +0.000 C 
BRANCH  28  29
ATOM     29  C   UNL     1       3.205   2.469  17.802  0.00  0.00    +0.000 C 
BRANCH  29  30
ATOM     30  N   UNL     1       2.751   1.982  19.108  0.00  0.00    +0.000 NA
ATOM     31  H   UNL     1       2.883   0.971  19.144  0.00  0.00    +0.000 HD
BRANCH  30  32
ATOM     32  C   UNL     1       3.399   2.585  20.278  0.00  0.00    +0.000 C 
ATOM     33  C   UNL     1       2.563   2.484  21.557  0.00  0.00    +0.000 C 
ATOM     34  C   UNL     1       4.732   1.863  20.484  0.00  0.00    +0.000 C 
ENDBRANCH  30  32
ENDBRANCH  29  30
ENDBRANCH  28  29
ENDBRANCH   1  28
TORSDOF 12
ENDMDL
MODEL 2
REMARK VINA RESULT:      -7.3      2.198      2.965
REMARK  Name = 
REMARK  17 active torsions:
REMARK  status: ('A' for Active; 'I' for Inactive)
REMARK    1  A    between atoms: C_1  and  O_2
REMARK    2  A    between atoms: O_2  and  C_3
REMARK    3  A    between atoms: C_3  and  C_4
REMARK    4  A    between atoms: C_4  and  O_5
REMARK    5  A    between atoms: O_5  and  C_6
REMARK    6  A    between atoms: C_12  and  N_13
REMARK    7  A    between atoms: N_13  and  C_14
REMARK    8  A    between atoms: N_13  and  C_20
REMARK    9  A    between atoms: C_14  and  C_15
REMARK   10  A    between atoms: C_15  and  N_16
REMARK   11  A    between atoms: N_16  and  C_17
REMARK   12  A    between atoms: C_17  and  C_18
REMARK   13  A    between atoms: C_17  and  C_19
REMARK   14  A    between atoms: C_22  and  O_23
REMARK   15  A    between atoms: O_23  and  C_24
REMARK   16  A    between atoms: C_26  and  O_27
REMARK   17  A    between atoms: O_27  and  C_28
REMARK                            x       y       z     vdW  Elec       q    Type
REMARK                         _______ _______ _______ _____ _____    ______ ____
ROOT
ATOM      1  N   UNL     1       2.511   5.996  19.413  0.00  0.00    +0.000 N 
ENDROOT
BRANCH   1   8
ATOM      2  C   UNL     1       0.248  11.435  21.251  0.00  0.00    +0.000 A 
ATOM      3  C   UNL     1       0.412  11.929  20.013  0.00  0.00    +0.000 A 
ATOM      4  N   UNL     1       0.886  11.254  18.929  0.00  0.00    +0.000 NA
ATOM      5  C   UNL     1       1.244  10.023  19.116  0.00  0.00    +0.000 A 
ATOM      6  C   UNL     1       1.774   9.272  17.955  0.00  0.00    +0.000 A 
ATOM      7  C   UNL     1       2.167   8.005  18.109  0.00  0.00    +0.000 A 
ATOM      8  C   UNL     1       2.080   7.324  19.394  0.00  0.00    +0.000 A 
ATOM      9  C   UNL     1       1.592   8.026  20.432  0.00  0.00    +0.000 A 
ATOM     10  N   UNL     1       1.163   9.352  20.325  0.00  0.00    +0.000 N 
ATOM     11  C   UNL     1       0.637   9.995  21.446  0.00  0.00    +0.000 A 
ATOM     12  O   UNL     1       0.477   9.457  22.543  0.00  0.00    +0.000 OA
BRANCH   2  13
ATOM     13  O   UNL     1      -0.236  12.126  22.349  0.00  0.00    +0.000 OA
BRANCH  13  14
ATOM     14  C   UNL     1      -1.213  13.129  22.069  0.00  0.00    +0.000 C 
BRANCH  14  15
ATOM     15  C   UNL     1      -2.615  12.553  22.184  0.00  0.00    +0.000 C 
BRANCH  15  17
ATOM     16  C   UNL     1      -3.844  12.478  24.191  0.00  0.00    +0.000 C 
ATOM     17  O   UNL     1      -2.742  11.947  23.471  0.00  0.00    +0.000 OA
ENDBRANCH  15  17
ENDBRANCH  14  15
ENDBRANCH  13  14
ENDBRANCH   2  13
ENDBRANCH   1   8
BRANCH   1  18
ATOM     18  C   UNL     1       3.714   5.598  18.729  0.00  0.00    +0.000 A 
ATOM     19  C   UNL     1       4.967   5.595  19.365  0.00  0.00    +0.000 A 
ATOM     20  C   UNL     1       6.112   5.125  18.709  0.00  0.00    +0.000 A 
ATOM     21  C   UNL     1       6.013   4.620  17.414  0.00  0.00    +0.000 A 
ATOM     22  C   UNL     1       4.794   4.647  16.742  0.00  0.00    +0.000 A 
ATOM     23  C   UNL     1       3.668   5.159  17.390  0.00  0.00    +0.000 A 
BRANCH  20  24
ATOM     24  O   UNL     1       7.270   5.156  19.442  0.00  0.00    +0.000 OA
ATOM     25  C   UNL     1       8.140   6.244  19.143  0.00  0.00    +0.000 C 
ENDBRANCH  20  24
BRANCH  22  26
ATOM     26  O   UNL     1       4.818   4.145  15.468  0.00  0.00    +0.000 OA
ATOM     27  C   UNL     1       5.881   4.581  14.627  0.00  0.00    +0.000 C 
ENDBRANCH  22  26
ENDBRANCH   1  18
BRANCH   1  28
ATOM     28  C   UNL     1       2.128   4.980  20.432  0.00  0.00    +0.000 C 
BRANCH  28  29
ATOM     29  C   UNL     1       1.501   3.656  19.960  0.00  0.00    +0.000 C 
BRANCH  29  30
ATOM     30  N   UNL     1       2.251   2.416  20.186  0.00  0.00    +0.000 NA
ATOM     31  H   UNL     1       1.694   1.631  19.850  0.00  0.00    +0.000 HD
BRANCH  30  32
ATOM     32  C   UNL     1       3.581   2.351  19.571  0.00  0.00    +0.000 C 
ATOM     33  C   UNL     1       4.652   1.764  20.496  0.00  0.00    +0.000 C 
ATOM     34  C   UNL     1       3.461   1.481  18.317  0.00  0.00    +0.000 C 
ENDBRANCH  30  32
ENDBRANCH  29  30
ENDBRANCH  28  29
ENDBRANCH   1  28
TORSDOF 12
ENDMDL
MODEL 3
REMARK VINA RESULT:      -7.3      2.346      3.597
REMARK  Name = 
REMARK  17 active torsions:
REMARK  status: ('A' for Active; 'I' for Inactive)
REMARK    1  A    between atoms: C_1  and  O_2
REMARK    2  A    between atoms: O_2  and  C_3
REMARK    3  A    between atoms: C_3  and  C_4
REMARK    4  A    between atoms: C_4  and  O_5
REMARK    5  A    between atoms: O_5  and  C_6
REMARK    6  A    between atoms: C_12  and  N_13
REMARK    7  A    between atoms: N_13  and  C_14
REMARK    8  A    between atoms: N_13  and  C_20
REMARK    9  A    between atoms: C_14  and  C_15
REMARK   10  A    between atoms: C_15  and  N_16
REMARK   11  A    between atoms: N_16  and  C_17
REMARK   12  A    between atoms: C_17  and  C_18
REMARK   13  A    between atoms: C_17  and  C_19
REMARK   14  A    between atoms: C_22  and  O_23
REMARK   15  A    between atoms: O_23  and  C_24
REMARK   16  A    between atoms: C_26  and  O_27
REMARK   17  A    between atoms: O_27  and  C_28
REMARK                            x       y       z     vdW  Elec       q    Type
REMARK                         _______ _______ _______ _____ _____    ______ ____
ROOT
ATOM      1  N   UNL     1       2.934   5.802  19.458  0.00  0.00    +0.000 N 
ENDROOT
BRANCH   1   8
ATOM      2  C   UNL     1       0.202  11.044  21.227  0.00  0.00    +0.000 A 
ATOM      3  C   UNL     1       0.211  11.485  19.958  0.00  0.00    +0.000 A 
ATOM      4  N   UNL     1       0.677  10.809  18.871  0.00  0.00    +0.000 NA
ATOM      5  C   UNL     1       1.189   9.638  19.084  0.00  0.00    +0.000 A 
ATOM      6  C   UNL     1       1.712   8.889  17.918  0.00  0.00    +0.000 A 
ATOM      7  C   UNL     1       2.260   7.685  18.097  0.00  0.00    +0.000 A 
ATOM      8  C   UNL     1       2.352   7.069  19.414  0.00  0.00    +0.000 A 
ATOM      9  C   UNL     1       1.866   7.768  20.456  0.00  0.00    +0.000 A 
ATOM     10  N   UNL     1       1.279   9.030  20.325  0.00  0.00    +0.000 N 
ATOM     11  C   UNL     1       0.769   9.670  21.454  0.00  0.00    +0.000 A 
ATOM     12  O   UNL     1       0.758   9.178  22.584  0.00  0.00    +0.000 OA
BRANCH   2  13
ATOM     13  O   UNL     1      -0.274  11.735  22.328  0.00  0.00    +0.000 OA
BRANCH  13  14
ATOM     14  C   UNL     1      -1.563  12.330  22.178  0.00  0.00    +0.000 C 
BRANCH  14  15
ATOM     15  C   UNL     1      -2.481  11.906  23.313  0.00  0.00    +0.000 C 
BRANCH  15  17
ATOM     16  C   UNL     1      -4.523  12.878  23.970  0.00  0.00    +0.000 C 
ATOM     17  O   UNL     1      -3.825  12.206  22.933  0.00  0.00    +0.000 OA
ENDBRANCH  15  17
ENDBRANCH  14  15
ENDBRANCH  13  14
ENDBRANCH   2  13
ENDBRANCH   1   8
BRANCH   1  18
ATOM     18  C   UNL     1       4.104   5.496  18.674  0.00  0.00    +0.000 A 
ATOM     19  C   UNL     1       4.015   4.942  17.387  0.00  0.00    +0.000 A 
ATOM     20  C   UNL     1       5.159   4.729  16.608  0.00  0.00    +0.000 A 
ATOM     21  C   UNL     1       6.412   5.098  17.097  0.00  0.00    +0.000 A 
ATOM     22  C   UNL     1       6.537   5.612  18.385  0.00  0.00    +0.000 A 
ATOM     23  C   UNL     1       5.394   5.779  19.169  0.00  0.00    +0.000 A 
BRANCH  20  24
ATOM     24  O   UNL     1       4.940   4.200  15.363  0.00  0.00    +0.000 OA
ATOM     25  C   UNL     1       6.119   3.912  14.617  0.00  0.00    +0.000 C 
ENDBRANCH  20  24
BRANCH  22  26
ATOM     26  O   UNL     1       7.815   5.921  18.768  0.00  0.00    +0.000 OA
ATOM     27  C   UNL     1       8.243   7.262  18.554  0.00  0.00    +0.000 C 
ENDBRANCH  22  26
ENDBRANCH   1  18
BRANCH   1  28
ATOM     28  C   UNL     1       2.774   4.817  20.563  0.00  0.00    +0.000 C 
BRANCH  28  29
ATOM     29  C   UNL     1       1.496   3.960  20.615  0.00  0.00    +0.000 C 
BRANCH  29  30
ATOM     30  N   UNL     1       1.632   2.507  20.475  0.00  0.00    +0.000 NA
ATOM     31  H   UNL     1       0.866   2.057  20.977  0.00  0.00    +0.000 HD
BRANCH  30  32
ATOM     32  C   UNL     1       1.662   1.995  19.100  0.00  0.00    +0.000 C 
ATOM     33  C   UNL     1       1.088   2.974  18.073  0.00  0.00    +0.000 C 
ATOM     34  C   UNL     1       3.124   1.698  18.757  0.00  0.00    +0.000 C 
ENDBRANCH  30  32
ENDBRANCH  29  30
ENDBRANCH  28  29
ENDBRANCH   1  28
TORSDOF 12
ENDMDL
MODEL 4
REMARK VINA RESULT:      -7.2      1.270      1.830
REMARK  Name = 
REMARK  17 active torsions:
REMARK  status: ('A' for Active; 'I' for Inactive)
REMARK    1  A    between atoms: C_1  and  O_2
REMARK    2  A    between atoms: O_2  and  C_3
REMARK    3  A    between atoms: C_3  and  C_4
REMARK    4  A    between atoms: C_4  and  O_5
REMARK    5  A    between atoms: O_5  and  C_6
REMARK    6  A    between atoms: C_12  and  N_13
REMARK    7  A    between atoms: N_13  and  C_14
REMARK    8  A    between atoms: N_13  and  C_20
REMARK    9  A    between atoms: C_14  and  C_15
REMARK   10  A    between atoms: C_15  and  N_16
REMARK   11  A    between atoms: N_16  and  C_17
REMARK   12  A    between atoms: C_17  and  C_18
REMARK   13  A    between atoms: C_17  and  C_19
REMARK   14  A    between atoms: C_22  and  O_23
REMARK   15  A    between atoms: O_23  and  C_24
REMARK   16  A    between atoms: C_26  and  O_27
REMARK   17  A    between atoms: O_27  and  C_28
REMARK                            x       y       z     vdW  Elec       q    Type
REMARK                         _______ _______ _______ _____ _____    ______ ____
ROOT
ATOM      1  N   UNL     1       3.038   5.124  17.505  0.00  0.00    +0.000 N 
ENDROOT
BRANCH   1   8
ATOM      2  C   UNL     1       1.128  10.550  19.740  0.00  0.00    +0.000 A 
ATOM      3  C   UNL     1       0.913   9.988  20.940  0.00  0.00    +0.000 A 
ATOM      4  N   UNL     1       1.149   8.689  21.279  0.00  0.00    +0.000 NA
ATOM      5  C   UNL     1       1.596   7.912  20.344  0.00  0.00    +0.000 A 
ATOM      6  C   UNL     1       1.848   6.493  20.685  0.00  0.00    +0.000 A 
ATOM      7  C   UNL     1       2.296   5.656  19.746  0.00  0.00    +0.000 A 
ATOM      8  C   UNL     1       2.559   6.098  18.383  0.00  0.00    +0.000 A 
ATOM      9  C   UNL     1       2.326   7.392  18.099  0.00  0.00    +0.000 A 
ATOM     10  N   UNL     1       1.860   8.311  19.044  0.00  0.00    +0.000 N 
ATOM     11  C   UNL     1       1.679   9.644  18.673  0.00  0.00    +0.000 A 
ATOM     12  O   UNL     1       1.942  10.095  17.557  0.00  0.00    +0.000 OA
BRANCH   2  13
ATOM     13  O   UNL     1       0.889  11.871  19.402  0.00  0.00    +0.000 OA
BRANCH  13  14
ATOM     14  C   UNL     1       1.729  12.836  20.036  0.00  0.00    +0.000 C 
BRANCH  14  15
ATOM     15  C   UNL     1       2.645  13.495  19.017  0.00  0.00    +0.000 C 
BRANCH  15  17
ATOM     16  C   UNL     1       2.036  15.762  18.836  0.00  0.00    +0.000 C 
ATOM     17  O   UNL     1       1.882  14.460  18.292  0.00  0.00    +0.000 OA
ENDBRANCH  15  17
ENDBRANCH  14  15
ENDBRANCH  13  14
ENDBRANCH   2  13
ENDBRANCH   1   8
BRANCH   1  18
ATOM     18  C   UNL     1       4.439   5.043  17.181  0.00  0.00    +0.000 A 
ATOM     19  C   UNL     1       5.428   4.935  18.172  0.00  0.00    +0.000 A 
ATOM     20  C   UNL     1       6.779   4.773  17.835  0.00  0.00    +0.000 A 
ATOM     21  C   UNL     1       7.155   4.687  16.495  0.00  0.00    +0.000 A 
ATOM     22  C   UNL     1       6.202   4.832  15.489  0.00  0.00    +0.000 A 
ATOM     23  C   UNL     1       4.866   5.037  15.837  0.00  0.00    +0.000 A 
BRANCH  20  24
ATOM     24  O   UNL     1       7.645   4.660  18.891  0.00  0.00    +0.000 OA
ATOM     25  C   UNL     1       8.069   5.899  19.454  0.00  0.00    +0.000 C 
ENDBRANCH  20  24
BRANCH  22  26
ATOM     26  O   UNL     1       6.687   4.750  14.211  0.00  0.00    +0.000 OA
ATOM     27  C   UNL     1       6.148   3.722  13.385  0.00  0.00    +0.000 C 
ENDBRANCH  22  26
ENDBRANCH   1  18
BRANCH   1  28
ATOM     28  C   UNL     1       2.352   3.843  17.182  0.00  0.00    +0.000 C 
BRANCH  28  29
ATOM     29  C   UNL     1       2.820   2.554  17.880  0.00  0.00    +0.000 C 
BRANCH  29  30
ATOM     30  N   UNL     1       1.899   1.902  18.817  0.00  0.00    +0.000 NA
ATOM     31  H   UNL     1       1.742   0.943  18.507  0.00  0.00    +0.000 HD
BRANCH  30  32
ATOM     32  C   UNL     1       2.322   1.882  20.221  0.00  0.00    +0.000 C 
ATOM     33  C   UNL     1       3.735   2.431  20.441  0.00  0.00    +0.000 C 
ATOM     34  C   UNL     1       1.320   2.727  21.011  0.00  0.00    +0.000 C 
ENDBRANCH  30  32
ENDBRANCH  29  30
ENDBRANCH  28  29
ENDBRANCH   1  28
TORSDOF 12
ENDMDL
MODEL 5
REMARK VINA RESULT:      -7.2      2.510      3.166
REMARK  Name = 
REMARK  17 active torsions:
REMARK  status: ('A' for Active; 'I' for Inactive)
REMARK    1  A    between atoms: C_1  and  O_2
REMARK    2  A    between atoms: O_2  and  C_3
REMARK    3  A    between atoms: C_3  and  C_4
REMARK    4  A    between atoms: C_4  and  O_5
REMARK    5  A    between atoms: O_5  and  C_6
REMARK    6  A    between atoms: C_12  and  N_13
REMARK    7  A    between atoms: N_13  and  C_14
REMARK    8  A    between atoms: N_13  and  C_20
REMARK    9  A    between atoms: C_14  and  C_15
REMARK   10  A    between atoms: C_15  and  N_16
REMARK   11  A    between atoms: N_16  and  C_17
REMARK   12  A    between atoms: C_17  and  C_18
REMARK   13  A    between atoms: C_17  and  C_19
REMARK   14  A    between atoms: C_22  and  O_23
REMARK   15  A    between atoms: O_23  and  C_24
REMARK   16  A    between atoms: C_26  and  O_27
REMARK   17  A    between atoms: O_27  and  C_28
REMARK                            x       y       z     vdW  Elec       q    Type
REMARK                         _______ _______ _______ _____ _____    ______ ____
ROOT
ATOM      1  N   UNL     1       3.308   6.138  18.866  0.00  0.00    +0.000 N 
ENDROOT
BRANCH   1   8
ATOM      2  C   UNL     1      -0.195  10.684  21.135  0.00  0.00    +0.000 A 
ATOM      3  C   UNL     1      -0.252  11.255  19.920  0.00  0.00    +0.000 A 
ATOM      4  N   UNL     1       0.312  10.778  18.775  0.00  0.00    +0.000 NA
ATOM      5  C   UNL     1       0.997   9.683  18.871  0.00  0.00    +0.000 A 
ATOM      6  C   UNL     1       1.629   9.152  17.642  0.00  0.00    +0.000 A 
ATOM      7  C   UNL     1       2.355   8.032  17.702  0.00  0.00    +0.000 A 
ATOM      8  C   UNL     1       2.538   7.300  18.947  0.00  0.00    +0.000 A 
ATOM      9  C   UNL     1       1.951   7.800  20.049  0.00  0.00    +0.000 A 
ATOM     10  N   UNL     1       1.178   8.966  20.042  0.00  0.00    +0.000 N 
ATOM     11  C   UNL     1       0.575   9.395  21.224  0.00  0.00    +0.000 A 
ATOM     12  O   UNL     1       0.638   8.789  22.295  0.00  0.00    +0.000 OA
BRANCH   2  13
ATOM     13  O   UNL     1      -0.772  11.172  22.294  0.00  0.00    +0.000 OA
BRANCH  13  14
ATOM     14  C   UNL     1      -1.837  12.105  22.113  0.00  0.00    +0.000 C 
BRANCH  14  15
ATOM     15  C   UNL     1      -2.733  12.136  23.341  0.00  0.00    +0.000 C 
BRANCH  15  17
ATOM     16  C   UNL     1      -3.991  13.923  24.216  0.00  0.00    +0.000 C 
ATOM     17  O   UNL     1      -2.693  13.455  23.887  0.00  0.00    +0.000 OA
ENDBRANCH  15  17
ENDBRANCH  14  15
ENDBRANCH  13  14
ENDBRANCH   2  13
ENDBRANCH   1   8
BRANCH   1  18
ATOM     18  C   UNL     1       4.374   6.020  17.904  0.00  0.00    +0.000 A 
ATOM     19  C   UNL     1       5.406   6.968  17.816  0.00  0.00    +0.000 A 
ATOM     20  C   UNL     1       6.479   6.793  16.932  0.00  0.00    +0.000 A 
ATOM     21  C   UNL     1       6.547   5.646  16.141  0.00  0.00    +0.000 A 
ATOM     22  C   UNL     1       5.518   4.709  16.176  0.00  0.00    +0.000 A 
ATOM     23  C   UNL     1       4.432   4.916  17.030  0.00  0.00    +0.000 A 
BRANCH  20  24
ATOM     24  O   UNL     1       7.432   7.776  16.953  0.00  0.00    +0.000 OA
ATOM     25  C   UNL     1       8.148   7.892  18.180  0.00  0.00    +0.000 C 
ENDBRANCH  20  24
BRANCH  22  26
ATOM     26  O   UNL     1       5.680   3.633  15.344  0.00  0.00    +0.000 OA
ATOM     27  C   UNL     1       6.209   3.899  14.048  0.00  0.00    +0.000 C 
ENDBRANCH  22  26
ENDBRANCH   1  18
BRANCH   1  28
ATOM     28  C   UNL     1       3.474   5.137  19.956  0.00  0.00    +0.000 C 
BRANCH  28  29
ATOM     29  C   UNL     1       2.299   4.201  20.290  0.00  0.00    +0.000 C 
BRANCH  29  30
ATOM     30  N   UNL     1       2.575   2.768  20.435  0.00  0.00    +0.000 NA
ATOM     31  H   UNL     1       2.199   2.452  21.329  0.00  0.00    +0.000 HD
BRANCH  30  32
ATOM     32  C   UNL     1       2.055   1.904  19.370  0.00  0.00    +0.000 C 
ATOM     33  C   UNL     1       0.824   2.480  18.664  0.00  0.00    +0.000 C 
ATOM     34  C   UNL     1       3.180   1.708  18.352  0.00  0.00    +0.000 C 
ENDBRANCH  30  32
ENDBRANCH  29  30
ENDBRANCH  28  29
ENDBRANCH   1  28
TORSDOF 12
ENDMDL
MODEL 6
REMARK VINA RESULT:      -7.1      1.597      2.148
REMARK  Name = 
REMARK  17 active torsions:
REMARK  status: ('A' for Active; 'I' for Inactive)
REMARK    1  A    between atoms: C_1  and  O_2
REMARK    2  A    between atoms: O_2  and  C_3
REMARK    3  A    between atoms: C_3  and  C_4
REMARK    4  A    between atoms: C_4  and  O_5
REMARK    5  A    between atoms: O_5  and  C_6
REMARK    6  A    between atoms: C_12  and  N_13
REMARK    7  A    between atoms: N_13  and  C_14
REMARK    8  A    between atoms: N_13  and  C_20
REMARK    9  A    between atoms: C_14  and  C_15
REMARK   10  A    between atoms: C_15  and  N_16
REMARK   11  A    between atoms: N_16  and  C_17
REMARK   12  A    between atoms: C_17  and  C_18
REMARK   13  A    between atoms: C_17  and  C_19
REMARK   14  A    between atoms: C_22  and  O_23
REMARK   15  A    between atoms: O_23  and  C_24
REMARK   16  A    between atoms: C_26  and  O_27
REMARK   17  A    between atoms: O_27  and  C_28
REMARK                            x       y       z     vdW  Elec       q    Type
REMARK                         _______ _______ _______ _____ _____    ______ ____
ROOT
ATOM      1  N   UNL     1       4.216   4.630  18.697  0.00  0.00    +0.000 N 
ENDROOT
BRANCH   1   8
ATOM      2  C   UNL     1       0.946   9.855  18.986  0.00  0.00    +0.000 A 
ATOM      3  C   UNL     1       0.474   9.500  20.193  0.00  0.00    +0.000 A 
ATOM      4  N   UNL     1       0.791   8.371  20.885  0.00  0.00    +0.000 NA
ATOM      5  C   UNL     1       1.604   7.541  20.312  0.00  0.00    +0.000 A 
ATOM      6  C   UNL     1       1.954   6.300  21.040  0.00  0.00    +0.000 A 
ATOM      7  C   UNL     1       2.778   5.412  20.477  0.00  0.00    +0.000 A 
ATOM      8  C   UNL     1       3.361   5.630  19.161  0.00  0.00    +0.000 A 
ATOM      9  C   UNL     1       3.031   6.767  18.521  0.00  0.00    +0.000 A 
ATOM     10  N   UNL     1       2.176   7.731  19.065  0.00  0.00    +0.000 N 
ATOM     11  C   UNL     1       1.915   8.898  18.348  0.00  0.00    +0.000 A 
ATOM     12  O   UNL     1       2.424   9.172  17.259  0.00  0.00    +0.000 OA
BRANCH   2  13
ATOM     13  O   UNL     1       0.622  11.005  18.288  0.00  0.00    +0.000 OA
BRANCH  13  14
ATOM     14  C   UNL     1       0.833  12.234  18.984  0.00  0.00    +0.000 C 
BRANCH  14  15
ATOM     15  C   UNL     1       2.201  12.807  18.650  0.00  0.00    +0.000 C 
BRANCH  15  17
ATOM     16  C   UNL     1       0.856  14.719  18.928  0.00  0.00    +0.000 C 
ATOM     17  O   UNL     1       2.041  14.194  18.350  0.00  0.00    +0.000 OA
ENDBRANCH  15  17
ENDBRANCH  14  15
ENDBRANCH  13  14
ENDBRANCH   2  13
ENDBRANCH   1   8
BRANCH   1  18
ATOM     18  C   UNL     1       5.073   4.855  17.560  0.00  0.00    +0.000 A 
ATOM     19  C   UNL     1       6.056   5.858  17.555  0.00  0.00    +0.000 A 
ATOM     20  C   UNL     1       6.934   6.008  16.474  0.00  0.00    +0.000 A 
ATOM     21  C   UNL     1       6.860   5.131  15.392  0.00  0.00    +0.000 A 
ATOM     22  C   UNL     1       5.870   4.153  15.349  0.00  0.00    +0.000 A 
ATOM     23  C   UNL     1       4.972   4.042  16.413  0.00  0.00    +0.000 A 
BRANCH  20  24
ATOM     24  O   UNL     1       7.861   7.010  16.596  0.00  0.00    +0.000 OA
ATOM     25  C   UNL     1       7.602   7.942  17.643  0.00  0.00    +0.000 C 
ENDBRANCH  20  24
BRANCH  22  26
ATOM     26  O   UNL     1       5.878   3.363  14.231  0.00  0.00    +0.000 OA
ATOM     27  C   UNL     1       6.344   3.962  13.026  0.00  0.00    +0.000 C 
ENDBRANCH  22  26
ENDBRANCH   1  18
BRANCH   1  28
ATOM     28  C   UNL     1       4.704   3.473  19.497  0.00  0.00    +0.000 C 
BRANCH  28  29
ATOM     29  C   UNL     1       3.962   2.129  19.387  0.00  0.00    +0.000 C 
BRANCH  29  30
ATOM     30  N   UNL     1       2.840   2.034  18.448  0.00  0.00    +0.000 NA
ATOM     31  H   UNL     1       2.919   1.157  17.932  0.00  0.00    +0.000 HD
BRANCH  30  32
ATOM     32  C   UNL     1       1.500   2.114  19.040  0.00  0.00    +0.000 C 
ATOM     33  C   UNL     1       1.516   2.344  20.554  0.00  0.00    +0.000 C 
ATOM     34  C   UNL     1       0.770   3.274  18.358  0.00  0.00    +0.000 C 
ENDBRANCH  30  32
ENDBRANCH  29  30
ENDBRANCH  28  29
ENDBRANCH   1  28
TORSDOF 12
ENDMDL
MODEL 7
REMARK VINA RESULT:      -7.1      2.504      3.170
REMARK  Name = 
REMARK  17 active torsions:
REMARK  status: ('A' for Active; 'I' for Inactive)
REMARK    1  A    between atoms: C_1  and  O_2
REMARK    2  A    between atoms: O_2  and  C_3
REMARK    3  A    between atoms: C_3  and  C_4
REMARK    4  A    between atoms: C_4  and  O_5
REMARK    5  A    between atoms: O_5  and  C_6
REMARK    6  A    between atoms: C_12  and  N_13
REMARK    7  A    between atoms: N_13  and  C_14
REMARK    8  A    between atoms: N_13  and  C_20
REMARK    9  A    between atoms: C_14  and  C_15
REMARK   10  A    between atoms: C_15  and  N_16
REMARK   11  A    between atoms: N_16  and  C_17
REMARK   12  A    between atoms: C_17  and  C_18
REMARK   13  A    between atoms: C_17  and  C_19
REMARK   14  A    between atoms: C_22  and  O_23
REMARK   15  A    between atoms: O_23  and  C_24
REMARK   16  A    between atoms: C_26  and  O_27
REMARK   17  A    between atoms: O_27  and  C_28
REMARK                            x       y       z     vdW  Elec       q    Type
REMARK                         _______ _______ _______ _____ _____    ______ ____
ROOT
ATOM      1  N   UNL     1       3.277   6.178  18.884  0.00  0.00    +0.000 N 
ENDROOT
BRANCH   1   8
ATOM      2  C   UNL     1       0.227  10.917  21.396  0.00  0.00    +0.000 A 
ATOM      3  C   UNL     1       0.014  11.435  20.175  0.00  0.00    +0.000 A 
ATOM      4  N   UNL     1       0.403  10.893  18.988  0.00  0.00    +0.000 NA
ATOM      5  C   UNL     1       1.069   9.784  19.040  0.00  0.00    +0.000 A 
ATOM      6  C   UNL     1       1.512   9.182  17.762  0.00  0.00    +0.000 A 
ATOM      7  C   UNL     1       2.214   8.045  17.773  0.00  0.00    +0.000 A 
ATOM      8  C   UNL     1       2.553   7.364  19.015  0.00  0.00    +0.000 A 
ATOM      9  C   UNL     1       2.136   7.928  20.163  0.00  0.00    +0.000 A 
ATOM     10  N   UNL     1       1.396   9.114  20.207  0.00  0.00    +0.000 N 
ATOM     11  C   UNL     1       0.973   9.612  21.439  0.00  0.00    +0.000 A 
ATOM     12  O   UNL     1       1.172   9.052  22.519  0.00  0.00    +0.000 OA
BRANCH   2  13
ATOM     13  O   UNL     1      -0.171  11.472  22.600  0.00  0.00    +0.000 OA
BRANCH  13  14
ATOM     14  C   UNL     1      -1.550  11.307  22.934  0.00  0.00    +0.000 C 
BRANCH  14  15
ATOM     15  C   UNL     1      -2.200  12.657  23.189  0.00  0.00    +0.000 C 
BRANCH  15  17
ATOM     16  C   UNL     1      -4.183  12.447  24.441  0.00  0.00    +0.000 C 
ATOM     17  O   UNL     1      -3.617  12.483  23.141  0.00  0.00    +0.000 OA
ENDBRANCH  15  17
ENDBRANCH  14  15
ENDBRANCH  13  14
ENDBRANCH   2  13
ENDBRANCH   1   8
BRANCH   1  18
ATOM     18  C   UNL     1       4.358   6.070  17.937  0.00  0.00    +0.000 A 
ATOM     19  C   UNL     1       5.598   6.695  18.147  0.00  0.00    +0.000 A 
ATOM     20  C   UNL     1       6.663   6.510  17.256  0.00  0.00    +0.000 A 
ATOM     21  C   UNL     1       6.511   5.669  16.155  0.00  0.00    +0.000 A 
ATOM     22  C   UNL     1       5.281   5.067  15.898  0.00  0.00    +0.000 A 
ATOM     23  C   UNL     1       4.214   5.294  16.768  0.00  0.00    +0.000 A 
BRANCH  20  24
ATOM     24  O   UNL     1       7.827   7.158  17.580  0.00  0.00    +0.000 OA
ATOM     25  C   UNL     1       7.712   8.573  17.700  0.00  0.00    +0.000 C 
ENDBRANCH  20  24
BRANCH  22  26
ATOM     26  O   UNL     1       5.240   4.279  14.778  0.00  0.00    +0.000 OA
ATOM     27  C   UNL     1       6.442   4.177  14.021  0.00  0.00    +0.000 C 
ENDBRANCH  22  26
ENDBRANCH   1  18
BRANCH   1  28
ATOM     28  C   UNL     1       3.381   5.112  19.918  0.00  0.00    +0.000 C 
BRANCH  28  29
ATOM     29  C   UNL     1       2.183   4.863  20.851  0.00  0.00    +0.000 C 
BRANCH  29  30
ATOM     30  N   UNL     1       0.965   4.286  20.273  0.00  0.00    +0.000 NA
ATOM     31  H   UNL     1       0.899   4.573  19.297  0.00  0.00    +0.000 HD
BRANCH  30  32
ATOM     32  C   UNL     1       0.851   2.825  20.347  0.00  0.00    +0.000 C 
ATOM     33  C   UNL     1       1.444   2.106  19.132  0.00  0.00    +0.000 C 
ATOM     34  C   UNL     1       1.583   2.374  21.612  0.00  0.00    +0.000 C 
ENDBRANCH  30  32
ENDBRANCH  29  30
ENDBRANCH  28  29
ENDBRANCH   1  28
TORSDOF 12
ENDMDL
MODEL 8
REMARK VINA RESULT:      -7.1      1.264      1.427
REMARK  Name = 
REMARK  17 active torsions:
REMARK  status: ('A' for Active; 'I' for Inactive)
REMARK    1  A    between atoms: C_1  and  O_2
REMARK    2  A    between atoms: O_2  and  C_3
REMARK    3  A    between atoms: C_3  and  C_4
REMARK    4  A    between atoms: C_4  and  O_5
REMARK    5  A    between atoms: O_5  and  C_6
REMARK    6  A    between atoms: C_12  and  N_13
REMARK    7  A    between atoms: N_13  and  C_14
REMARK    8  A    between atoms: N_13  and  C_20
REMARK    9  A    between atoms: C_14  and  C_15
REMARK   10  A    between atoms: C_15  and  N_16
REMARK   11  A    between atoms: N_16  and  C_17
REMARK   12  A    between atoms: C_17  and  C_18
REMARK   13  A    between atoms: C_17  and  C_19
REMARK   14  A    between atoms: C_22  and  O_23
REMARK   15  A    between atoms: O_23  and  C_24
REMARK   16  A    between atoms: C_26  and  O_27
REMARK   17  A    between atoms: O_27  and  C_28
REMARK                            x       y       z     vdW  Elec       q    Type
REMARK                         _______ _______ _______ _____ _____    ______ ____
ROOT
ATOM      1  N   UNL     1       3.786   5.048  17.923  0.00  0.00    +0.000 N 
ENDROOT
BRANCH   1   8
ATOM      2  C   UNL     1       0.793  10.229  19.429  0.00  0.00    +0.000 A 
ATOM      3  C   UNL     1       0.556   9.743  20.658  0.00  0.00    +0.000 A 
ATOM      4  N   UNL     1       0.969   8.539  21.145  0.00  0.00    +0.000 NA
ATOM      5  C   UNL     1       1.629   7.774  20.334  0.00  0.00    +0.000 A 
ATOM      6  C   UNL     1       2.077   6.456  20.837  0.00  0.00    +0.000 A 
ATOM      7  C   UNL     1       2.748   5.632  20.028  0.00  0.00    +0.000 A 
ATOM      8  C   UNL     1       3.068   5.995  18.654  0.00  0.00    +0.000 A 
ATOM      9  C   UNL     1       2.653   7.199  18.222  0.00  0.00    +0.000 A 
ATOM     10  N   UNL     1       1.951   8.101  19.027  0.00  0.00    +0.000 N 
ATOM     11  C   UNL     1       1.589   9.344  18.509  0.00  0.00    +0.000 A 
ATOM     12  O   UNL     1       1.883   9.737  17.379  0.00  0.00    +0.000 OA
BRANCH   2  13
ATOM     13  O   UNL     1       0.372  11.454  18.940  0.00  0.00    +0.000 OA
BRANCH  13  14
ATOM     14  C   UNL     1      -1.005  11.766  19.149  0.00  0.00    +0.000 C 
BRANCH  14  15
ATOM     15  C   UNL     1      -1.794  11.583  17.862  0.00  0.00    +0.000 C 
BRANCH  15  17
ATOM     16  C   UNL     1      -3.331   9.865  17.385  0.00  0.00    +0.000 C 
ATOM     17  O   UNL     1      -1.973  10.183  17.647  0.00  0.00    +0.000 OA
ENDBRANCH  15  17
ENDBRANCH  14  15
ENDBRANCH  13  14
ENDBRANCH   2  13
ENDBRANCH   1   8
BRANCH   1  18
ATOM     18  C   UNL     1       5.019   5.399  17.264  0.00  0.00    +0.000 A 
ATOM     19  C   UNL     1       5.990   6.204  17.880  0.00  0.00    +0.000 A 
ATOM     20  C   UNL     1       7.218   6.465  17.257  0.00  0.00    +0.000 A 
ATOM     21  C   UNL     1       7.502   5.896  16.016  0.00  0.00    +0.000 A 
ATOM     22  C   UNL     1       6.543   5.127  15.361  0.00  0.00    +0.000 A 
ATOM     23  C   UNL     1       5.307   4.910  15.973  0.00  0.00    +0.000 A 
BRANCH  20  24
ATOM     24  O   UNL     1       8.089   7.248  17.968  0.00  0.00    +0.000 OA
ATOM     25  C   UNL     1       7.925   8.651  17.781  0.00  0.00    +0.000 C 
ENDBRANCH  20  24
BRANCH  22  26
ATOM     26  O   UNL     1       6.923   4.637  14.141  0.00  0.00    +0.000 OA
ATOM     27  C   UNL     1       6.009   3.759  13.489  0.00  0.00    +0.000 C 
ENDBRANCH  22  26
ENDBRANCH   1  18
BRANCH   1  28
ATOM     28  C   UNL     1       3.685   3.572  18.089  0.00  0.00    +0.000 C 
BRANCH  28  29
ATOM     29  C   UNL     1       2.304   2.903  17.966  0.00  0.00    +0.000 C 
BRANCH  29  30
ATOM     30  N   UNL     1       1.993   1.789  18.866  0.00  0.00    +0.000 NA
ATOM     31  H   UNL     1       2.864   1.332  19.134  0.00  0.00    +0.000 HD
BRANCH  30  32
ATOM     32  C   UNL     1       1.247   2.135  20.081  0.00  0.00    +0.000 C 
ATOM     33  C   UNL     1       2.147   2.471  21.274  0.00  0.00    +0.000 C 
ATOM     34  C   UNL     1       0.371   3.346  19.749  0.00  0.00    +0.000 C 
ENDBRANCH  30  32
ENDBRANCH  29  30
ENDBRANCH  28  29
ENDBRANCH   1  28
TORSDOF 12
ENDMDL
MODEL 9
REMARK VINA RESULT:      -7.1      0.598      2.160
REMARK  Name = 
REMARK  17 active torsions:
REMARK  status: ('A' for Active; 'I' for Inactive)
REMARK    1  A    between atoms: C_1  and  O_2
REMARK    2  A    between atoms: O_2  and  C_3
REMARK    3  A    between atoms: C_3  and  C_4
REMARK    4  A    between atoms: C_4  and  O_5
REMARK    5  A    between atoms: O_5  and  C_6
REMARK    6  A    between atoms: C_12  and  N_13
REMARK    7  A    between atoms: N_13  and  C_14
REMARK    8  A    between atoms: N_13  and  C_20
REMARK    9  A    between atoms: C_14  and  C_15
REMARK   10  A    between atoms: C_15  and  N_16
REMARK   11  A    between atoms: N_16  and  C_17
REMARK   12  A    between atoms: C_17  and  C_18
REMARK   13  A    between atoms: C_17  and  C_19
REMARK   14  A    between atoms: C_22  and  O_23
REMARK   15  A    between atoms: O_23  and  C_24
REMARK   16  A    between atoms: C_26  and  O_27
REMARK   17  A    between atoms: O_27  and  C_28
REMARK                            x       y       z     vdW  Elec       q    Type
REMARK                         _______ _______ _______ _____ _____    ______ ____
ROOT
ATOM      1  N   UNL     1       2.975   5.118  17.593  0.00  0.00    +0.000 N 
ENDROOT
BRANCH   1   8
ATOM      2  C   UNL     1       1.075  10.616  19.651  0.00  0.00    +0.000 A 
ATOM      3  C   UNL     1       0.865  10.094  20.871  0.00  0.00    +0.000 A 
ATOM      4  N   UNL     1       1.101   8.808  21.251  0.00  0.00    +0.000 NA
ATOM      5  C   UNL     1       1.544   7.999  20.342  0.00  0.00    +0.000 A 
ATOM      6  C   UNL     1       1.799   6.593  20.730  0.00  0.00    +0.000 A 
ATOM      7  C   UNL     1       2.242   5.725  19.817  0.00  0.00    +0.000 A 
ATOM      8  C   UNL     1       2.500   6.120  18.440  0.00  0.00    +0.000 A 
ATOM      9  C   UNL     1       2.265   7.404  18.113  0.00  0.00    +0.000 A 
ATOM     10  N   UNL     1       1.804   8.355  19.029  0.00  0.00    +0.000 N 
ATOM     11  C   UNL     1       1.621   9.674  18.614  0.00  0.00    +0.000 A 
ATOM     12  O   UNL     1       1.880  10.087  17.482  0.00  0.00    +0.000 OA
BRANCH   2  13
ATOM     13  O   UNL     1       0.833  11.925  19.270  0.00  0.00    +0.000 OA
BRANCH  13  14
ATOM     14  C   UNL     1      -0.521  12.363  19.378  0.00  0.00    +0.000 C 
BRANCH  14  15
ATOM     15  C   UNL     1      -1.282  12.064  18.097  0.00  0.00    +0.000 C 
BRANCH  15  17
ATOM     16  C   UNL     1      -1.952   9.989  17.210  0.00  0.00    +0.000 C 
ATOM     17  O   UNL     1      -2.058  10.884  18.306  0.00  0.00    +0.000 OA
ENDBRANCH  15  17
ENDBRANCH  14  15
ENDBRANCH  13  14
ENDBRANCH   2  13
ENDBRANCH   1   8
BRANCH   1  18
ATOM     18  C   UNL     1       4.378   5.013  17.283  0.00  0.00    +0.000 A 
ATOM     19  C   UNL     1       4.839   4.370  16.122  0.00  0.00    +0.000 A 
ATOM     20  C   UNL     1       6.201   4.352  15.795  0.00  0.00    +0.000 A 
ATOM     21  C   UNL     1       7.121   5.006  16.613  0.00  0.00    +0.000 A 
ATOM     22  C   UNL     1       6.700   5.616  17.792  0.00  0.00    +0.000 A 
ATOM     23  C   UNL     1       5.346   5.590  18.130  0.00  0.00    +0.000 A 
BRANCH  20  24
ATOM     24  O   UNL     1       6.522   3.710  14.628  0.00  0.00    +0.000 OA
ATOM     25  C   UNL     1       6.886   4.569  13.551  0.00  0.00    +0.000 C 
ENDBRANCH  20  24
BRANCH  22  26
ATOM     26  O   UNL     1       7.692   6.209  18.528  0.00  0.00    +0.000 OA
ATOM     27  C   UNL     1       7.972   5.640  19.803  0.00  0.00    +0.000 C 
ENDBRANCH  22  26
ENDBRANCH   1  18
BRANCH   1  28
ATOM     28  C   UNL     1       2.278   3.835  17.300  0.00  0.00    +0.000 C 
BRANCH  28  29
ATOM     29  C   UNL     1       2.805   2.540  17.943  0.00  0.00    +0.000 C 
BRANCH  29  30
ATOM     30  N   UNL     1       2.299   2.171  19.269  0.00  0.00    +0.000 NA
ATOM     31  H   UNL     1       2.317   1.154  19.355  0.00  0.00    +0.000 HD
BRANCH  30  32
ATOM     32  C   UNL     1       3.010   2.754  20.412  0.00  0.00    +0.000 C 
ATOM     33  C   UNL     1       2.326   2.487  21.756  0.00  0.00    +0.000 C 
ATOM     34  C   UNL     1       4.417   2.152  20.429  0.00  0.00    +0.000 C 
ENDBRANCH  30  32
ENDBRANCH  29  30
ENDBRANCH  28  29
ENDBRANCH   1  28
TORSDOF 12
ENDMDL
