MODEL 1
REMARK VINA RESULT:      -8.9      0.000      0.000
REMARK  Name = 
REMARK  5 active torsions:
REMARK  status: ('A' for Active; 'I' for Inactive)
REMARK    1  A    between atoms: C_2  and  C_14
REMARK    2  A    between atoms: N_3  and  C_4
REMARK    3  A    between atoms: C_8  and  C_9
REMARK    4  A    between atoms: C_18  and  C_19
REMARK    5  A    between atoms: C_25  and  C_26
REMARK                            x       y       z     vdW  Elec       q    Type
REMARK                         _______ _______ _______ _____ _____    ______ ____
ROOT
ATOM      1  C   UNL     1       2.717   6.493  19.101  0.00  0.00    +0.000 A 
ATOM      2  C   UNL     1       3.402   7.027  17.988  0.00  0.00    +0.000 A 
ATOM      3  C   UNL     1       4.054   5.974  17.409  0.00  0.00    +0.000 A 
ATOM      4  N   UNL     1       4.846   5.927  16.302  0.00  0.00    +0.000 NA
ATOM      5  C   UNL     1       5.241   4.750  15.909  0.00  0.00    +0.000 A 
ATOM      6  C   UNL     1       4.878   3.476  16.621  0.00  0.00    +0.000 A 
ATOM      7  C   UNL     1       4.131   3.582  17.736  0.00  0.00    +0.000 A 
ATOM      8  N   UNL     1       3.708   4.843  18.155  0.00  0.00    +0.000 N 
ATOM      9  N   UNL     1       2.942   5.175  19.236  0.00  0.00    +0.000 NA
ENDROOT
BRANCH   5  10
ATOM     10  C   UNL     1       6.062   4.662  14.719  0.00  0.00    +0.000 A 
ATOM     11  C   UNL     1       5.921   3.922  13.556  0.00  0.00    +0.000 A 
ATOM     12  C   UNL     1       7.039   4.224  12.743  0.00  0.00    +0.000 A 
ATOM     13  C   UNL     1       7.795   5.126  13.452  0.00  0.00    +0.000 A 
ATOM     14  O   UNL     1       7.210   5.399  14.646  0.00  0.00    +0.000 OA
ENDBRANCH   5  10
BRANCH   1  16
ATOM     15  O   UNL     1       1.397   6.768  20.991  0.00  0.00    +0.000 OA
ATOM     16  C   UNL     1       1.854   7.291  19.978  0.00  0.00    +0.000 C 
ATOM     17  N   UNL     1       1.587   8.583  19.554  0.00  0.00    +0.000 N 
ATOM     18  H   UNL     1       1.913   8.819  18.623  0.00  0.00    +0.000 HD
BRANCH  17  19
ATOM     19  C   UNL     1       0.786   9.507  20.267  0.00  0.00    +0.000 A 
ATOM     20  C   UNL     1       0.830   9.603  21.664  0.00  0.00    +0.000 A 
ATOM     21  C   UNL     1       0.013  10.491  22.359  0.00  0.00    +0.000 A 
ATOM     22  C   UNL     1      -0.869  11.304  21.662  0.00  0.00    +0.000 A 
ATOM     23  C   UNL     1      -0.935  11.239  20.262  0.00  0.00    +0.000 A 
ATOM     24  C   UNL     1      -0.084  10.350  19.568  0.00  0.00    +0.000 A 
BRANCH  23  25
ATOM     25  C   UNL     1      -1.927  12.096  19.515  0.00  0.00    +0.000 C 
ATOM     26  F   UNL     1      -1.351  12.917  18.592  0.00  0.00    +0.000 F 
ATOM     27  F   UNL     1      -2.845  11.358  18.833  0.00  0.00    +0.000 F 
ATOM     28  F   UNL     1      -2.639  12.910  20.342  0.00  0.00    +0.000 F 
ENDBRANCH  23  25
ENDBRANCH  17  19
ENDBRANCH   1  16
BRANCH   7  29
ATOM     29  C   UNL     1       3.652   2.409  18.522  0.00  0.00    +0.000 C 
ATOM     30  F   UNL     1       2.301   2.438  18.681  0.00  0.00    +0.000 F 
ATOM     31  F   UNL     1       3.903   1.250  17.845  0.00  0.00    +0.000 F 
ATOM     32 CL   UNL     1       4.441   2.280  20.107  0.00  0.00    +0.000 Cl
ENDBRANCH   7  29
TORSDOF 5
ENDMDL
MODEL 2
REMARK VINA RESULT:      -8.9      3.857      9.527
REMARK  Name = 
REMARK  5 active torsions:
REMARK  status: ('A' for Active; 'I' for Inactive)
REMARK    1  A    between atoms: C_2  and  C_14
REMARK    2  A    between atoms: N_3  and  C_4
REMARK    3  A    between atoms: C_8  and  C_9
REMARK    4  A    between atoms: C_18  and  C_19
REMARK    5  A    between atoms: C_25  and  C_26
REMARK                            x       y       z     vdW  Elec       q    Type
REMARK                         _______ _______ _______ _____ _____    ______ ____
ROOT
ATOM      1  C   UNL     1       4.401   4.975  17.554  0.00  0.00    +0.000 A 
ATOM      2  C   UNL     1       4.043   6.307  17.855  0.00  0.00    +0.000 A 
ATOM      3  C   UNL     1       3.118   6.228  18.859  0.00  0.00    +0.000 A 
ATOM      4  N   UNL     1       2.457   7.213  19.530  0.00  0.00    +0.000 NA
ATOM      5  C   UNL     1       1.715   6.846  20.534  0.00  0.00    +0.000 A 
ATOM      6  C   UNL     1       1.550   5.414  20.961  0.00  0.00    +0.000 A 
ATOM      7  C   UNL     1       2.189   4.475  20.236  0.00  0.00    +0.000 A 
ATOM      8  N   UNL     1       2.985   4.870  19.161  0.00  0.00    +0.000 N 
ATOM      9  N   UNL     1       3.722   4.097  18.311  0.00  0.00    +0.000 NA
ENDROOT
BRANCH   5  10
ATOM     10  C   UNL     1       1.020   7.870  21.286  0.00  0.00    +0.000 A 
ATOM     11  C   UNL     1      -0.325   8.183  21.390  0.00  0.00    +0.000 A 
ATOM     12  C   UNL     1      -0.420   9.297  22.259  0.00  0.00    +0.000 A 
ATOM     13  C   UNL     1       0.867   9.599  22.633  0.00  0.00    +0.000 A 
ATOM     14  O   UNL     1       1.744   8.740  22.054  0.00  0.00    +0.000 OA
ENDBRANCH   5  10
BRANCH   1  16
ATOM     15  O   UNL     1       6.522   4.266  16.932  0.00  0.00    +0.000 OA
ATOM     16  C   UNL     1       5.408   4.616  16.551  0.00  0.00    +0.000 C 
ATOM     17  N   UNL     1       5.020   4.748  15.227  0.00  0.00    +0.000 N 
ATOM     18  H   UNL     1       4.121   5.191  15.072  0.00  0.00    +0.000 HD
BRANCH  17  19
ATOM     19  C   UNL     1       5.846   4.441  14.119  0.00  0.00    +0.000 A 
ATOM     20  C   UNL     1       6.968   5.214  13.794  0.00  0.00    +0.000 A 
ATOM     21  C   UNL     1       7.755   4.924  12.682  0.00  0.00    +0.000 A 
ATOM     22  C   UNL     1       7.427   3.849  11.869  0.00  0.00    +0.000 A 
ATOM     23  C   UNL     1       6.314   3.050  12.168  0.00  0.00    +0.000 A 
ATOM     24  C   UNL     1       5.538   3.340  13.312  0.00  0.00    +0.000 A 
BRANCH  23  25
ATOM     25  C   UNL     1       5.941   1.908  11.254  0.00  0.00    +0.000 C 
ATOM     26  F   UNL     1       4.737   2.077  10.635  0.00  0.00    +0.000 F 
ATOM     27  F   UNL     1       6.847   1.719  10.257  0.00  0.00    +0.000 F 
ATOM     28  F   UNL     1       5.854   0.719  11.914  0.00  0.00    +0.000 F 
ENDBRANCH  23  25
ENDBRANCH  17  19
ENDBRANCH   1  16
BRANCH   7  29
ATOM     29  C   UNL     1       2.161   3.021  20.563  0.00  0.00    +0.000 C 
ATOM     30  F   UNL     1       1.693   2.287  19.518  0.00  0.00    +0.000 F 
ATOM     31  F   UNL     1       3.427   2.559  20.781  0.00  0.00    +0.000 F 
ATOM     32 CL   UNL     1       1.209   2.667  22.020  0.00  0.00    +0.000 Cl
ENDBRANCH   7  29
TORSDOF 5
ENDMDL
MODEL 3
REMARK VINA RESULT:      -8.9      3.560      9.526
REMARK  Name = 
REMARK  5 active torsions:
REMARK  status: ('A' for Active; 'I' for Inactive)
REMARK    1  A    between atoms: C_2  and  C_14
REMARK    2  A    between atoms: N_3  and  C_4
REMARK    3  A    between atoms: C_8  and  C_9
REMARK    4  A    between atoms: C_18  and  C_19
REMARK    5  A    between atoms: C_25  and  C_26
REMARK                            x       y       z     vdW  Elec       q    Type
REMARK                         _______ _______ _______ _____ _____    ______ ____
ROOT
ATOM      1  C   UNL     1       4.241   5.026  17.413  0.00  0.00    +0.000 A 
ATOM      2  C   UNL     1       3.923   6.397  17.532  0.00  0.00    +0.000 A 
ATOM      3  C   UNL     1       3.050   6.489  18.580  0.00  0.00    +0.000 A 
ATOM      4  N   UNL     1       2.443   7.577  19.130  0.00  0.00    +0.000 NA
ATOM      5  C   UNL     1       1.747   7.380  20.212  0.00  0.00    +0.000 A 
ATOM      6  C   UNL     1       1.578   6.029  20.852  0.00  0.00    +0.000 A 
ATOM      7  C   UNL     1       2.161   4.979  20.242  0.00  0.00    +0.000 A 
ATOM      8  N   UNL     1       2.908   5.193  19.084  0.00  0.00    +0.000 N 
ATOM      9  N   UNL     1       3.586   4.285  18.322  0.00  0.00    +0.000 NA
ENDROOT
BRANCH   5  10
ATOM     10  C   UNL     1       1.110   8.520  20.838  0.00  0.00    +0.000 A 
ATOM     11  C   UNL     1       0.927   8.856  22.169  0.00  0.00    +0.000 A 
ATOM     12  C   UNL     1       0.220  10.082  22.188  0.00  0.00    +0.000 A 
ATOM     13  C   UNL     1       0.014  10.423  20.873  0.00  0.00    +0.000 A 
ATOM     14  O   UNL     1       0.552   9.488  20.050  0.00  0.00    +0.000 OA
ENDBRANCH   5  10
BRANCH   1  16
ATOM     15  O   UNL     1       6.038   3.693  16.795  0.00  0.00    +0.000 OA
ATOM     16  C   UNL     1       5.188   4.499  16.425  0.00  0.00    +0.000 C 
ATOM     17  N   UNL     1       5.066   5.001  15.140  0.00  0.00    +0.000 N 
ATOM     18  H   UNL     1       4.416   5.771  15.025  0.00  0.00    +0.000 HD
BRANCH  17  19
ATOM     19  C   UNL     1       5.880   4.609  14.049  0.00  0.00    +0.000 A 
ATOM     20  C   UNL     1       7.036   5.316  13.694  0.00  0.00    +0.000 A 
ATOM     21  C   UNL     1       7.810   4.943  12.598  0.00  0.00    +0.000 A 
ATOM     22  C   UNL     1       7.438   3.847  11.834  0.00  0.00    +0.000 A 
ATOM     23  C   UNL     1       6.290   3.112  12.165  0.00  0.00    +0.000 A 
ATOM     24  C   UNL     1       5.525   3.487  13.292  0.00  0.00    +0.000 A 
BRANCH  23  25
ATOM     25  C   UNL     1       5.868   1.947  11.302  0.00  0.00    +0.000 C 
ATOM     26  F   UNL     1       5.789   0.767  11.981  0.00  0.00    +0.000 F 
ATOM     27  F   UNL     1       4.644   2.132  10.737  0.00  0.00    +0.000 F 
ATOM     28  F   UNL     1       6.728   1.724  10.270  0.00  0.00    +0.000 F 
ENDBRANCH  23  25
ENDBRANCH  17  19
ENDBRANCH   1  16
BRANCH   7  29
ATOM     29  C   UNL     1       2.124   3.590  20.781  0.00  0.00    +0.000 C 
ATOM     30  F   UNL     1       3.376   3.064  20.881  0.00  0.00    +0.000 F 
ATOM     31  F   UNL     1       1.637   3.587  22.056  0.00  0.00    +0.000 F 
ATOM     32 CL   UNL     1       1.095   2.511  19.818  0.00  0.00    +0.000 Cl
ENDBRANCH   7  29
TORSDOF 5
ENDMDL
MODEL 4
REMARK VINA RESULT:      -8.8      0.704      1.038
REMARK  Name = 
REMARK  5 active torsions:
REMARK  status: ('A' for Active; 'I' for Inactive)
REMARK    1  A    between atoms: C_2  and  C_14
REMARK    2  A    between atoms: N_3  and  C_4
REMARK    3  A    between atoms: C_8  and  C_9
REMARK    4  A    between atoms: C_18  and  C_19
REMARK    5  A    between atoms: C_25  and  C_26
REMARK                            x       y       z     vdW  Elec       q    Type
REMARK                         _______ _______ _______ _____ _____    ______ ____
ROOT
ATOM      1  C   UNL     1       2.762   6.535  18.963  0.00  0.00    +0.000 A 
ATOM      2  C   UNL     1       3.499   7.064  17.881  0.00  0.00    +0.000 A 
ATOM      3  C   UNL     1       4.111   5.996  17.286  0.00  0.00    +0.000 A 
ATOM      4  N   UNL     1       4.926   5.939  16.196  0.00  0.00    +0.000 NA
ATOM      5  C   UNL     1       5.270   4.756  15.778  0.00  0.00    +0.000 A 
ATOM      6  C   UNL     1       4.828   3.482  16.445  0.00  0.00    +0.000 A 
ATOM      7  C   UNL     1       4.061   3.595  17.546  0.00  0.00    +0.000 A 
ATOM      8  N   UNL     1       3.692   4.864  17.992  0.00  0.00    +0.000 N 
ATOM      9  N   UNL     1       2.918   5.204  19.064  0.00  0.00    +0.000 NA
ENDROOT
BRANCH   5  10
ATOM     10  C   UNL     1       6.114   4.659  14.605  0.00  0.00    +0.000 A 
ATOM     11  C   UNL     1       6.017   3.880  13.463  0.00  0.00    +0.000 A 
ATOM     12  C   UNL     1       7.139   4.194  12.659  0.00  0.00    +0.000 A 
ATOM     13  C   UNL     1       7.852   5.142  13.352  0.00  0.00    +0.000 A 
ATOM     14  O   UNL     1       7.239   5.432  14.527  0.00  0.00    +0.000 OA
ENDBRANCH   5  10
BRANCH   1  16
ATOM     15  O   UNL     1       1.536   6.869  20.906  0.00  0.00    +0.000 OA
ATOM     16  C   UNL     1       1.920   7.351  19.843  0.00  0.00    +0.000 C 
ATOM     17  N   UNL     1       1.586   8.609  19.367  0.00  0.00    +0.000 N 
ATOM     18  H   UNL     1       1.853   8.805  18.409  0.00  0.00    +0.000 HD
BRANCH  17  19
ATOM     19  C   UNL     1       0.792   9.545  20.074  0.00  0.00    +0.000 A 
ATOM     20  C   UNL     1       0.920   9.730  21.457  0.00  0.00    +0.000 A 
ATOM     21  C   UNL     1       0.110  10.628  22.149  0.00  0.00    +0.000 A 
ATOM     22  C   UNL     1      -0.848  11.359  21.463  0.00  0.00    +0.000 A 
ATOM     23  C   UNL     1      -1.000  11.203  20.077  0.00  0.00    +0.000 A 
ATOM     24  C   UNL     1      -0.157  10.306  19.384  0.00  0.00    +0.000 A 
BRANCH  23  25
ATOM     25  C   UNL     1      -2.074  11.971  19.347  0.00  0.00    +0.000 C 
ATOM     26  F   UNL     1      -2.809  11.201  18.494  0.00  0.00    +0.000 F 
ATOM     27  F   UNL     1      -2.970  12.548  20.192  0.00  0.00    +0.000 F 
ATOM     28  F   UNL     1      -1.568  12.982  18.588  0.00  0.00    +0.000 F 
ENDBRANCH  23  25
ENDBRANCH  17  19
ENDBRANCH   1  16
BRANCH   7  29
ATOM     29  C   UNL     1       3.505   2.427  18.286  0.00  0.00    +0.000 C 
ATOM     30  F   UNL     1       3.957   1.252  17.768  0.00  0.00    +0.000 F 
ATOM     31  F   UNL     1       3.941   2.433  19.580  0.00  0.00    +0.000 F 
ATOM     32 CL   UNL     1       1.730   2.423  18.325  0.00  0.00    +0.000 Cl
ENDBRANCH   7  29
TORSDOF 5
ENDMDL
MODEL 5
REMARK VINA RESULT:      -8.8      1.753      2.208
REMARK  Name = 
REMARK  5 active torsions:
REMARK  status: ('A' for Active; 'I' for Inactive)
REMARK    1  A    between atoms: C_2  and  C_14
REMARK    2  A    between atoms: N_3  and  C_4
REMARK    3  A    between atoms: C_8  and  C_9
REMARK    4  A    between atoms: C_18  and  C_19
REMARK    5  A    between atoms: C_25  and  C_26
REMARK                            x       y       z     vdW  Elec       q    Type
REMARK                         _______ _______ _______ _____ _____    ______ ____
ROOT
ATOM      1  C   UNL     1       2.339   7.540  19.060  0.00  0.00    +0.000 A 
ATOM      2  C   UNL     1       3.123   7.866  17.931  0.00  0.00    +0.000 A 
ATOM      3  C   UNL     1       3.702   6.695  17.528  0.00  0.00    +0.000 A 
ATOM      4  N   UNL     1       4.539   6.437  16.484  0.00  0.00    +0.000 NA
ATOM      5  C   UNL     1       4.841   5.191  16.264  0.00  0.00    +0.000 A 
ATOM      6  C   UNL     1       4.328   4.054  17.105  0.00  0.00    +0.000 A 
ATOM      7  C   UNL     1       3.540   4.368  18.152  0.00  0.00    +0.000 A 
ATOM      8  N   UNL     1       3.217   5.703  18.386  0.00  0.00    +0.000 N 
ATOM      9  N   UNL     1       2.434   6.236  19.369  0.00  0.00    +0.000 NA
ENDROOT
BRANCH   5  10
ATOM     10  C   UNL     1       5.706   4.880  15.145  0.00  0.00    +0.000 A 
ATOM     11  C   UNL     1       5.567   3.988  14.094  0.00  0.00    +0.000 A 
ATOM     12  C   UNL     1       6.739   4.099  13.307  0.00  0.00    +0.000 A 
ATOM     13  C   UNL     1       7.522   5.047  13.921  0.00  0.00    +0.000 A 
ATOM     14  O   UNL     1       6.905   5.527  15.029  0.00  0.00    +0.000 OA
ENDBRANCH   5  10
BRANCH   1  16
ATOM     15  O   UNL     1       1.450   8.448  21.003  0.00  0.00    +0.000 OA
ATOM     16  C   UNL     1       1.513   8.516  19.778  0.00  0.00    +0.000 C 
ATOM     17  N   UNL     1       0.824   9.424  18.990  0.00  0.00    +0.000 N 
ATOM     18  H   UNL     1       0.858   9.257  17.990  0.00  0.00    +0.000 HD
BRANCH  17  19
ATOM     19  C   UNL     1      -0.015  10.446  19.498  0.00  0.00    +0.000 A 
ATOM     20  C   UNL     1      -0.543  11.449  18.675  0.00  0.00    +0.000 A 
ATOM     21  C   UNL     1      -1.338  12.470  19.190  0.00  0.00    +0.000 A 
ATOM     22  C   UNL     1      -1.619  12.504  20.547  0.00  0.00    +0.000 A 
ATOM     23  C   UNL     1      -1.112  11.513  21.400  0.00  0.00    +0.000 A 
ATOM     24  C   UNL     1      -0.326  10.470  20.862  0.00  0.00    +0.000 A 
BRANCH  23  25
ATOM     25  C   UNL     1      -1.387  11.582  22.882  0.00  0.00    +0.000 C 
ATOM     26  F   UNL     1      -0.880  12.699  23.479  0.00  0.00    +0.000 F 
ATOM     27  F   UNL     1      -2.718  11.582  23.167  0.00  0.00    +0.000 F 
ATOM     28  F   UNL     1      -0.858  10.527  23.561  0.00  0.00    +0.000 F 
ENDBRANCH  23  25
ENDBRANCH  17  19
ENDBRANCH   1  16
BRANCH   7  29
ATOM     29  C   UNL     1       2.918   3.351  19.047  0.00  0.00    +0.000 C 
ATOM     30  F   UNL     1       3.283   3.543  20.344  0.00  0.00    +0.000 F 
ATOM     31  F   UNL     1       1.559   3.480  19.040  0.00  0.00    +0.000 F 
ATOM     32 CL   UNL     1       3.295   1.687  18.557  0.00  0.00    +0.000 Cl
ENDBRANCH   7  29
TORSDOF 5
ENDMDL
MODEL 6
REMARK VINA RESULT:      -8.8      3.645      9.537
REMARK  Name = 
REMARK  5 active torsions:
REMARK  status: ('A' for Active; 'I' for Inactive)
REMARK    1  A    between atoms: C_2  and  C_14
REMARK    2  A    between atoms: N_3  and  C_4
REMARK    3  A    between atoms: C_8  and  C_9
REMARK    4  A    between atoms: C_18  and  C_19
REMARK    5  A    between atoms: C_25  and  C_26
REMARK                            x       y       z     vdW  Elec       q    Type
REMARK                         _______ _______ _______ _____ _____    ______ ____
ROOT
ATOM      1  C   UNL     1       4.250   5.001  17.524  0.00  0.00    +0.000 A 
ATOM      2  C   UNL     1       4.063   6.334  17.950  0.00  0.00    +0.000 A 
ATOM      3  C   UNL     1       3.063   6.294  18.880  0.00  0.00    +0.000 A 
ATOM      4  N   UNL     1       2.499   7.293  19.615  0.00  0.00    +0.000 NA
ATOM      5  C   UNL     1       1.638   6.942  20.525  0.00  0.00    +0.000 A 
ATOM      6  C   UNL     1       1.238   5.514  20.779  0.00  0.00    +0.000 A 
ATOM      7  C   UNL     1       1.790   4.569  19.994  0.00  0.00    +0.000 A 
ATOM      8  N   UNL     1       2.714   4.947  19.020  0.00  0.00    +0.000 N 
ATOM      9  N   UNL     1       3.397   4.162  18.136  0.00  0.00    +0.000 NA
ENDROOT
BRANCH   5  10
ATOM     10  C   UNL     1       1.040   7.977  21.343  0.00  0.00    +0.000 A 
ATOM     11  C   UNL     1       1.601   9.018  22.065  0.00  0.00    +0.000 A 
ATOM     12  C   UNL     1       0.531   9.705  22.689  0.00  0.00    +0.000 A 
ATOM     13  C   UNL     1      -0.615   9.047  22.312  0.00  0.00    +0.000 A 
ATOM     14  O   UNL     1      -0.318   8.005  21.497  0.00  0.00    +0.000 OA
ENDBRANCH   5  10
BRANCH   1  16
ATOM     15  O   UNL     1       6.328   4.132  16.963  0.00  0.00    +0.000 OA
ATOM     16  C   UNL     1       5.269   4.599  16.550  0.00  0.00    +0.000 C 
ATOM     17  N   UNL     1       4.960   4.825  15.219  0.00  0.00    +0.000 N 
ATOM     18  H   UNL     1       4.112   5.355  15.046  0.00  0.00    +0.000 HD
BRANCH  17  19
ATOM     19  C   UNL     1       5.809   4.496  14.135  0.00  0.00    +0.000 A 
ATOM     20  C   UNL     1       6.952   5.248  13.834  0.00  0.00    +0.000 A 
ATOM     21  C   UNL     1       7.762   4.936  12.744  0.00  0.00    +0.000 A 
ATOM     22  C   UNL     1       7.438   3.861  11.931  0.00  0.00    +0.000 A 
ATOM     23  C   UNL     1       6.304   3.082  12.207  0.00  0.00    +0.000 A 
ATOM     24  C   UNL     1       5.503   3.394  13.328  0.00  0.00    +0.000 A 
BRANCH  23  25
ATOM     25  C   UNL     1       5.935   1.940  11.293  0.00  0.00    +0.000 C 
ATOM     26  F   UNL     1       6.822   1.749  10.274  0.00  0.00    +0.000 F 
ATOM     27  F   UNL     1       5.862   0.749  11.948  0.00  0.00    +0.000 F 
ATOM     28  F   UNL     1       4.722   2.117  10.699  0.00  0.00    +0.000 F 
ENDBRANCH  23  25
ENDBRANCH  17  19
ENDBRANCH   1  16
BRANCH   7  29
ATOM     29  C   UNL     1       1.530   3.110  20.155  0.00  0.00    +0.000 C 
ATOM     30  F   UNL     1       0.462   2.713  19.412  0.00  0.00    +0.000 F 
ATOM     31  F   UNL     1       2.583   2.385  19.676  0.00  0.00    +0.000 F 
ATOM     32 CL   UNL     1       1.291   2.642  21.850  0.00  0.00    +0.000 Cl
ENDBRANCH   7  29
TORSDOF 5
ENDMDL
MODEL 7
REMARK VINA RESULT:      -8.8      3.690      9.493
REMARK  Name = 
REMARK  5 active torsions:
REMARK  status: ('A' for Active; 'I' for Inactive)
REMARK    1  A    between atoms: C_2  and  C_14
REMARK    2  A    between atoms: N_3  and  C_4
REMARK    3  A    between atoms: C_8  and  C_9
REMARK    4  A    between atoms: C_18  and  C_19
REMARK    5  A    between atoms: C_25  and  C_26
REMARK                            x       y       z     vdW  Elec       q    Type
REMARK                         _______ _______ _______ _____ _____    ______ ____
ROOT
ATOM      1  C   UNL     1       2.286   8.065  18.587  0.00  0.00    +0.000 A 
ATOM      2  C   UNL     1       2.246   9.313  17.928  0.00  0.00    +0.000 A 
ATOM      3  C   UNL     1       1.438  10.112  18.687  0.00  0.00    +0.000 A 
ATOM      4  N   UNL     1       1.070  11.413  18.517  0.00  0.00    +0.000 NA
ATOM      5  C   UNL     1       0.380  11.961  19.474  0.00  0.00    +0.000 A 
ATOM      6  C   UNL     1      -0.032  11.228  20.721  0.00  0.00    +0.000 A 
ATOM      7  C   UNL     1       0.318   9.930  20.819  0.00  0.00    +0.000 A 
ATOM      8  N   UNL     1       1.059   9.346  19.793  0.00  0.00    +0.000 N 
ATOM      9  N   UNL     1       1.525   8.066  19.694  0.00  0.00    +0.000 NA
ENDROOT
BRANCH   5  10
ATOM     10  C   UNL     1      -0.003  13.351  19.338  0.00  0.00    +0.000 A 
ATOM     11  C   UNL     1       0.233  14.277  18.335  0.00  0.00    +0.000 A 
ATOM     12  C   UNL     1      -0.368  15.490  18.750  0.00  0.00    +0.000 A 
ATOM     13  C   UNL     1      -0.934  15.235  19.975  0.00  0.00    +0.000 A 
ATOM     14  O   UNL     1      -0.722  13.945  20.338  0.00  0.00    +0.000 OA
ENDBRANCH   5  10
BRANCH   1  16
ATOM     15  O   UNL     1       2.543   5.830  18.014  0.00  0.00    +0.000 OA
ATOM     16  C   UNL     1       3.084   6.928  18.118  0.00  0.00    +0.000 C 
ATOM     17  N   UNL     1       4.422   7.188  17.868  0.00  0.00    +0.000 N 
ATOM     18  H   UNL     1       4.753   8.106  18.144  0.00  0.00    +0.000 HD
BRANCH  17  19
ATOM     19  C   UNL     1       5.348   6.225  17.399  0.00  0.00    +0.000 A 
ATOM     20  C   UNL     1       6.367   5.719  18.216  0.00  0.00    +0.000 A 
ATOM     21  C   UNL     1       7.295   4.797  17.735  0.00  0.00    +0.000 A 
ATOM     22  C   UNL     1       7.217   4.365  16.420  0.00  0.00    +0.000 A 
ATOM     23  C   UNL     1       6.205   4.846  15.576  0.00  0.00    +0.000 A 
ATOM     24  C   UNL     1       5.257   5.763  16.082  0.00  0.00    +0.000 A 
BRANCH  23  25
ATOM     25  C   UNL     1       6.154   4.403  14.134  0.00  0.00    +0.000 C 
ATOM     26  F   UNL     1       7.050   5.048  13.334  0.00  0.00    +0.000 F 
ATOM     27  F   UNL     1       6.414   3.075  13.987  0.00  0.00    +0.000 F 
ATOM     28  F   UNL     1       4.933   4.612  13.567  0.00  0.00    +0.000 F 
ENDBRANCH  23  25
ENDBRANCH  17  19
ENDBRANCH   1  16
BRANCH   7  29
ATOM     29  C   UNL     1       0.025   9.086  22.013  0.00  0.00    +0.000 C 
ATOM     30  F   UNL     1      -0.753   8.018  21.685  0.00  0.00    +0.000 F 
ATOM     31  F   UNL     1       1.177   8.547  22.507  0.00  0.00    +0.000 F 
ATOM     32 CL   UNL     1      -0.738  10.003  23.327  0.00  0.00    +0.000 Cl
ENDBRANCH   7  29
TORSDOF 5
ENDMDL
MODEL 8
REMARK VINA RESULT:      -8.7      1.322      1.655
REMARK  Name = 
REMARK  5 active torsions:
REMARK  status: ('A' for Active; 'I' for Inactive)
REMARK    1  A    between atoms: C_2  and  C_14
REMARK    2  A    between atoms: N_3  and  C_4
REMARK    3  A    between atoms: C_8  and  C_9
REMARK    4  A    between atoms: C_18  and  C_19
REMARK    5  A    between atoms: C_25  and  C_26
REMARK                            x       y       z     vdW  Elec       q    Type
REMARK                         _______ _______ _______ _____ _____    ______ ____
ROOT
ATOM      1  C   UNL     1       2.656   7.336  18.593  0.00  0.00    +0.000 A 
ATOM      2  C   UNL     1       3.416   7.701  17.459  0.00  0.00    +0.000 A 
ATOM      3  C   UNL     1       4.055   6.563  17.054  0.00  0.00    +0.000 A 
ATOM      4  N   UNL     1       4.899   6.349  16.007  0.00  0.00    +0.000 NA
ATOM      5  C   UNL     1       5.267   5.120  15.787  0.00  0.00    +0.000 A 
ATOM      6  C   UNL     1       4.820   3.959  16.633  0.00  0.00    +0.000 A 
ATOM      7  C   UNL     1       4.023   4.231  17.684  0.00  0.00    +0.000 A 
ATOM      8  N   UNL     1       3.629   5.548  17.917  0.00  0.00    +0.000 N 
ATOM      9  N   UNL     1       2.823   6.040  18.904  0.00  0.00    +0.000 NA
ENDROOT
BRANCH   5  10
ATOM     10  C   UNL     1       6.142   4.854  14.665  0.00  0.00    +0.000 A 
ATOM     11  C   UNL     1       6.039   3.964  13.608  0.00  0.00    +0.000 A 
ATOM     12  C   UNL     1       7.203   4.130  12.819  0.00  0.00    +0.000 A 
ATOM     13  C   UNL     1       7.945   5.108  13.437  0.00  0.00    +0.000 A 
ATOM     14  O   UNL     1       7.311   5.554  14.550  0.00  0.00    +0.000 OA
ENDBRANCH   5  10
BRANCH   1  16
ATOM     15  O   UNL     1       1.642   8.126  20.526  0.00  0.00    +0.000 OA
ATOM     16  C   UNL     1       1.782   8.267  19.313  0.00  0.00    +0.000 C 
ATOM     17  N   UNL     1       1.141   9.221  18.539  0.00  0.00    +0.000 N 
ATOM     18  H   UNL     1       1.240   9.115  17.535  0.00  0.00    +0.000 HD
BRANCH  17  19
ATOM     19  C   UNL     1       0.268  10.211  19.052  0.00  0.00    +0.000 A 
ATOM     20  C   UNL     1       0.621  11.016  20.143  0.00  0.00    +0.000 A 
ATOM     21  C   UNL     1      -0.259  11.963  20.663  0.00  0.00    +0.000 A 
ATOM     22  C   UNL     1      -1.514  12.120  20.095  0.00  0.00    +0.000 A 
ATOM     23  C   UNL     1      -1.898  11.335  18.998  0.00  0.00    +0.000 A 
ATOM     24  C   UNL     1      -0.988  10.394  18.465  0.00  0.00    +0.000 A 
BRANCH  23  25
ATOM     25  C   UNL     1      -3.281  11.483  18.413  0.00  0.00    +0.000 C 
ATOM     26  F   UNL     1      -3.983  10.314  18.372  0.00  0.00    +0.000 F 
ATOM     27  F   UNL     1      -4.055  12.355  19.116  0.00  0.00    +0.000 F 
ATOM     28  F   UNL     1      -3.260  11.947  17.133  0.00  0.00    +0.000 F 
ENDBRANCH  23  25
ENDBRANCH  17  19
ENDBRANCH   1  16
BRANCH   7  29
ATOM     29  C   UNL     1       3.460   3.184  18.584  0.00  0.00    +0.000 C 
ATOM     30  F   UNL     1       4.009   1.965  18.328  0.00  0.00    +0.000 F 
ATOM     31  F   UNL     1       3.781   3.451  19.883  0.00  0.00    +0.000 F 
ATOM     32 CL   UNL     1       1.691   3.078  18.486  0.00  0.00    +0.000 Cl
ENDBRANCH   7  29
TORSDOF 5
ENDMDL
MODEL 9
REMARK VINA RESULT:      -8.7      1.493      1.656
REMARK  Name = 
REMARK  5 active torsions:
REMARK  status: ('A' for Active; 'I' for Inactive)
REMARK    1  A    between atoms: C_2  and  C_14
REMARK    2  A    between atoms: N_3  and  C_4
REMARK    3  A    between atoms: C_8  and  C_9
REMARK    4  A    between atoms: C_18  and  C_19
REMARK    5  A    between atoms: C_25  and  C_26
REMARK                            x       y       z     vdW  Elec       q    Type
REMARK                         _______ _______ _______ _____ _____    ______ ____
ROOT
ATOM      1  C   UNL     1       2.582   7.497  18.521  0.00  0.00    +0.000 A 
ATOM      2  C   UNL     1       3.343   7.821  17.376  0.00  0.00    +0.000 A 
ATOM      3  C   UNL     1       3.999   6.674  17.027  0.00  0.00    +0.000 A 
ATOM      4  N   UNL     1       4.853   6.424  15.995  0.00  0.00    +0.000 NA
ATOM      5  C   UNL     1       5.238   5.191  15.833  0.00  0.00    +0.000 A 
ATOM      6  C   UNL     1       4.802   4.064  16.728  0.00  0.00    +0.000 A 
ATOM      7  C   UNL     1       3.994   4.373  17.761  0.00  0.00    +0.000 A 
ATOM      8  N   UNL     1       3.582   5.693  17.932  0.00  0.00    +0.000 N 
ATOM      9  N   UNL     1       2.764   6.219  18.891  0.00  0.00    +0.000 NA
ENDROOT
BRANCH   5  10
ATOM     10  C   UNL     1       6.123   4.886  14.728  0.00  0.00    +0.000 A 
ATOM     11  C   UNL     1       6.033   3.957  13.705  0.00  0.00    +0.000 A 
ATOM     12  C   UNL     1       7.203   4.098  12.920  0.00  0.00    +0.000 A 
ATOM     13  C   UNL     1       7.935   5.102  13.506  0.00  0.00    +0.000 A 
ATOM     14  O   UNL     1       7.290   5.587  14.596  0.00  0.00    +0.000 OA
ENDBRANCH   5  10
BRANCH   1  16
ATOM     15  O   UNL     1       1.555   8.368  20.412  0.00  0.00    +0.000 OA
ATOM     16  C   UNL     1       1.691   8.448  19.194  0.00  0.00    +0.000 C 
ATOM     17  N   UNL     1       1.031   9.347  18.372  0.00  0.00    +0.000 N 
ATOM     18  H   UNL     1       1.130   9.190  17.375  0.00  0.00    +0.000 HD
BRANCH  17  19
ATOM     19  C   UNL     1       0.140  10.346  18.835  0.00  0.00    +0.000 A 
ATOM     20  C   UNL     1       0.519  11.287  19.800  0.00  0.00    +0.000 A 
ATOM     21  C   UNL     1      -0.375  12.244  20.275  0.00  0.00    +0.000 A 
ATOM     22  C   UNL     1      -1.673  12.273  19.788  0.00  0.00    +0.000 A 
ATOM     23  C   UNL     1      -2.086  11.349  18.816  0.00  0.00    +0.000 A 
ATOM     24  C   UNL     1      -1.162  10.399  18.326  0.00  0.00    +0.000 A 
BRANCH  23  25
ATOM     25  C   UNL     1      -3.512  11.361  18.323  0.00  0.00    +0.000 C 
ATOM     26  F   UNL     1      -3.665  11.973  17.113  0.00  0.00    +0.000 F 
ATOM     27  F   UNL     1      -4.023  10.109  18.172  0.00  0.00    +0.000 F 
ATOM     28  F   UNL     1      -4.353  12.010  19.175  0.00  0.00    +0.000 F 
ENDBRANCH  23  25
ENDBRANCH  17  19
ENDBRANCH   1  16
BRANCH   7  29
ATOM     29  C   UNL     1       3.440   3.360  18.704  0.00  0.00    +0.000 C 
ATOM     30  F   UNL     1       3.997   3.478  19.940  0.00  0.00    +0.000 F 
ATOM     31  F   UNL     1       2.105   3.569  18.896  0.00  0.00    +0.000 F 
ATOM     32 CL   UNL     1       3.636   1.697  18.114  0.00  0.00    +0.000 Cl
ENDBRANCH   7  29
TORSDOF 5
ENDMDL
