MODEL 1
REMARK VINA RESULT:      -6.6      0.000      0.000
REMARK  Name = 
REMARK  5 active torsions:
REMARK  status: ('A' for Active; 'I' for Inactive)
REMARK    1  A    between atoms: C_1  and  C_2
REMARK    2  A    between atoms: C_2  and  C_3
REMARK    3  A    between atoms: C_8  and  O_9
REMARK    4  A    between atoms: O_9  and  C_10
REMARK    5  A    between atoms: C_13  and  C_15
REMARK                            x       y       z     vdW  Elec       q    Type
REMARK                         _______ _______ _______ _____ _____    ______ ____
ROOT
ATOM      1  C   UNL     1       4.579   6.849  17.336  0.00  0.00    +0.000 C 
ATOM      2  C   UNL     1       5.911   6.207  17.768  0.00  0.00    +0.000 C 
ATOM      3  N   UNL     1       6.185   5.955  16.356  0.00  0.00    +0.000 N 
ATOM      4  C   UNL     1       7.065   5.001  15.866  0.00  0.00    +0.000 C 
ATOM      5  O   UNL     1       7.829   4.421  16.645  0.00  0.00    +0.000 OA
ATOM      6  C   UNL     1       4.821   6.257  15.936  0.00  0.00    +0.000 C 
ENDROOT
BRANCH   4   7
ATOM      7  C   UNL     1       7.060   4.782  14.427  0.00  0.00    +0.000 A 
ATOM      8  C   UNL     1       7.830   5.362  13.435  0.00  0.00    +0.000 A 
ATOM      9  C   UNL     1       7.551   4.841  12.138  0.00  0.00    +0.000 A 
ATOM     10  C   UNL     1       6.584   3.864  12.175  0.00  0.00    +0.000 A 
ATOM     11  S   UNL     1       6.016   3.587  13.764  0.00  0.00    +0.000 S 
ENDBRANCH   4   7
BRANCH   1  12
ATOM     12  O   UNL     1       3.372   6.397  18.004  0.00  0.00    +0.000 OA
BRANCH  12  18
ATOM     13  C   UNL     1       2.127   7.038  19.950  0.00  0.00    +0.000 A 
ATOM     14  C   UNL     1       1.283   7.981  20.575  0.00  0.00    +0.000 A 
ATOM     15  C   UNL     1       0.951   9.188  19.960  0.00  0.00    +0.000 A 
ATOM     16  C   UNL     1       1.469   9.486  18.708  0.00  0.00    +0.000 A 
ATOM     17  C   UNL     1       2.302   8.569  18.068  0.00  0.00    +0.000 A 
ATOM     18  C   UNL     1       2.606   7.334  18.661  0.00  0.00    +0.000 A 
BRANCH  13  20
ATOM     19  C   UNL     1       1.316   4.629  20.560  0.00  0.00    +0.000 C 
ATOM     20  C   UNL     1       2.347   5.740  20.702  0.00  0.00    +0.000 C 
ENDBRANCH  13  20
ENDBRANCH  12  18
ENDBRANCH   1  12
TORSDOF 4
ENDMDL
MODEL 2
REMARK VINA RESULT:      -6.6      2.803      7.774
REMARK  Name = 
REMARK  5 active torsions:
REMARK  status: ('A' for Active; 'I' for Inactive)
REMARK    1  A    between atoms: C_1  and  C_2
REMARK    2  A    between atoms: C_2  and  C_3
REMARK    3  A    between atoms: C_8  and  O_9
REMARK    4  A    between atoms: O_9  and  C_10
REMARK    5  A    between atoms: C_13  and  C_15
REMARK                            x       y       z     vdW  Elec       q    Type
REMARK                         _______ _______ _______ _____ _____    ______ ____
ROOT
ATOM      1  C   UNL     1       5.467   4.254  16.333  0.00  0.00    +0.000 C 
ATOM      2  C   UNL     1       4.674   5.553  16.568  0.00  0.00    +0.000 C 
ATOM      3  N   UNL     1       4.077   4.914  17.737  0.00  0.00    +0.000 N 
ATOM      4  C   UNL     1       2.883   5.287  18.335  0.00  0.00    +0.000 C 
ATOM      5  O   UNL     1       2.338   6.345  17.998  0.00  0.00    +0.000 OA
ATOM      6  C   UNL     1       4.553   3.584  17.376  0.00  0.00    +0.000 C 
ENDROOT
BRANCH   4   7
ATOM      7  C   UNL     1       2.367   4.411  19.376  0.00  0.00    +0.000 A 
ATOM      8  C   UNL     1       2.538   4.461  20.748  0.00  0.00    +0.000 A 
ATOM      9  C   UNL     1       1.827   3.435  21.435  0.00  0.00    +0.000 A 
ATOM     10  C   UNL     1       1.117   2.635  20.570  0.00  0.00    +0.000 A 
ATOM     11  S   UNL     1       1.317   3.119  18.942  0.00  0.00    +0.000 S 
ENDBRANCH   4   7
BRANCH   1  12
ATOM     12  O   UNL     1       5.423   3.676  15.002  0.00  0.00    +0.000 OA
BRANCH  12  18
ATOM     13  C   UNL     1       6.100   3.785  12.705  0.00  0.00    +0.000 A 
ATOM     14  C   UNL     1       7.011   4.281  11.747  0.00  0.00    +0.000 A 
ATOM     15  C   UNL     1       8.017   5.183  12.091  0.00  0.00    +0.000 A 
ATOM     16  C   UNL     1       8.127   5.622  13.402  0.00  0.00    +0.000 A 
ATOM     17  C   UNL     1       7.242   5.144  14.369  0.00  0.00    +0.000 A 
ATOM     18  C   UNL     1       6.254   4.203  14.040  0.00  0.00    +0.000 A 
BRANCH  13  20
ATOM     19  C   UNL     1       4.057   3.188  11.190  0.00  0.00    +0.000 C 
ATOM     20  C   UNL     1       5.104   2.758  12.207  0.00  0.00    +0.000 C 
ENDBRANCH  13  20
ENDBRANCH  12  18
ENDBRANCH   1  12
TORSDOF 4
ENDMDL
MODEL 3
REMARK VINA RESULT:      -6.4      4.134      8.355
REMARK  Name = 
REMARK  5 active torsions:
REMARK  status: ('A' for Active; 'I' for Inactive)
REMARK    1  A    between atoms: C_1  and  C_2
REMARK    2  A    between atoms: C_2  and  C_3
REMARK    3  A    between atoms: C_8  and  O_9
REMARK    4  A    between atoms: O_9  and  C_10
REMARK    5  A    between atoms: C_13  and  C_15
REMARK                            x       y       z     vdW  Elec       q    Type
REMARK                         _______ _______ _______ _____ _____    ______ ____
ROOT
ATOM      1  C   UNL     1       2.504   7.852  18.624  0.00  0.00    +0.000 C 
ATOM      2  C   UNL     1       1.642   8.892  17.883  0.00  0.00    +0.000 C 
ATOM      3  N   UNL     1       1.190   9.367  19.187  0.00  0.00    +0.000 N 
ATOM      4  C   UNL     1       0.025  10.082  19.422  0.00  0.00    +0.000 C 
ATOM      5  O   UNL     1      -0.620  10.527  18.465  0.00  0.00    +0.000 OA
ATOM      6  C   UNL     1       1.729   8.217  19.904  0.00  0.00    +0.000 C 
ENDROOT
BRANCH   4   7
ATOM      7  C   UNL     1      -0.340  10.305  20.813  0.00  0.00    +0.000 A 
ATOM      8  C   UNL     1      -0.310   9.439  21.892  0.00  0.00    +0.000 A 
ATOM      9  C   UNL     1      -0.710  10.058  23.112  0.00  0.00    +0.000 A 
ATOM     10  C   UNL     1      -1.022  11.386  22.936  0.00  0.00    +0.000 A 
ATOM     11  S   UNL     1      -0.839  11.875  21.308  0.00  0.00    +0.000 S 
ENDBRANCH   4   7
BRANCH   1  12
ATOM     12  O   UNL     1       2.393   6.468  18.201  0.00  0.00    +0.000 OA
BRANCH  12  18
ATOM     13  C   UNL     1       3.485   4.504  17.368  0.00  0.00    +0.000 A 
ATOM     14  C   UNL     1       4.634   3.929  16.783  0.00  0.00    +0.000 A 
ATOM     15  C   UNL     1       5.720   4.707  16.382  0.00  0.00    +0.000 A 
ATOM     16  C   UNL     1       5.674   6.084  16.544  0.00  0.00    +0.000 A 
ATOM     17  C   UNL     1       4.551   6.676  17.122  0.00  0.00    +0.000 A 
ATOM     18  C   UNL     1       3.474   5.896  17.568  0.00  0.00    +0.000 A 
BRANCH  13  20
ATOM     19  C   UNL     1       2.704   2.041  17.762  0.00  0.00    +0.000 C 
ATOM     20  C   UNL     1       2.412   3.534  17.820  0.00  0.00    +0.000 C 
ENDBRANCH  13  20
ENDBRANCH  12  18
ENDBRANCH   1  12
TORSDOF 4
ENDMDL
MODEL 4
REMARK VINA RESULT:      -6.4      4.614      8.046
REMARK  Name = 
REMARK  5 active torsions:
REMARK  status: ('A' for Active; 'I' for Inactive)
REMARK    1  A    between atoms: C_1  and  C_2
REMARK    2  A    between atoms: C_2  and  C_3
REMARK    3  A    between atoms: C_8  and  O_9
REMARK    4  A    between atoms: O_9  and  C_10
REMARK    5  A    between atoms: C_13  and  C_15
REMARK                            x       y       z     vdW  Elec       q    Type
REMARK                         _______ _______ _______ _____ _____    ______ ____
ROOT
ATOM      1  C   UNL     1       2.772   7.112  18.731  0.00  0.00    +0.000 C 
ATOM      2  C   UNL     1       2.118   8.255  17.933  0.00  0.00    +0.000 C 
ATOM      3  N   UNL     1       1.608   8.775  19.197  0.00  0.00    +0.000 N 
ATOM      4  C   UNL     1       0.523   9.627  19.337  0.00  0.00    +0.000 C 
ATOM      5  O   UNL     1       0.031  10.155  18.333  0.00  0.00    +0.000 OA
ATOM      6  C   UNL     1       1.932   7.562  19.940  0.00  0.00    +0.000 C 
ENDROOT
BRANCH   4   7
ATOM      7  C   UNL     1       0.060   9.885  20.693  0.00  0.00    +0.000 A 
ATOM      8  C   UNL     1      -0.171   9.008  21.737  0.00  0.00    +0.000 A 
ATOM      9  C   UNL     1      -0.583   9.664  22.934  0.00  0.00    +0.000 A 
ATOM     10  C   UNL     1      -0.641  11.029  22.777  0.00  0.00    +0.000 A 
ATOM     11  S   UNL     1      -0.208  11.509  21.193  0.00  0.00    +0.000 S 
ENDBRANCH   4   7
BRANCH   1  12
ATOM     12  O   UNL     1       2.531   5.755  18.274  0.00  0.00    +0.000 OA
BRANCH  12  18
ATOM     13  C   UNL     1       3.636   3.993  19.465  0.00  0.00    +0.000 A 
ATOM     14  C   UNL     1       3.542   2.924  20.383  0.00  0.00    +0.000 A 
ATOM     15  C   UNL     1       2.354   2.639  21.056  0.00  0.00    +0.000 A 
ATOM     16  C   UNL     1       1.235   3.428  20.837  0.00  0.00    +0.000 A 
ATOM     17  C   UNL     1       1.301   4.488  19.932  0.00  0.00    +0.000 A 
ATOM     18  C   UNL     1       2.480   4.754  19.218  0.00  0.00    +0.000 A 
BRANCH  13  20
ATOM     19  C   UNL     1       5.936   5.212  19.236  0.00  0.00    +0.000 C 
ATOM     20  C   UNL     1       4.966   4.144  18.754  0.00  0.00    +0.000 C 
ENDBRANCH  13  20
ENDBRANCH  12  18
ENDBRANCH   1  12
TORSDOF 4
ENDMDL
MODEL 5
REMARK VINA RESULT:      -6.3      4.574      8.223
REMARK  Name = 
REMARK  5 active torsions:
REMARK  status: ('A' for Active; 'I' for Inactive)
REMARK    1  A    between atoms: C_1  and  C_2
REMARK    2  A    between atoms: C_2  and  C_3
REMARK    3  A    between atoms: C_8  and  O_9
REMARK    4  A    between atoms: O_9  and  C_10
REMARK    5  A    between atoms: C_13  and  C_15
REMARK                            x       y       z     vdW  Elec       q    Type
REMARK                         _______ _______ _______ _____ _____    ______ ____
ROOT
ATOM      1  C   UNL     1       2.401   7.977  18.421  0.00  0.00    +0.000 C 
ATOM      2  C   UNL     1       1.542   9.082  17.778  0.00  0.00    +0.000 C 
ATOM      3  N   UNL     1       1.116   9.459  19.122  0.00  0.00    +0.000 N 
ATOM      4  C   UNL     1      -0.036  10.167  19.430  0.00  0.00    +0.000 C 
ATOM      5  O   UNL     1      -0.689  10.693  18.521  0.00  0.00    +0.000 OA
ATOM      6  C   UNL     1       1.650   8.250  19.738  0.00  0.00    +0.000 C 
ENDROOT
BRANCH   4   7
ATOM      7  C   UNL     1      -0.378  10.285  20.840  0.00  0.00    +0.000 A 
ATOM      8  C   UNL     1      -0.231   9.374  21.872  0.00  0.00    +0.000 A 
ATOM      9  C   UNL     1      -0.650   9.890  23.132  0.00  0.00    +0.000 A 
ATOM     10  C   UNL     1      -1.093  11.188  23.034  0.00  0.00    +0.000 A 
ATOM     11  S   UNL     1      -1.008  11.773  21.429  0.00  0.00    +0.000 S 
ENDBRANCH   4   7
BRANCH   1  12
ATOM     12  O   UNL     1       2.265   6.632  17.893  0.00  0.00    +0.000 OA
BRANCH  12  18
ATOM     13  C   UNL     1       2.773   4.584  19.030  0.00  0.00    +0.000 A 
ATOM     14  C   UNL     1       3.755   3.669  19.470  0.00  0.00    +0.000 A 
ATOM     15  C   UNL     1       5.102   3.828  19.145  0.00  0.00    +0.000 A 
ATOM     16  C   UNL     1       5.497   4.900  18.358  0.00  0.00    +0.000 A 
ATOM     17  C   UNL     1       4.546   5.819  17.913  0.00  0.00    +0.000 A 
ATOM     18  C   UNL     1       3.196   5.691  18.272  0.00  0.00    +0.000 A 
BRANCH  13  20
ATOM     19  C   UNL     1       1.153   3.397  20.701  0.00  0.00    +0.000 C 
ATOM     20  C   UNL     1       1.361   4.328  19.516  0.00  0.00    +0.000 C 
ENDBRANCH  13  20
ENDBRANCH  12  18
ENDBRANCH   1  12
TORSDOF 4
ENDMDL
MODEL 6
REMARK VINA RESULT:      -6.2      2.416      3.942
REMARK  Name = 
REMARK  5 active torsions:
REMARK  status: ('A' for Active; 'I' for Inactive)
REMARK    1  A    between atoms: C_1  and  C_2
REMARK    2  A    between atoms: C_2  and  C_3
REMARK    3  A    between atoms: C_8  and  O_9
REMARK    4  A    between atoms: O_9  and  C_10
REMARK    5  A    between atoms: C_13  and  C_15
REMARK                            x       y       z     vdW  Elec       q    Type
REMARK                         _______ _______ _______ _____ _____    ______ ____
ROOT
ATOM      1  C   UNL     1       2.557   7.142  19.466  0.00  0.00    +0.000 C 
ATOM      2  C   UNL     1       2.067   5.713  19.163  0.00  0.00    +0.000 C 
ATOM      3  N   UNL     1       3.340   5.478  18.489  0.00  0.00    +0.000 N 
ATOM      4  C   UNL     1       3.574   4.498  17.535  0.00  0.00    +0.000 C 
ATOM      5  O   UNL     1       2.724   3.622  17.340  0.00  0.00    +0.000 OA
ATOM      6  C   UNL     1       3.706   6.889  18.473  0.00  0.00    +0.000 C 
ENDROOT
BRANCH   4   7
ATOM      7  C   UNL     1       4.857   4.543  16.849  0.00  0.00    +0.000 A 
ATOM      8  C   UNL     1       5.143   4.669  15.502  0.00  0.00    +0.000 A 
ATOM      9  C   UNL     1       6.542   4.716  15.232  0.00  0.00    +0.000 A 
ATOM     10  C   UNL     1       7.290   4.639  16.384  0.00  0.00    +0.000 A 
ATOM     11  S   UNL     1       6.306   4.504  17.776  0.00  0.00    +0.000 S 
ENDBRANCH   4   7
BRANCH   1  12
ATOM     12  O   UNL     1       1.669   8.239  19.126  0.00  0.00    +0.000 OA
BRANCH  12  18
ATOM     13  C   UNL     1       0.150   9.949  19.842  0.00  0.00    +0.000 A 
ATOM     14  C   UNL     1      -0.437  10.659  20.913  0.00  0.00    +0.000 A 
ATOM     15  C   UNL     1      -0.184  10.321  22.242  0.00  0.00    +0.000 A 
ATOM     16  C   UNL     1       0.651   9.252  22.531  0.00  0.00    +0.000 A 
ATOM     17  C   UNL     1       1.245   8.536  21.492  0.00  0.00    +0.000 A 
ATOM     18  C   UNL     1       1.032   8.898  20.153  0.00  0.00    +0.000 A 
BRANCH  13  20
ATOM     19  C   UNL     1      -1.491  10.116  17.816  0.00  0.00    +0.000 C 
ATOM     20  C   UNL     1      -0.155  10.470  18.452  0.00  0.00    +0.000 C 
ENDBRANCH  13  20
ENDBRANCH  12  18
ENDBRANCH   1  12
TORSDOF 4
ENDMDL
MODEL 7
REMARK VINA RESULT:      -6.2      3.416      7.827
REMARK  Name = 
REMARK  5 active torsions:
REMARK  status: ('A' for Active; 'I' for Inactive)
REMARK    1  A    between atoms: C_1  and  C_2
REMARK    2  A    between atoms: C_2  and  C_3
REMARK    3  A    between atoms: C_8  and  O_9
REMARK    4  A    between atoms: O_9  and  C_10
REMARK    5  A    between atoms: C_13  and  C_15
REMARK                            x       y       z     vdW  Elec       q    Type
REMARK                         _______ _______ _______ _____ _____    ______ ____
ROOT
ATOM      1  C   UNL     1       3.159   6.665  18.332  0.00  0.00    +0.000 C 
ATOM      2  C   UNL     1       2.538   6.604  19.741  0.00  0.00    +0.000 C 
ATOM      3  N   UNL     1       1.771   7.797  19.396  0.00  0.00    +0.000 N 
ATOM      4  C   UNL     1       1.211   8.683  20.305  0.00  0.00    +0.000 C 
ATOM      5  O   UNL     1       1.181   8.386  21.505  0.00  0.00    +0.000 OA
ATOM      6  C   UNL     1       2.553   8.075  18.197  0.00  0.00    +0.000 C 
ENDROOT
BRANCH   4   7
ATOM      7  C   UNL     1       0.642   9.908  19.763  0.00  0.00    +0.000 A 
ATOM      8  C   UNL     1      -0.262  10.090  18.732  0.00  0.00    +0.000 A 
ATOM      9  C   UNL     1      -0.609  11.457  18.532  0.00  0.00    +0.000 A 
ATOM     10  C   UNL     1       0.028  12.285  19.426  0.00  0.00    +0.000 A 
ATOM     11  S   UNL     1       1.042  11.413  20.493  0.00  0.00    +0.000 S 
ENDBRANCH   4   7
BRANCH   1  12
ATOM     12  O   UNL     1       4.605   6.596  18.236  0.00  0.00    +0.000 OA
BRANCH  12  18
ATOM     13  C   UNL     1       6.456   5.999  16.835  0.00  0.00    +0.000 A 
ATOM     14  C   UNL     1       6.970   5.161  15.820  0.00  0.00    +0.000 A 
ATOM     15  C   UNL     1       6.231   4.097  15.305  0.00  0.00    +0.000 A 
ATOM     16  C   UNL     1       4.964   3.834  15.806  0.00  0.00    +0.000 A 
ATOM     17  C   UNL     1       4.432   4.649  16.806  0.00  0.00    +0.000 A 
ATOM     18  C   UNL     1       5.151   5.749  17.298  0.00  0.00    +0.000 A 
BRANCH  13  20
ATOM     19  C   UNL     1       8.095   7.068  18.566  0.00  0.00    +0.000 C 
ATOM     20  C   UNL     1       7.338   7.159  17.249  0.00  0.00    +0.000 C 
ENDBRANCH  13  20
ENDBRANCH  12  18
ENDBRANCH   1  12
TORSDOF 4
ENDMDL
MODEL 8
REMARK VINA RESULT:      -6.2      2.941      6.777
REMARK  Name = 
REMARK  5 active torsions:
REMARK  status: ('A' for Active; 'I' for Inactive)
REMARK    1  A    between atoms: C_1  and  C_2
REMARK    2  A    between atoms: C_2  and  C_3
REMARK    3  A    between atoms: C_8  and  O_9
REMARK    4  A    between atoms: O_9  and  C_10
REMARK    5  A    between atoms: C_13  and  C_15
REMARK                            x       y       z     vdW  Elec       q    Type
REMARK                         _______ _______ _______ _____ _____    ______ ____
ROOT
ATOM      1  C   UNL     1       3.872   7.303  18.019  0.00  0.00    +0.000 C 
ATOM      2  C   UNL     1       2.692   6.629  17.294  0.00  0.00    +0.000 C 
ATOM      3  N   UNL     1       2.533   5.771  18.464  0.00  0.00    +0.000 N 
ATOM      4  C   UNL     1       1.897   4.538  18.477  0.00  0.00    +0.000 C 
ATOM      5  O   UNL     1       1.245   4.180  17.490  0.00  0.00    +0.000 OA
ATOM      6  C   UNL     1       3.816   6.154  19.043  0.00  0.00    +0.000 C 
ENDROOT
BRANCH   4   7
ATOM      7  C   UNL     1       2.004   3.756  19.700  0.00  0.00    +0.000 A 
ATOM      8  C   UNL     1       1.110   3.611  20.746  0.00  0.00    +0.000 A 
ATOM      9  C   UNL     1       1.571   2.712  21.751  0.00  0.00    +0.000 A 
ATOM     10  C   UNL     1       2.802   2.181  21.440  0.00  0.00    +0.000 A 
ATOM     11  S   UNL     1       3.393   2.772  19.948  0.00  0.00    +0.000 S 
ENDBRANCH   4   7
BRANCH   1  12
ATOM     12  O   UNL     1       5.120   7.429  17.290  0.00  0.00    +0.000 OA
BRANCH  12  18
ATOM     13  C   UNL     1       6.761   5.681  17.277  0.00  0.00    +0.000 A 
ATOM     14  C   UNL     1       7.322   4.569  16.612  0.00  0.00    +0.000 A 
ATOM     15  C   UNL     1       6.773   4.069  15.431  0.00  0.00    +0.000 A 
ATOM     16  C   UNL     1       5.639   4.662  14.896  0.00  0.00    +0.000 A 
ATOM     17  C   UNL     1       5.068   5.764  15.532  0.00  0.00    +0.000 A 
ATOM     18  C   UNL     1       5.639   6.300  16.696  0.00  0.00    +0.000 A 
BRANCH  13  20
ATOM     19  C   UNL     1       8.221   7.501  18.455  0.00  0.00    +0.000 C 
ATOM     20  C   UNL     1       7.500   6.162  18.510  0.00  0.00    +0.000 C 
ENDBRANCH  13  20
ENDBRANCH  12  18
ENDBRANCH   1  12
TORSDOF 4
ENDMDL
MODEL 9
REMARK VINA RESULT:      -6.2      2.982      7.109
REMARK  Name = 
REMARK  5 active torsions:
REMARK  status: ('A' for Active; 'I' for Inactive)
REMARK    1  A    between atoms: C_1  and  C_2
REMARK    2  A    between atoms: C_2  and  C_3
REMARK    3  A    between atoms: C_8  and  O_9
REMARK    4  A    between atoms: O_9  and  C_10
REMARK    5  A    between atoms: C_13  and  C_15
REMARK                            x       y       z     vdW  Elec       q    Type
REMARK                         _______ _______ _______ _____ _____    ______ ____
ROOT
ATOM      1  C   UNL     1       3.543   4.207  17.826  0.00  0.00    +0.000 C 
ATOM      2  C   UNL     1       2.885   4.243  19.218  0.00  0.00    +0.000 C 
ATOM      3  N   UNL     1       2.445   5.601  18.916  0.00  0.00    +0.000 N 
ATOM      4  C   UNL     1       2.093   6.559  19.855  0.00  0.00    +0.000 C 
ATOM      5  O   UNL     1       1.955   6.229  21.039  0.00  0.00    +0.000 OA
ATOM      6  C   UNL     1       3.307   5.727  17.747  0.00  0.00    +0.000 C 
ENDROOT
BRANCH   4   7
ATOM      7  C   UNL     1       1.858   7.908  19.361  0.00  0.00    +0.000 A 
ATOM      8  C   UNL     1       2.160   8.473  18.135  0.00  0.00    +0.000 A 
ATOM      9  C   UNL     1       1.724   9.826  18.024  0.00  0.00    +0.000 A 
ATOM     10  C   UNL     1       1.086  10.255  19.165  0.00  0.00    +0.000 A 
ATOM     11  S   UNL     1       1.023   9.033  20.359  0.00  0.00    +0.000 S 
ENDBRANCH   4   7
BRANCH   1  12
ATOM     12  O   UNL     1       4.931   3.787  17.754  0.00  0.00    +0.000 OA
BRANCH  12  18
ATOM     13  C   UNL     1       6.888   4.729  16.739  0.00  0.00    +0.000 A 
ATOM     14  C   UNL     1       7.565   5.097  15.556  0.00  0.00    +0.000 A 
ATOM     15  C   UNL     1       7.041   4.816  14.294  0.00  0.00    +0.000 A 
ATOM     16  C   UNL     1       5.832   4.145  14.187  0.00  0.00    +0.000 A 
ATOM     17  C   UNL     1       5.142   3.773  15.341  0.00  0.00    +0.000 A 
ATOM     18  C   UNL     1       5.640   4.091  16.613  0.00  0.00    +0.000 A 
BRANCH  13  20
ATOM     19  C   UNL     1       7.729   6.646  18.303  0.00  0.00    +0.000 C 
ATOM     20  C   UNL     1       7.537   5.159  18.039  0.00  0.00    +0.000 C 
ENDBRANCH  13  20
ENDBRANCH  12  18
ENDBRANCH   1  12
TORSDOF 4
ENDMDL
