MODEL 1
REMARK VINA RESULT:      -7.3      0.000      0.000
REMARK  Name = 
REMARK  6 active torsions:
REMARK  status: ('A' for Active; 'I' for Inactive)
REMARK    1  A    between atoms: C_1  and  C_2
REMARK    2  A    between atoms: C_5  and  C_6
REMARK    3  A    between atoms: C_7  and  C_8
REMARK    4  A    between atoms: C_8  and  C_9
REMARK    5  A    between atoms: C_9  and  C_10
REMARK    6  A    between atoms: C_10  and  N_11
REMARK                            x       y       z     vdW  Elec       q    Type
REMARK                         _______ _______ _______ _____ _____    ______ ____
ROOT
ATOM      1  N   UNL     1       3.078   6.600  17.647  0.00  0.00    +0.000 N 
ATOM      2  C   UNL     1       2.398   7.537  18.456  0.00  0.00    +0.000 A 
ATOM      3  C   UNL     1       1.900   8.680  17.817  0.00  0.00    +0.000 A 
ATOM      4  C   UNL     1       1.215   9.661  18.540  0.00  0.00    +0.000 A 
ATOM      5  C   UNL     1       1.055   9.444  19.913  0.00  0.00    +0.000 A 
ATOM      6  C   UNL     1       0.445  10.137  20.994  0.00  0.00    +0.000 A 
ATOM      7  C   UNL     1       0.633   9.380  22.133  0.00  0.00    +0.000 A 
ATOM      8  N   UNL     1       1.342   8.260  21.780  0.00  0.00    +0.000 N 
ATOM      9  C   UNL     1       1.602   8.280  20.438  0.00  0.00    +0.000 A 
ATOM     10  N   UNL     1       2.273   7.319  19.781  0.00  0.00    +0.000 NA
ATOM     11  H   UNL     1       2.468   6.352  16.872  0.00  0.00    +0.000 HD
ATOM     12  H   UNL     1       1.637   7.516  22.395  0.00  0.00    +0.000 HD
ENDROOT
BRANCH   1  13
ATOM     13  C   UNL     1       3.572   5.426  18.364  0.00  0.00    +0.000 C 
BRANCH  13  14
ATOM     14  C   UNL     1       3.789   4.287  17.367  0.00  0.00    +0.000 C 
BRANCH  14  15
ATOM     15  C   UNL     1       5.235   3.788  17.389  0.00  0.00    +0.000 C 
BRANCH  15  22
ATOM     16  C   UNL     1       7.279   6.046  18.566  0.00  0.00    +0.000 C 
ATOM     17  C   UNL     1       7.044   5.670  17.153  0.00  0.00    +0.000 A 
ATOM     18  N   UNL     1       7.715   6.290  16.175  0.00  0.00    +0.000 NA
ATOM     19  O   UNL     1       7.276   5.722  14.998  0.00  0.00    +0.000 OA
ATOM     20  C   UNL     1       6.348   4.768  15.270  0.00  0.00    +0.000 A 
ATOM     21  C   UNL     1       5.782   4.069  14.101  0.00  0.00    +0.000 C 
ATOM     22  C   UNL     1       6.154   4.687  16.633  0.00  0.00    +0.000 A 
ENDBRANCH  15  22
ENDBRANCH  14  15
ENDBRANCH  13  14
ENDBRANCH   1  13
TORSDOF 4
ENDMDL
MODEL 2
REMARK VINA RESULT:      -7.3      3.351      6.316
REMARK  Name = 
REMARK  6 active torsions:
REMARK  status: ('A' for Active; 'I' for Inactive)
REMARK    1  A    between atoms: C_1  and  C_2
REMARK    2  A    between atoms: C_5  and  C_6
REMARK    3  A    between atoms: C_7  and  C_8
REMARK    4  A    between atoms: C_8  and  C_9
REMARK    5  A    between atoms: C_9  and  C_10
REMARK    6  A    between atoms: C_10  and  N_11
REMARK                            x       y       z     vdW  Elec       q    Type
REMARK                         _______ _______ _______ _____ _____    ______ ____
ROOT
ATOM      1  N   UNL     1       3.689   2.880  17.071  0.00  0.00    +0.000 N 
ATOM      2  C   UNL     1       4.684   3.881  17.136  0.00  0.00    +0.000 A 
ATOM      3  C   UNL     1       4.919   4.615  15.966  0.00  0.00    +0.000 A 
ATOM      4  C   UNL     1       5.886   5.625  15.939  0.00  0.00    +0.000 A 
ATOM      5  C   UNL     1       6.594   5.860  17.123  0.00  0.00    +0.000 A 
ATOM      6  C   UNL     1       7.617   6.753  17.544  0.00  0.00    +0.000 A 
ATOM      7  C   UNL     1       7.892   6.478  18.867  0.00  0.00    +0.000 A 
ATOM      8  N   UNL     1       7.079   5.445  19.259  0.00  0.00    +0.000 N 
ATOM      9  C   UNL     1       6.282   5.061  18.216  0.00  0.00    +0.000 A 
ATOM     10  N   UNL     1       5.368   4.078  18.281  0.00  0.00    +0.000 NA
ATOM     11  H   UNL     1       2.834   3.308  16.726  0.00  0.00    +0.000 HD
ATOM     12  H   UNL     1       7.048   5.016  20.172  0.00  0.00    +0.000 HD
ENDROOT
BRANCH   1  13
ATOM     13  C   UNL     1       3.482   2.150  18.320  0.00  0.00    +0.000 C 
BRANCH  13  14
ATOM     14  C   UNL     1       2.035   1.661  18.378  0.00  0.00    +0.000 C 
BRANCH  14  15
ATOM     15  C   UNL     1       1.060   2.815  18.615  0.00  0.00    +0.000 C 
BRANCH  15  22
ATOM     16  C   UNL     1       2.078   5.880  18.136  0.00  0.00    +0.000 C 
ATOM     17  C   UNL     1       2.015   5.124  19.407  0.00  0.00    +0.000 A 
ATOM     18  N   UNL     1       2.409   5.701  20.548  0.00  0.00    +0.000 NA
ATOM     19  O   UNL     1       2.231   4.751  21.532  0.00  0.00    +0.000 OA
ATOM     20  C   UNL     1       1.732   3.613  20.983  0.00  0.00    +0.000 A 
ATOM     21  C   UNL     1       1.488   2.500  21.919  0.00  0.00    +0.000 C 
ATOM     22  C   UNL     1       1.572   3.787  19.624  0.00  0.00    +0.000 A 
ENDBRANCH  15  22
ENDBRANCH  14  15
ENDBRANCH  13  14
ENDBRANCH   1  13
TORSDOF 4
ENDMDL
MODEL 3
REMARK VINA RESULT:      -7.3      3.318      6.199
REMARK  Name = 
REMARK  6 active torsions:
REMARK  status: ('A' for Active; 'I' for Inactive)
REMARK    1  A    between atoms: C_1  and  C_2
REMARK    2  A    between atoms: C_5  and  C_6
REMARK    3  A    between atoms: C_7  and  C_8
REMARK    4  A    between atoms: C_8  and  C_9
REMARK    5  A    between atoms: C_9  and  C_10
REMARK    6  A    between atoms: C_10  and  N_11
REMARK                            x       y       z     vdW  Elec       q    Type
REMARK                         _______ _______ _______ _____ _____    ______ ____
ROOT
ATOM      1  N   UNL     1       4.025   2.697  17.089  0.00  0.00    +0.000 N 
ATOM      2  C   UNL     1       4.937   3.775  17.096  0.00  0.00    +0.000 A 
ATOM      3  C   UNL     1       5.171   4.415  15.872  0.00  0.00    +0.000 A 
ATOM      4  C   UNL     1       6.059   5.491  15.787  0.00  0.00    +0.000 A 
ATOM      5  C   UNL     1       6.691   5.890  16.970  0.00  0.00    +0.000 A 
ATOM      6  C   UNL     1       7.623   6.896  17.342  0.00  0.00    +0.000 A 
ATOM      7  C   UNL     1       7.857   6.768  18.696  0.00  0.00    +0.000 A 
ATOM      8  N   UNL     1       7.106   5.714  19.153  0.00  0.00    +0.000 N 
ATOM      9  C   UNL     1       6.390   5.173  18.121  0.00  0.00    +0.000 A 
ATOM     10  N   UNL     1       5.551   4.131  18.243  0.00  0.00    +0.000 NA
ATOM     11  H   UNL     1       3.157   3.022  16.671  0.00  0.00    +0.000 HD
ATOM     12  H   UNL     1       7.065   5.369  20.100  0.00  0.00    +0.000 HD
ENDROOT
BRANCH   1  13
ATOM     13  C   UNL     1       3.816   2.070  18.392  0.00  0.00    +0.000 C 
BRANCH  13  14
ATOM     14  C   UNL     1       2.362   1.609  18.496  0.00  0.00    +0.000 C 
BRANCH  14  15
ATOM     15  C   UNL     1       1.392   2.790  18.444  0.00  0.00    +0.000 C 
BRANCH  15  22
ATOM     16  C   UNL     1       1.445   2.638  21.705  0.00  0.00    +0.000 C 
ATOM     17  C   UNL     1       1.778   3.790  20.836  0.00  0.00    +0.000 A 
ATOM     18  N   UNL     1       2.156   4.952  21.381  0.00  0.00    +0.000 NA
ATOM     19  O   UNL     1       2.389   5.806  20.324  0.00  0.00    +0.000 OA
ATOM     20  C   UNL     1       2.153   5.158  19.153  0.00  0.00    +0.000 A 
ATOM     21  C   UNL     1       2.360   5.950  17.926  0.00  0.00    +0.000 C 
ATOM     22  C   UNL     1       1.757   3.863  19.413  0.00  0.00    +0.000 A 
ENDBRANCH  15  22
ENDBRANCH  14  15
ENDBRANCH  13  14
ENDBRANCH   1  13
TORSDOF 4
ENDMDL
MODEL 4
REMARK VINA RESULT:      -7.2      0.888      1.963
REMARK  Name = 
REMARK  6 active torsions:
REMARK  status: ('A' for Active; 'I' for Inactive)
REMARK    1  A    between atoms: C_1  and  C_2
REMARK    2  A    between atoms: C_5  and  C_6
REMARK    3  A    between atoms: C_7  and  C_8
REMARK    4  A    between atoms: C_8  and  C_9
REMARK    5  A    between atoms: C_9  and  C_10
REMARK    6  A    between atoms: C_10  and  N_11
REMARK                            x       y       z     vdW  Elec       q    Type
REMARK                         _______ _______ _______ _____ _____    ______ ____
ROOT
ATOM      1  N   UNL     1       3.189   6.261  18.009  0.00  0.00    +0.000 N 
ATOM      2  C   UNL     1       2.466   7.333  18.577  0.00  0.00    +0.000 A 
ATOM      3  C   UNL     1       2.112   8.383  17.718  0.00  0.00    +0.000 A 
ATOM      4  C   UNL     1       1.396   9.485  18.195  0.00  0.00    +0.000 A 
ATOM      5  C   UNL     1       1.057   9.485  19.552  0.00  0.00    +0.000 A 
ATOM      6  C   UNL     1       0.356  10.354  20.431  0.00  0.00    +0.000 A 
ATOM      7  C   UNL     1       0.360   9.773  21.683  0.00  0.00    +0.000 A 
ATOM      8  N   UNL     1       1.046   8.589  21.593  0.00  0.00    +0.000 N 
ATOM      9  C   UNL     1       1.471   8.396  20.308  0.00  0.00    +0.000 A 
ATOM     10  N   UNL     1       2.165   7.323  19.891  0.00  0.00    +0.000 NA
ATOM     11  H   UNL     1       2.667   5.920  17.205  0.00  0.00    +0.000 HD
ATOM     12  H   UNL     1       1.223   7.937  22.343  0.00  0.00    +0.000 HD
ENDROOT
BRANCH   1  13
ATOM     13  C   UNL     1       3.527   5.194  18.948  0.00  0.00    +0.000 C 
BRANCH  13  14
ATOM     14  C   UNL     1       5.003   5.313  19.329  0.00  0.00    +0.000 C 
BRANCH  14  15
ATOM     15  C   UNL     1       5.879   4.390  18.479  0.00  0.00    +0.000 C 
BRANCH  15  22
ATOM     16  C   UNL     1       5.680   3.814  15.272  0.00  0.00    +0.000 C 
ATOM     17  C   UNL     1       6.460   4.862  15.967  0.00  0.00    +0.000 A 
ATOM     18  N   UNL     1       7.205   5.721  15.261  0.00  0.00    +0.000 NA
ATOM     19  O   UNL     1       7.797   6.555  16.186  0.00  0.00    +0.000 OA
ATOM     20  C   UNL     1       7.408   6.199  17.438  0.00  0.00    +0.000 A 
ATOM     21  C   UNL     1       7.965   7.005  18.539  0.00  0.00    +0.000 C 
ATOM     22  C   UNL     1       6.552   5.119  17.366  0.00  0.00    +0.000 A 
ENDBRANCH  15  22
ENDBRANCH  14  15
ENDBRANCH  13  14
ENDBRANCH   1  13
TORSDOF 4
ENDMDL
MODEL 5
REMARK VINA RESULT:      -7.2      1.250      2.535
REMARK  Name = 
REMARK  6 active torsions:
REMARK  status: ('A' for Active; 'I' for Inactive)
REMARK    1  A    between atoms: C_1  and  C_2
REMARK    2  A    between atoms: C_5  and  C_6
REMARK    3  A    between atoms: C_7  and  C_8
REMARK    4  A    between atoms: C_8  and  C_9
REMARK    5  A    between atoms: C_9  and  C_10
REMARK    6  A    between atoms: C_10  and  N_11
REMARK                            x       y       z     vdW  Elec       q    Type
REMARK                         _______ _______ _______ _____ _____    ______ ____
ROOT
ATOM      1  N   UNL     1       3.170   6.117  19.011  0.00  0.00    +0.000 N 
ATOM      2  C   UNL     1       2.386   7.252  19.312  0.00  0.00    +0.000 A 
ATOM      3  C   UNL     1       1.870   7.337  20.612  0.00  0.00    +0.000 A 
ATOM      4  C   UNL     1       1.083   8.427  20.998  0.00  0.00    +0.000 A 
ATOM      5  C   UNL     1       0.842   9.411  20.033  0.00  0.00    +0.000 A 
ATOM      6  C   UNL     1       0.136  10.644  19.983  0.00  0.00    +0.000 A 
ATOM      7  C   UNL     1       0.283  11.157  18.711  0.00  0.00    +0.000 A 
ATOM      8  N   UNL     1       1.044  10.275  17.988  0.00  0.00    +0.000 N 
ATOM      9  C   UNL     1       1.396   9.213  18.775  0.00  0.00    +0.000 A 
ATOM     10  N   UNL     1       2.150   8.180  18.362  0.00  0.00    +0.000 NA
ATOM     11  H   UNL     1       3.910   6.051  19.706  0.00  0.00    +0.000 HD
ATOM     12  H   UNL     1       1.322  10.369  17.022  0.00  0.00    +0.000 HD
ENDROOT
BRANCH   1  13
ATOM     13  C   UNL     1       3.686   6.082  17.644  0.00  0.00    +0.000 C 
BRANCH  13  14
ATOM     14  C   UNL     1       3.729   4.631  17.164  0.00  0.00    +0.000 C 
BRANCH  14  15
ATOM     15  C   UNL     1       5.134   4.039  17.283  0.00  0.00    +0.000 C 
BRANCH  15  22
ATOM     16  C   UNL     1       5.748   3.831  14.084  0.00  0.00    +0.000 C 
ATOM     17  C   UNL     1       6.399   4.704  15.087  0.00  0.00    +0.000 A 
ATOM     18  N   UNL     1       7.373   5.542  14.712  0.00  0.00    +0.000 NA
ATOM     19  O   UNL     1       7.764   6.202  15.858  0.00  0.00    +0.000 OA
ATOM     20  C   UNL     1       7.029   5.761  16.912  0.00  0.00    +0.000 A 
ATOM     21  C   UNL     1       7.337   6.379  18.215  0.00  0.00    +0.000 C 
ATOM     22  C   UNL     1       6.136   4.800  16.483  0.00  0.00    +0.000 A 
ENDBRANCH  15  22
ENDBRANCH  14  15
ENDBRANCH  13  14
ENDBRANCH   1  13
TORSDOF 4
ENDMDL
MODEL 6
REMARK VINA RESULT:      -7.1      5.513      8.513
REMARK  Name = 
REMARK  6 active torsions:
REMARK  status: ('A' for Active; 'I' for Inactive)
REMARK    1  A    between atoms: C_1  and  C_2
REMARK    2  A    between atoms: C_5  and  C_6
REMARK    3  A    between atoms: C_7  and  C_8
REMARK    4  A    between atoms: C_8  and  C_9
REMARK    5  A    between atoms: C_9  and  C_10
REMARK    6  A    between atoms: C_10  and  N_11
REMARK                            x       y       z     vdW  Elec       q    Type
REMARK                         _______ _______ _______ _____ _____    ______ ____
ROOT
ATOM      1  N   UNL     1       8.435   8.102  18.760  0.00  0.00    +0.000 N 
ATOM      2  C   UNL     1       7.839   7.012  18.090  0.00  0.00    +0.000 A 
ATOM      3  C   UNL     1       7.944   5.757  18.705  0.00  0.00    +0.000 A 
ATOM      4  C   UNL     1       7.383   4.622  18.112  0.00  0.00    +0.000 A 
ATOM      5  C   UNL     1       6.722   4.802  16.891  0.00  0.00    +0.000 A 
ATOM      6  C   UNL     1       6.026   3.971  15.973  0.00  0.00    +0.000 A 
ATOM      7  C   UNL     1       5.593   4.769  14.934  0.00  0.00    +0.000 A 
ATOM      8  N   UNL     1       6.011   6.050  15.187  0.00  0.00    +0.000 N 
ATOM      9  C   UNL     1       6.693   6.090  16.372  0.00  0.00    +0.000 A 
ATOM     10  N   UNL     1       7.224   7.203  16.905  0.00  0.00    +0.000 NA
ATOM     11  H   UNL     1       8.072   8.126  19.710  0.00  0.00    +0.000 HD
ATOM     12  H   UNL     1       5.851   6.862  14.609  0.00  0.00    +0.000 HD
ENDROOT
BRANCH   1  13
ATOM     13  C   UNL     1       8.292   9.386  18.077  0.00  0.00    +0.000 C 
BRANCH  13  14
ATOM     14  C   UNL     1       9.460  10.292  18.467  0.00  0.00    +0.000 C 
BRANCH  14  15
ATOM     15  C   UNL     1       9.133  11.767  18.223  0.00  0.00    +0.000 C 
BRANCH  15  22
ATOM     16  C   UNL     1      11.420  13.412  16.573  0.00  0.00    +0.000 C 
ATOM     17  C   UNL     1      11.182  13.390  18.034  0.00  0.00    +0.000 A 
ATOM     18  N   UNL     1      11.963  14.108  18.849  0.00  0.00    +0.000 NA
ATOM     19  O   UNL     1      11.492  13.875  20.124  0.00  0.00    +0.000 OA
ATOM     20  C   UNL     1      10.435  13.023  20.072  0.00  0.00    +0.000 A 
ATOM     21  C   UNL     1       9.822  12.678  21.368  0.00  0.00    +0.000 C 
ATOM     22  C   UNL     1      10.187  12.674  18.760  0.00  0.00    +0.000 A 
ENDBRANCH  15  22
ENDBRANCH  14  15
ENDBRANCH  13  14
ENDBRANCH   1  13
TORSDOF 4
ENDMDL
MODEL 7
REMARK VINA RESULT:      -7.1      1.124      1.748
REMARK  Name = 
REMARK  6 active torsions:
REMARK  status: ('A' for Active; 'I' for Inactive)
REMARK    1  A    between atoms: C_1  and  C_2
REMARK    2  A    between atoms: C_5  and  C_6
REMARK    3  A    between atoms: C_7  and  C_8
REMARK    4  A    between atoms: C_8  and  C_9
REMARK    5  A    between atoms: C_9  and  C_10
REMARK    6  A    between atoms: C_10  and  N_11
REMARK                            x       y       z     vdW  Elec       q    Type
REMARK                         _______ _______ _______ _____ _____    ______ ____
ROOT
ATOM      1  N   UNL     1       3.056   5.788  19.015  0.00  0.00    +0.000 N 
ATOM      2  C   UNL     1       2.364   6.979  19.328  0.00  0.00    +0.000 A 
ATOM      3  C   UNL     1       1.854   7.090  20.628  0.00  0.00    +0.000 A 
ATOM      4  C   UNL     1       1.155   8.234  21.025  0.00  0.00    +0.000 A 
ATOM      5  C   UNL     1       0.995   9.245  20.072  0.00  0.00    +0.000 A 
ATOM      6  C   UNL     1       0.390  10.531  20.036  0.00  0.00    +0.000 A 
ATOM      7  C   UNL     1       0.579  11.045  18.769  0.00  0.00    +0.000 A 
ATOM      8  N   UNL     1       1.270  10.113  18.037  0.00  0.00    +0.000 N 
ATOM      9  C   UNL     1       1.534   9.018  18.812  0.00  0.00    +0.000 A 
ATOM     10  N   UNL     1       2.204   7.933  18.389  0.00  0.00    +0.000 NA
ATOM     11  H   UNL     1       3.787   5.656  19.709  0.00  0.00    +0.000 HD
ATOM     12  H   UNL     1       1.556  10.196  17.073  0.00  0.00    +0.000 HD
ENDROOT
BRANCH   1  13
ATOM     13  C   UNL     1       3.571   5.728  17.648  0.00  0.00    +0.000 C 
BRANCH  13  14
ATOM     14  C   UNL     1       3.768   4.264  17.253  0.00  0.00    +0.000 C 
BRANCH  14  15
ATOM     15  C   UNL     1       5.230   3.835  17.396  0.00  0.00    +0.000 C 
BRANCH  15  22
ATOM     16  C   UNL     1       7.256   6.138  18.513  0.00  0.00    +0.000 C 
ATOM     17  C   UNL     1       7.035   5.715  17.112  0.00  0.00    +0.000 A 
ATOM     18  N   UNL     1       7.713   6.304  16.120  0.00  0.00    +0.000 NA
ATOM     19  O   UNL     1       7.286   5.695  14.959  0.00  0.00    +0.000 OA
ATOM     20  C   UNL     1       6.359   4.747  15.254  0.00  0.00    +0.000 A 
ATOM     21  C   UNL     1       5.805   4.008  14.104  0.00  0.00    +0.000 C 
ATOM     22  C   UNL     1       6.153   4.711  16.618  0.00  0.00    +0.000 A 
ENDBRANCH  15  22
ENDBRANCH  14  15
ENDBRANCH  13  14
ENDBRANCH   1  13
TORSDOF 4
ENDMDL
MODEL 8
REMARK VINA RESULT:      -7.1      5.526      8.392
REMARK  Name = 
REMARK  6 active torsions:
REMARK  status: ('A' for Active; 'I' for Inactive)
REMARK    1  A    between atoms: C_1  and  C_2
REMARK    2  A    between atoms: C_5  and  C_6
REMARK    3  A    between atoms: C_7  and  C_8
REMARK    4  A    between atoms: C_8  and  C_9
REMARK    5  A    between atoms: C_9  and  C_10
REMARK    6  A    between atoms: C_10  and  N_11
REMARK                            x       y       z     vdW  Elec       q    Type
REMARK                         _______ _______ _______ _____ _____    ______ ____
ROOT
ATOM      1  N   UNL     1       8.433   8.140  18.766  0.00  0.00    +0.000 N 
ATOM      2  C   UNL     1       7.834   7.041  18.110  0.00  0.00    +0.000 A 
ATOM      3  C   UNL     1       7.916   5.800  18.754  0.00  0.00    +0.000 A 
ATOM      4  C   UNL     1       7.351   4.658  18.177  0.00  0.00    +0.000 A 
ATOM      5  C   UNL     1       6.711   4.818  16.943  0.00  0.00    +0.000 A 
ATOM      6  C   UNL     1       6.019   3.975  16.033  0.00  0.00    +0.000 A 
ATOM      7  C   UNL     1       5.610   4.754  14.970  0.00  0.00    +0.000 A 
ATOM      8  N   UNL     1       6.039   6.037  15.202  0.00  0.00    +0.000 N 
ATOM      9  C   UNL     1       6.704   6.095  16.396  0.00  0.00    +0.000 A 
ATOM     10  N   UNL     1       7.239   7.214  16.912  0.00  0.00    +0.000 NA
ATOM     11  H   UNL     1       8.055   8.189  19.708  0.00  0.00    +0.000 HD
ATOM     12  H   UNL     1       5.897   6.837  14.603  0.00  0.00    +0.000 HD
ENDROOT
BRANCH   1  13
ATOM     13  C   UNL     1       8.314   9.409  18.052  0.00  0.00    +0.000 C 
BRANCH  13  14
ATOM     14  C   UNL     1       9.436  10.344  18.507  0.00  0.00    +0.000 C 
BRANCH  14  15
ATOM     15  C   UNL     1       9.067  11.813  18.288  0.00  0.00    +0.000 C 
BRANCH  15  22
ATOM     16  C   UNL     1       9.700  12.829  21.326  0.00  0.00    +0.000 C 
ATOM     17  C   UNL     1      10.413  13.178  20.075  0.00  0.00    +0.000 A 
ATOM     18  N   UNL     1      11.459  14.011  20.113  0.00  0.00    +0.000 NA
ATOM     19  O   UNL     1      11.891  14.132  18.809  0.00  0.00    +0.000 OA
ATOM     20  C   UNL     1      11.109  13.374  17.997  0.00  0.00    +0.000 A 
ATOM     21  C   UNL     1      11.451  13.403  16.562  0.00  0.00    +0.000 C 
ATOM     22  C   UNL     1      10.142  12.739  18.748  0.00  0.00    +0.000 A 
ENDBRANCH  15  22
ENDBRANCH  14  15
ENDBRANCH  13  14
ENDBRANCH   1  13
TORSDOF 4
ENDMDL
MODEL 9
REMARK VINA RESULT:      -7.0      2.553      6.477
REMARK  Name = 
REMARK  6 active torsions:
REMARK  status: ('A' for Active; 'I' for Inactive)
REMARK    1  A    between atoms: C_1  and  C_2
REMARK    2  A    between atoms: C_5  and  C_6
REMARK    3  A    between atoms: C_7  and  C_8
REMARK    4  A    between atoms: C_8  and  C_9
REMARK    5  A    between atoms: C_9  and  C_10
REMARK    6  A    between atoms: C_10  and  N_11
REMARK                            x       y       z     vdW  Elec       q    Type
REMARK                         _______ _______ _______ _____ _____    ______ ____
ROOT
ATOM      1  N   UNL     1       2.273   3.578  18.834  0.00  0.00    +0.000 N 
ATOM      2  C   UNL     1       3.576   3.922  18.413  0.00  0.00    +0.000 A 
ATOM      3  C   UNL     1       3.880   3.711  17.061  0.00  0.00    +0.000 A 
ATOM      4  C   UNL     1       5.147   4.022  16.558  0.00  0.00    +0.000 A 
ATOM      5  C   UNL     1       6.079   4.547  17.460  0.00  0.00    +0.000 A 
ATOM      6  C   UNL     1       7.426   4.997  17.393  0.00  0.00    +0.000 A 
ATOM      7  C   UNL     1       7.790   5.411  18.658  0.00  0.00    +0.000 A 
ATOM      8  N   UNL     1       6.715   5.219  19.488  0.00  0.00    +0.000 N 
ATOM      9  C   UNL     1       5.667   4.701  18.777  0.00  0.00    +0.000 A 
ATOM     10  N   UNL     1       4.466   4.408  19.302  0.00  0.00    +0.000 NA
ATOM     11  H   UNL     1       1.609   4.055  18.228  0.00  0.00    +0.000 HD
ATOM     12  H   UNL     1       6.672   5.424  20.475  0.00  0.00    +0.000 HD
ENDROOT
BRANCH   1  13
ATOM     13  C   UNL     1       2.009   3.823  20.250  0.00  0.00    +0.000 C 
BRANCH  13  14
ATOM     14  C   UNL     1       1.208   5.118  20.392  0.00  0.00    +0.000 C 
BRANCH  14  15
ATOM     15  C   UNL     1       2.082   6.268  20.895  0.00  0.00    +0.000 C 
BRANCH  15  22
ATOM     16  C   UNL     1       0.308   8.777  21.996  0.00  0.00    +0.000 C 
ATOM     17  C   UNL     1       0.998   8.645  20.693  0.00  0.00    +0.000 A 
ATOM     18  N   UNL     1       0.932   9.638  19.798  0.00  0.00    +0.000 NA
ATOM     19  O   UNL     1       1.665   9.213  18.709  0.00  0.00    +0.000 OA
ATOM     20  C   UNL     1       2.166   7.974  18.952  0.00  0.00    +0.000 A 
ATOM     21  C   UNL     1       2.976   7.383  17.870  0.00  0.00    +0.000 C 
ATOM     22  C   UNL     1       1.774   7.554  20.206  0.00  0.00    +0.000 A 
ENDBRANCH  15  22
ENDBRANCH  14  15
ENDBRANCH  13  14
ENDBRANCH   1  13
TORSDOF 4
ENDMDL
