MODEL 1
REMARK VINA RESULT:      -7.3      0.000      0.000
REMARK  Name = 
REMARK  6 active torsions:
REMARK  status: ('A' for Active; 'I' for Inactive)
REMARK    1  A    between atoms: C_1  and  C_2
REMARK    2  A    between atoms: C_6  and  C_7
REMARK    3  A    between atoms: C_12  and  N_13
REMARK    4  A    between atoms: C_16  and  C_17
REMARK    5  A    between atoms: C_17  and  C_19
REMARK    6  A    between atoms: C_28  and  O_29
REMARK                            x       y       z     vdW  Elec       q    Type
REMARK                         _______ _______ _______ _____ _____    ______ ____
ROOT
ATOM      1  C   UNL     1       0.238   9.315  20.561  0.00  0.00    +0.000 C 
ATOM      2  O   UNL     1      -0.323   8.962  21.604  0.00  0.00    +0.000 OA
ATOM      3  N   UNL     1       1.225   8.484  19.969  0.00  0.00    +0.000 N 
ATOM      4  C   UNL     1       1.870   8.780  18.701  0.00  0.00    +0.000 C 
ATOM      5  C   UNL     1       2.216   7.540  17.907  0.00  0.00    +0.000 C 
ATOM      6  C   UNL     1       3.030   6.466  18.665  0.00  0.00    +0.000 C 
ATOM      7  C   UNL     1       2.342   6.236  20.052  0.00  0.00    +0.000 C 
ATOM      8  C   UNL     1       1.959   7.527  20.810  0.00  0.00    +0.000 C 
ENDROOT
BRANCH   1  14
ATOM      9  C   UNL     1      -1.840   9.830  18.081  0.00  0.00    +0.000 C 
ATOM     10  C   UNL     1      -0.968  10.818  18.797  0.00  0.00    +0.000 A 
ATOM     11  C   UNL     1      -0.852  12.182  18.354  0.00  0.00    +0.000 A 
ATOM     12  C   UNL     1      -0.088  12.952  19.197  0.00  0.00    +0.000 A 
ATOM     13  S   UNL     1       0.326  12.090  20.603  0.00  0.00    +0.000 S 
ATOM     14  C   UNL     1      -0.128  10.578  19.891  0.00  0.00    +0.000 A 
ENDBRANCH   1  14
BRANCH   6  15
ATOM     15  N   UNL     1       4.514   6.666  18.734  0.00  0.00    +0.000 NA
ATOM     16  C   UNL     1       5.151   7.095  17.473  0.00  0.00    +0.000 C 
ATOM     17  C   UNL     1       4.891   6.129  16.317  0.00  0.00    +0.000 C 
ATOM     18  C   UNL     1       5.282   4.680  16.627  0.00  0.00    +0.000 C 
ATOM     19  C   UNL     1       5.160   4.276  18.109  0.00  0.00    +0.000 C 
ATOM     20  C   UNL     1       5.231   5.426  19.132  0.00  0.00    +0.000 C 
BRANCH  18  21
ATOM     21  C   UNL     1       6.669   4.379  16.069  0.00  0.00    +0.000 C 
ATOM     22  O   UNL     1       7.608   4.080  16.807  0.00  0.00    +0.000 OA
BRANCH  21  23
ATOM     23  C   UNL     1       6.906   4.469  14.591  0.00  0.00    +0.000 A 
ATOM     24  C   UNL     1       7.819   5.369  14.020  0.00  0.00    +0.000 A 
ATOM     25  C   UNL     1       7.971   5.430  12.631  0.00  0.00    +0.000 A 
ATOM     26  C   UNL     1       7.215   4.595  11.817  0.00  0.00    +0.000 A 
ATOM     27  F   UNL     1       7.349   4.673  10.488  0.00  0.00    +0.000 F 
ATOM     28  C   UNL     1       6.318   3.687  12.365  0.00  0.00    +0.000 A 
ATOM     29  C   UNL     1       6.165   3.622  13.752  0.00  0.00    +0.000 A 
ENDBRANCH  21  23
ENDBRANCH  18  21
ENDBRANCH   6  15
BRANCH   7  30
ATOM     30  O   UNL     1       1.146   5.459  19.830  0.00  0.00    +0.000 OA
ATOM     31  H   UNL     1       0.801   5.718  18.954  0.00  0.00    +0.000 HD
ENDBRANCH   7  30
TORSDOF 5
ENDMDL
MODEL 2
REMARK VINA RESULT:      -7.2      0.801      1.185
REMARK  Name = 
REMARK  6 active torsions:
REMARK  status: ('A' for Active; 'I' for Inactive)
REMARK    1  A    between atoms: C_1  and  C_2
REMARK    2  A    between atoms: C_6  and  C_7
REMARK    3  A    between atoms: C_12  and  N_13
REMARK    4  A    between atoms: C_16  and  C_17
REMARK    5  A    between atoms: C_17  and  C_19
REMARK    6  A    between atoms: C_28  and  O_29
REMARK                            x       y       z     vdW  Elec       q    Type
REMARK                         _______ _______ _______ _____ _____    ______ ____
ROOT
ATOM      1  C   UNL     1       0.174   9.286  20.327  0.00  0.00    +0.000 C 
ATOM      2  O   UNL     1      -0.390   9.036  21.398  0.00  0.00    +0.000 OA
ATOM      3  N   UNL     1       1.187   8.421  19.838  0.00  0.00    +0.000 N 
ATOM      4  C   UNL     1       1.839   8.593  18.550  0.00  0.00    +0.000 C 
ATOM      5  C   UNL     1       2.223   7.283  17.899  0.00  0.00    +0.000 C 
ATOM      6  C   UNL     1       3.056   6.319  18.778  0.00  0.00    +0.000 C 
ATOM      7  C   UNL     1       2.358   6.225  20.175  0.00  0.00    +0.000 C 
ATOM      8  C   UNL     1       1.935   7.581  20.784  0.00  0.00    +0.000 C 
ENDROOT
BRANCH   1  14
ATOM      9  C   UNL     1       1.496  12.283  20.234  0.00  0.00    +0.000 C 
ATOM     10  C   UNL     1       0.295  11.762  19.501  0.00  0.00    +0.000 A 
ATOM     11  C   UNL     1      -0.540  12.627  18.711  0.00  0.00    +0.000 A 
ATOM     12  C   UNL     1      -1.527  11.947  18.040  0.00  0.00    +0.000 A 
ATOM     13  S   UNL     1      -1.331  10.265  18.208  0.00  0.00    +0.000 S 
ATOM     14  C   UNL     1      -0.216  10.459  19.519  0.00  0.00    +0.000 A 
ENDBRANCH   1  14
BRANCH   6  15
ATOM     15  N   UNL     1       4.534   6.563  18.836  0.00  0.00    +0.000 NA
ATOM     16  C   UNL     1       5.146   7.027  17.575  0.00  0.00    +0.000 C 
ATOM     17  C   UNL     1       4.905   6.068  16.409  0.00  0.00    +0.000 C 
ATOM     18  C   UNL     1       5.342   4.627  16.698  0.00  0.00    +0.000 C 
ATOM     19  C   UNL     1       5.246   4.202  18.176  0.00  0.00    +0.000 C 
ATOM     20  C   UNL     1       5.291   5.342  19.213  0.00  0.00    +0.000 C 
BRANCH  18  21
ATOM     21  C   UNL     1       6.733   4.376  16.124  0.00  0.00    +0.000 C 
ATOM     22  O   UNL     1       7.686   4.093  16.850  0.00  0.00    +0.000 OA
BRANCH  21  23
ATOM     23  C   UNL     1       6.954   4.495  14.646  0.00  0.00    +0.000 A 
ATOM     24  C   UNL     1       7.869   5.399  14.084  0.00  0.00    +0.000 A 
ATOM     25  C   UNL     1       8.006   5.488  12.695  0.00  0.00    +0.000 A 
ATOM     26  C   UNL     1       7.234   4.676  11.872  0.00  0.00    +0.000 A 
ATOM     27  F   UNL     1       7.355   4.780  10.544  0.00  0.00    +0.000 F 
ATOM     28  C   UNL     1       6.336   3.765  12.411  0.00  0.00    +0.000 A 
ATOM     29  C   UNL     1       6.197   3.672  13.798  0.00  0.00    +0.000 A 
ENDBRANCH  21  23
ENDBRANCH  18  21
ENDBRANCH   6  15
BRANCH   7  30
ATOM     30  O   UNL     1       1.184   5.398  20.030  0.00  0.00    +0.000 OA
ATOM     31  H   UNL     1       1.274   4.929  19.179  0.00  0.00    +0.000 HD
ENDBRANCH   7  30
TORSDOF 5
ENDMDL
MODEL 3
REMARK VINA RESULT:      -6.7      4.761      7.615
REMARK  Name = 
REMARK  6 active torsions:
REMARK  status: ('A' for Active; 'I' for Inactive)
REMARK    1  A    between atoms: C_1  and  C_2
REMARK    2  A    between atoms: C_6  and  C_7
REMARK    3  A    between atoms: C_12  and  N_13
REMARK    4  A    between atoms: C_16  and  C_17
REMARK    5  A    between atoms: C_17  and  C_19
REMARK    6  A    between atoms: C_28  and  O_29
REMARK                            x       y       z     vdW  Elec       q    Type
REMARK                         _______ _______ _______ _____ _____    ______ ____
ROOT
ATOM      1  C   UNL     1      -3.252  14.879  23.785  0.00  0.00    +0.000 C 
ATOM      2  O   UNL     1      -3.021  14.751  24.992  0.00  0.00    +0.000 OA
ATOM      3  N   UNL     1      -2.601  14.039  22.844  0.00  0.00    +0.000 N 
ATOM      4  C   UNL     1      -2.878  14.064  21.417  0.00  0.00    +0.000 C 
ATOM      5  C   UNL     1      -2.746  12.707  20.763  0.00  0.00    +0.000 C 
ATOM      6  C   UNL     1      -1.411  11.968  21.019  0.00  0.00    +0.000 C 
ATOM      7  C   UNL     1      -1.117  12.033  22.555  0.00  0.00    +0.000 C 
ATOM      8  C   UNL     1      -1.312  13.425  23.196  0.00  0.00    +0.000 C 
ENDROOT
BRANCH   1  14
ATOM      9  C   UNL     1      -6.525  14.737  23.757  0.00  0.00    +0.000 C 
ATOM     10  C   UNL     1      -5.627  15.814  23.226  0.00  0.00    +0.000 A 
ATOM     11  C   UNL     1      -6.145  16.929  22.479  0.00  0.00    +0.000 A 
ATOM     12  C   UNL     1      -5.181  17.856  22.167  0.00  0.00    +0.000 A 
ATOM     13  S   UNL     1      -3.707  17.481  22.928  0.00  0.00    +0.000 S 
ATOM     14  C   UNL     1      -4.230  15.872  23.300  0.00  0.00    +0.000 A 
ENDBRANCH   1  14
BRANCH   6  15
ATOM     15  N   UNL     1      -0.251  12.346  20.148  0.00  0.00    +0.000 NA
ATOM     16  C   UNL     1      -0.340  11.888  18.747  0.00  0.00    +0.000 C 
ATOM     17  C   UNL     1      -0.505  10.374  18.626  0.00  0.00    +0.000 C 
ATOM     18  C   UNL     1       0.576   9.576  19.363  0.00  0.00    +0.000 C 
ATOM     19  C   UNL     1       1.154  10.265  20.614  0.00  0.00    +0.000 C 
ATOM     20  C   UNL     1       1.035  11.801  20.656  0.00  0.00    +0.000 C 
BRANCH  18  21
ATOM     21  C   UNL     1       1.673   9.155  18.390  0.00  0.00    +0.000 C 
ATOM     22  O   UNL     1       1.990   9.863  17.434  0.00  0.00    +0.000 OA
BRANCH  21  23
ATOM     23  C   UNL     1       2.368   7.841  18.584  0.00  0.00    +0.000 A 
ATOM     24  C   UNL     1       2.048   6.957  19.627  0.00  0.00    +0.000 A 
ATOM     25  C   UNL     1       2.757   5.761  19.777  0.00  0.00    +0.000 A 
ATOM     26  C   UNL     1       3.778   5.448  18.887  0.00  0.00    +0.000 A 
ATOM     27  F   UNL     1       4.466   4.311  19.048  0.00  0.00    +0.000 F 
ATOM     28  C   UNL     1       4.098   6.302  17.840  0.00  0.00    +0.000 A 
ATOM     29  C   UNL     1       3.391   7.498  17.687  0.00  0.00    +0.000 A 
ENDBRANCH  21  23
ENDBRANCH  18  21
ENDBRANCH   6  15
BRANCH   7  30
ATOM     30  O   UNL     1      -1.994  11.095  23.214  0.00  0.00    +0.000 OA
ATOM     31  H   UNL     1      -1.783  10.212  22.854  0.00  0.00    +0.000 HD
ENDBRANCH   7  30
TORSDOF 5
ENDMDL
MODEL 4
REMARK VINA RESULT:      -6.7      2.699      3.939
REMARK  Name = 
REMARK  6 active torsions:
REMARK  status: ('A' for Active; 'I' for Inactive)
REMARK    1  A    between atoms: C_1  and  C_2
REMARK    2  A    between atoms: C_6  and  C_7
REMARK    3  A    between atoms: C_12  and  N_13
REMARK    4  A    between atoms: C_16  and  C_17
REMARK    5  A    between atoms: C_17  and  C_19
REMARK    6  A    between atoms: C_28  and  O_29
REMARK                            x       y       z     vdW  Elec       q    Type
REMARK                         _______ _______ _______ _____ _____    ______ ____
ROOT
ATOM      1  C   UNL     1       0.361  11.988  21.387  0.00  0.00    +0.000 C 
ATOM      2  O   UNL     1      -0.084  12.146  22.529  0.00  0.00    +0.000 OA
ATOM      3  N   UNL     1       0.703  10.687  20.932  0.00  0.00    +0.000 N 
ATOM      4  C   UNL     1       1.150  10.401  19.578  0.00  0.00    +0.000 C 
ATOM      5  C   UNL     1       0.709   9.042  19.083  0.00  0.00    +0.000 C 
ATOM      6  C   UNL     1       1.052   7.849  20.006  0.00  0.00    +0.000 C 
ATOM      7  C   UNL     1       0.622   8.234  21.461  0.00  0.00    +0.000 C 
ATOM      8  C   UNL     1       1.049   9.648  21.913  0.00  0.00    +0.000 C 
ENDROOT
BRANCH   1  14
ATOM      9  C   UNL     1       3.007  13.805  20.733  0.00  0.00    +0.000 C 
ATOM     10  C   UNL     1       1.611  13.956  20.207  0.00  0.00    +0.000 A 
ATOM     11  C   UNL     1       1.228  15.077  19.391  0.00  0.00    +0.000 A 
ATOM     12  C   UNL     1      -0.061  14.984  18.928  0.00  0.00    +0.000 A 
ATOM     13  S   UNL     1      -0.739  13.472  19.314  0.00  0.00    +0.000 S 
ATOM     14  C   UNL     1       0.510  13.130  20.464  0.00  0.00    +0.000 A 
ENDBRANCH   1  14
BRANCH   6  15
ATOM     15  N   UNL     1       2.436   7.285  19.896  0.00  0.00    +0.000 NA
ATOM     16  C   UNL     1       2.867   6.938  18.527  0.00  0.00    +0.000 C 
ATOM     17  C   UNL     1       1.931   5.942  17.843  0.00  0.00    +0.000 C 
ATOM     18  C   UNL     1       1.699   4.661  18.652  0.00  0.00    +0.000 C 
ATOM     19  C   UNL     1       1.777   4.835  20.181  0.00  0.00    +0.000 C 
ATOM     20  C   UNL     1       2.600   6.036  20.685  0.00  0.00    +0.000 C 
BRANCH  18  21
ATOM     21  C   UNL     1       2.624   3.553  18.159  0.00  0.00    +0.000 C 
ATOM     22  O   UNL     1       2.237   2.389  18.061  0.00  0.00    +0.000 OA
BRANCH  21  23
ATOM     23  C   UNL     1       4.044   3.880  17.804  0.00  0.00    +0.000 A 
ATOM     24  C   UNL     1       5.029   4.141  18.770  0.00  0.00    +0.000 A 
ATOM     25  C   UNL     1       6.329   4.474  18.376  0.00  0.00    +0.000 A 
ATOM     26  C   UNL     1       6.643   4.544  17.024  0.00  0.00    +0.000 A 
ATOM     27  F   UNL     1       7.883   4.883  16.652  0.00  0.00    +0.000 F 
ATOM     28  C   UNL     1       5.686   4.273  16.055  0.00  0.00    +0.000 A 
ATOM     29  C   UNL     1       4.387   3.939  16.445  0.00  0.00    +0.000 A 
ENDBRANCH  21  23
ENDBRANCH  18  21
ENDBRANCH   6  15
BRANCH   7  30
ATOM     30  O   UNL     1      -0.816   8.138  21.539  0.00  0.00    +0.000 OA
ATOM     31  H   UNL     1      -1.088   7.462  20.889  0.00  0.00    +0.000 HD
ENDBRANCH   7  30
TORSDOF 5
ENDMDL
MODEL 5
REMARK VINA RESULT:      -6.6      2.671      3.724
REMARK  Name = 
REMARK  6 active torsions:
REMARK  status: ('A' for Active; 'I' for Inactive)
REMARK    1  A    between atoms: C_1  and  C_2
REMARK    2  A    between atoms: C_6  and  C_7
REMARK    3  A    between atoms: C_12  and  N_13
REMARK    4  A    between atoms: C_16  and  C_17
REMARK    5  A    between atoms: C_17  and  C_19
REMARK    6  A    between atoms: C_28  and  O_29
REMARK                            x       y       z     vdW  Elec       q    Type
REMARK                         _______ _______ _______ _____ _____    ______ ____
ROOT
ATOM      1  C   UNL     1       0.368  11.896  21.535  0.00  0.00    +0.000 C 
ATOM      2  O   UNL     1      -0.106  12.027  22.669  0.00  0.00    +0.000 OA
ATOM      3  N   UNL     1       0.709  10.606  21.053  0.00  0.00    +0.000 N 
ATOM      4  C   UNL     1       1.189  10.352  19.704  0.00  0.00    +0.000 C 
ATOM      5  C   UNL     1       0.748   9.012  19.159  0.00  0.00    +0.000 C 
ATOM      6  C   UNL     1       1.056   7.791  20.058  0.00  0.00    +0.000 C 
ATOM      7  C   UNL     1       0.592   8.139  21.511  0.00  0.00    +0.000 C 
ATOM      8  C   UNL     1       1.019   9.537  22.013  0.00  0.00    +0.000 C 
ENDROOT
BRANCH   1  14
ATOM      9  C   UNL     1      -1.621  13.083  19.217  0.00  0.00    +0.000 C 
ATOM     10  C   UNL     1      -0.255  13.557  19.616  0.00  0.00    +0.000 A 
ATOM     11  C   UNL     1       0.431  14.587  18.882  0.00  0.00    +0.000 A 
ATOM     12  C   UNL     1       1.622  14.949  19.461  0.00  0.00    +0.000 A 
ATOM     13  S   UNL     1       1.821  14.195  20.972  0.00  0.00    +0.000 S 
ATOM     14  C   UNL     1       0.551  13.062  20.649  0.00  0.00    +0.000 A 
ENDBRANCH   1  14
BRANCH   6  15
ATOM     15  N   UNL     1       2.438   7.216  19.967  0.00  0.00    +0.000 NA
ATOM     16  C   UNL     1       2.902   6.905  18.601  0.00  0.00    +0.000 C 
ATOM     17  C   UNL     1       1.975   5.939  17.863  0.00  0.00    +0.000 C 
ATOM     18  C   UNL     1       1.709   4.638  18.628  0.00  0.00    +0.000 C 
ATOM     19  C   UNL     1       1.748   4.766  20.163  0.00  0.00    +0.000 C 
ATOM     20  C   UNL     1       2.568   5.944  20.724  0.00  0.00    +0.000 C 
BRANCH  18  21
ATOM     21  C   UNL     1       2.637   3.535  18.127  0.00  0.00    +0.000 C 
ATOM     22  O   UNL     1       2.253   2.371  18.021  0.00  0.00    +0.000 OA
BRANCH  21  23
ATOM     23  C   UNL     1       4.056   3.868  17.775  0.00  0.00    +0.000 A 
ATOM     24  C   UNL     1       5.031   4.163  18.740  0.00  0.00    +0.000 A 
ATOM     25  C   UNL     1       6.330   4.499  18.347  0.00  0.00    +0.000 A 
ATOM     26  C   UNL     1       6.654   4.539  16.996  0.00  0.00    +0.000 A 
ATOM     27  F   UNL     1       7.893   4.881  16.625  0.00  0.00    +0.000 F 
ATOM     28  C   UNL     1       5.706   4.234  16.027  0.00  0.00    +0.000 A 
ATOM     29  C   UNL     1       4.408   3.896  16.416  0.00  0.00    +0.000 A 
ENDBRANCH  21  23
ENDBRANCH  18  21
ENDBRANCH   6  15
BRANCH   7  30
ATOM     30  O   UNL     1      -0.848   8.056  21.549  0.00  0.00    +0.000 OA
ATOM     31  H   UNL     1      -1.188   8.860  21.111  0.00  0.00    +0.000 HD
ENDBRANCH   7  30
TORSDOF 5
ENDMDL
MODEL 6
REMARK VINA RESULT:      -6.5      5.584     11.355
REMARK  Name = 
REMARK  6 active torsions:
REMARK  status: ('A' for Active; 'I' for Inactive)
REMARK    1  A    between atoms: C_1  and  C_2
REMARK    2  A    between atoms: C_6  and  C_7
REMARK    3  A    between atoms: C_12  and  N_13
REMARK    4  A    between atoms: C_16  and  C_17
REMARK    5  A    between atoms: C_17  and  C_19
REMARK    6  A    between atoms: C_28  and  O_29
REMARK                            x       y       z     vdW  Elec       q    Type
REMARK                         _______ _______ _______ _____ _____    ______ ____
ROOT
ATOM      1  C   UNL     1       3.385   7.152  17.594  0.00  0.00    +0.000 C 
ATOM      2  O   UNL     1       3.670   7.529  16.453  0.00  0.00    +0.000 OA
ATOM      3  N   UNL     1       2.602   7.979  18.442  0.00  0.00    +0.000 N 
ATOM      4  C   UNL     1       2.150   7.577  19.764  0.00  0.00    +0.000 C 
ATOM      5  C   UNL     1       0.800   8.151  20.129  0.00  0.00    +0.000 C 
ATOM      6  C   UNL     1       0.662   9.685  19.977  0.00  0.00    +0.000 C 
ATOM      7  C   UNL     1       1.230  10.078  18.573  0.00  0.00    +0.000 C 
ATOM      8  C   UNL     1       2.587   9.431  18.216  0.00  0.00    +0.000 C 
ENDROOT
BRANCH   1  14
ATOM      9  C   UNL     1       1.697   4.349  17.772  0.00  0.00    +0.000 C 
ATOM     10  C   UNL     1       3.099   4.632  18.224  0.00  0.00    +0.000 A 
ATOM     11  C   UNL     1       3.868   3.658  18.952  0.00  0.00    +0.000 A 
ATOM     12  C   UNL     1       5.158   4.066  19.188  0.00  0.00    +0.000 A 
ATOM     13  S   UNL     1       5.494   5.523  18.376  0.00  0.00    +0.000 S 
ATOM     14  C   UNL     1       3.814   5.828  18.086  0.00  0.00    +0.000 A 
ENDBRANCH   1  14
BRANCH   6  15
ATOM     15  N   UNL     1       1.170  10.524  21.110  0.00  0.00    +0.000 NA
ATOM     16  C   UNL     1       0.490  10.313  22.404  0.00  0.00    +0.000 C 
ATOM     17  C   UNL     1      -1.019  10.544  22.328  0.00  0.00    +0.000 C 
ATOM     18  C   UNL     1      -1.403  11.915  21.759  0.00  0.00    +0.000 C 
ATOM     19  C   UNL     1      -0.406  12.499  20.740  0.00  0.00    +0.000 C 
ATOM     20  C   UNL     1       1.041  11.979  20.834  0.00  0.00    +0.000 C 
BRANCH  18  21
ATOM     21  C   UNL     1      -1.691  12.892  22.895  0.00  0.00    +0.000 C 
ATOM     22  O   UNL     1      -0.784  13.379  23.569  0.00  0.00    +0.000 OA
BRANCH  21  23
ATOM     23  C   UNL     1      -3.111  13.255  23.214  0.00  0.00    +0.000 A 
ATOM     24  C   UNL     1      -3.747  14.386  22.680  0.00  0.00    +0.000 A 
ATOM     25  C   UNL     1      -5.062  14.690  23.043  0.00  0.00    +0.000 A 
ATOM     26  C   UNL     1      -5.740  13.866  23.934  0.00  0.00    +0.000 A 
ATOM     27  F   UNL     1      -6.992  14.174  24.294  0.00  0.00    +0.000 F 
ATOM     28  C   UNL     1      -5.133  12.734  24.461  0.00  0.00    +0.000 A 
ATOM     29  C   UNL     1      -3.819  12.426  24.099  0.00  0.00    +0.000 A 
ENDBRANCH  21  23
ENDBRANCH  18  21
ENDBRANCH   6  15
BRANCH   7  30
ATOM     30  O   UNL     1       0.259   9.691  17.577  0.00  0.00    +0.000 OA
ATOM     31  H   UNL     1      -0.586  10.112  17.830  0.00  0.00    +0.000 HD
ENDBRANCH   7  30
TORSDOF 5
ENDMDL
MODEL 7
REMARK VINA RESULT:      -6.3      3.523      6.252
REMARK  Name = 
REMARK  6 active torsions:
REMARK  status: ('A' for Active; 'I' for Inactive)
REMARK    1  A    between atoms: C_1  and  C_2
REMARK    2  A    between atoms: C_6  and  C_7
REMARK    3  A    between atoms: C_12  and  N_13
REMARK    4  A    between atoms: C_16  and  C_17
REMARK    5  A    between atoms: C_17  and  C_19
REMARK    6  A    between atoms: C_28  and  O_29
REMARK                            x       y       z     vdW  Elec       q    Type
REMARK                         _______ _______ _______ _____ _____    ______ ____
ROOT
ATOM      1  C   UNL     1      -0.779  15.327  19.904  0.00  0.00    +0.000 C 
ATOM      2  O   UNL     1      -0.530  16.063  18.943  0.00  0.00    +0.000 OA
ATOM      3  N   UNL     1      -0.355  13.973  19.890  0.00  0.00    +0.000 N 
ATOM      4  C   UNL     1      -0.529  13.064  21.012  0.00  0.00    +0.000 C 
ATOM      5  C   UNL     1       0.588  12.053  21.136  0.00  0.00    +0.000 C 
ATOM      6  C   UNL     1       0.903  11.243  19.855  0.00  0.00    +0.000 C 
ATOM      7  C   UNL     1       1.007  12.254  18.665  0.00  0.00    +0.000 C 
ATOM      8  C   UNL     1      -0.127  13.302  18.602  0.00  0.00    +0.000 C 
ENDROOT
BRANCH   1  14
ATOM      9  C   UNL     1      -3.862  14.816  20.887  0.00  0.00    +0.000 C 
ATOM     10  C   UNL     1      -2.810  15.686  21.508  0.00  0.00    +0.000 A 
ATOM     11  C   UNL     1      -3.105  16.551  22.620  0.00  0.00    +0.000 A 
ATOM     12  C   UNL     1      -1.992  17.189  23.108  0.00  0.00    +0.000 A 
ATOM     13  S   UNL     1      -0.579  16.608  22.360  0.00  0.00    +0.000 S 
ATOM     14  C   UNL     1      -1.482  15.844  21.095  0.00  0.00    +0.000 A 
ENDBRANCH   1  14
BRANCH   6  15
ATOM     15  N   UNL     1       0.040  10.048  19.582  0.00  0.00    +0.000 NA
ATOM     16  C   UNL     1      -0.067   9.082  20.694  0.00  0.00    +0.000 C 
ATOM     17  C   UNL     1       1.290   8.549  21.152  0.00  0.00    +0.000 C 
ATOM     18  C   UNL     1       2.126   7.943  20.019  0.00  0.00    +0.000 C 
ATOM     19  C   UNL     1       1.889   8.566  18.630  0.00  0.00    +0.000 C 
ATOM     20  C   UNL     1       0.527   9.256  18.422  0.00  0.00    +0.000 C 
BRANCH  18  21
ATOM     21  C   UNL     1       1.962   6.427  19.997  0.00  0.00    +0.000 C 
ATOM     22  O   UNL     1       1.217   5.850  20.790  0.00  0.00    +0.000 OA
BRANCH  21  23
ATOM     23  C   UNL     1       2.738   5.614  19.005  0.00  0.00    +0.000 A 
ATOM     24  C   UNL     1       2.128   4.725  18.106  0.00  0.00    +0.000 A 
ATOM     25  C   UNL     1       2.909   3.968  17.227  0.00  0.00    +0.000 A 
ATOM     26  C   UNL     1       4.292   4.100  17.245  0.00  0.00    +0.000 A 
ATOM     27  F   UNL     1       5.036   3.358  16.416  0.00  0.00    +0.000 F 
ATOM     28  C   UNL     1       4.912   4.986  18.117  0.00  0.00    +0.000 A 
ATOM     29  C   UNL     1       4.135   5.745  18.995  0.00  0.00    +0.000 A 
ENDBRANCH  21  23
ENDBRANCH  18  21
ENDBRANCH   6  15
BRANCH   7  30
ATOM     30  O   UNL     1       2.268  12.945  18.779  0.00  0.00    +0.000 OA
ATOM     31  H   UNL     1       2.932  12.278  19.039  0.00  0.00    +0.000 HD
ENDBRANCH   7  30
TORSDOF 5
ENDMDL
MODEL 8
REMARK VINA RESULT:      -6.3      4.693      7.528
REMARK  Name = 
REMARK  6 active torsions:
REMARK  status: ('A' for Active; 'I' for Inactive)
REMARK    1  A    between atoms: C_1  and  C_2
REMARK    2  A    between atoms: C_6  and  C_7
REMARK    3  A    between atoms: C_12  and  N_13
REMARK    4  A    between atoms: C_16  and  C_17
REMARK    5  A    between atoms: C_17  and  C_19
REMARK    6  A    between atoms: C_28  and  O_29
REMARK                            x       y       z     vdW  Elec       q    Type
REMARK                         _______ _______ _______ _____ _____    ______ ____
ROOT
ATOM      1  C   UNL     1      -4.844  14.521  22.037  0.00  0.00    +0.000 C 
ATOM      2  O   UNL     1      -4.856  14.967  23.189  0.00  0.00    +0.000 OA
ATOM      3  N   UNL     1      -3.754  13.728  21.593  0.00  0.00    +0.000 N 
ATOM      4  C   UNL     1      -3.701  13.093  20.286  0.00  0.00    +0.000 C 
ATOM      5  C   UNL     1      -2.969  11.770  20.299  0.00  0.00    +0.000 C 
ATOM      6  C   UNL     1      -1.554  11.794  20.922  0.00  0.00    +0.000 C 
ATOM      7  C   UNL     1      -1.647  12.551  22.289  0.00  0.00    +0.000 C 
ATOM      8  C   UNL     1      -2.445  13.874  22.246  0.00  0.00    +0.000 C 
ENDROOT
BRANCH   1  14
ATOM      9  C   UNL     1      -7.604  12.804  21.621  0.00  0.00    +0.000 C 
ATOM     10  C   UNL     1      -7.133  14.020  20.880  0.00  0.00    +0.000 A 
ATOM     11  C   UNL     1      -7.842  14.529  19.735  0.00  0.00    +0.000 A 
ATOM     12  C   UNL     1      -7.311  15.702  19.259  0.00  0.00    +0.000 A 
ATOM     13  S   UNL     1      -6.092  16.284  20.292  0.00  0.00    +0.000 S 
ATOM     14  C   UNL     1      -5.971  14.766  21.116  0.00  0.00    +0.000 A 
ENDBRANCH   1  14
BRANCH   6  15
ATOM     15  N   UNL     1      -0.432  12.246  20.036  0.00  0.00    +0.000 NA
ATOM     16  C   UNL     1      -0.490  11.753  18.646  0.00  0.00    +0.000 C 
ATOM     17  C   UNL     1      -0.532  10.227  18.557  0.00  0.00    +0.000 C 
ATOM     18  C   UNL     1       0.614   9.537  19.304  0.00  0.00    +0.000 C 
ATOM     19  C   UNL     1       1.140  10.297  20.537  0.00  0.00    +0.000 C 
ATOM     20  C   UNL     1       0.896  11.819  20.548  0.00  0.00    +0.000 C 
BRANCH  18  21
ATOM     21  C   UNL     1       1.737   9.185  18.333  0.00  0.00    +0.000 C 
ATOM     22  O   UNL     1       2.042   9.934  17.405  0.00  0.00    +0.000 OA
BRANCH  21  23
ATOM     23  C   UNL     1       2.476   7.890  18.495  0.00  0.00    +0.000 A 
ATOM     24  C   UNL     1       2.210   6.988  19.536  0.00  0.00    +0.000 A 
ATOM     25  C   UNL     1       2.957   5.811  19.654  0.00  0.00    +0.000 A 
ATOM     26  C   UNL     1       3.962   5.537  18.734  0.00  0.00    +0.000 A 
ATOM     27  F   UNL     1       4.687   4.419  18.864  0.00  0.00    +0.000 F 
ATOM     28  C   UNL     1       4.228   6.410  17.688  0.00  0.00    +0.000 A 
ATOM     29  C   UNL     1       3.483   7.586  17.566  0.00  0.00    +0.000 A 
ENDBRANCH  21  23
ENDBRANCH  18  21
ENDBRANCH   6  15
BRANCH   7  30
ATOM     30  O   UNL     1      -2.270  11.668  23.244  0.00  0.00    +0.000 OA
ATOM     31  H   UNL     1      -2.919  11.131  22.750  0.00  0.00    +0.000 HD
ENDBRANCH   7  30
TORSDOF 5
ENDMDL
MODEL 9
REMARK VINA RESULT:      -6.3      0.874      1.491
REMARK  Name = 
REMARK  6 active torsions:
REMARK  status: ('A' for Active; 'I' for Inactive)
REMARK    1  A    between atoms: C_1  and  C_2
REMARK    2  A    between atoms: C_6  and  C_7
REMARK    3  A    between atoms: C_12  and  N_13
REMARK    4  A    between atoms: C_16  and  C_17
REMARK    5  A    between atoms: C_17  and  C_19
REMARK    6  A    between atoms: C_28  and  O_29
REMARK                            x       y       z     vdW  Elec       q    Type
REMARK                         _______ _______ _______ _____ _____    ______ ____
ROOT
ATOM      1  C   UNL     1       0.008   8.855  20.871  0.00  0.00    +0.000 C 
ATOM      2  O   UNL     1      -0.557   8.451  21.893  0.00  0.00    +0.000 OA
ATOM      3  N   UNL     1       1.021   8.070  20.261  0.00  0.00    +0.000 N 
ATOM      4  C   UNL     1       1.675   8.429  19.013  0.00  0.00    +0.000 C 
ATOM      5  C   UNL     1       2.059   7.229  18.178  0.00  0.00    +0.000 C 
ATOM      6  C   UNL     1       2.890   6.146  18.906  0.00  0.00    +0.000 C 
ATOM      7  C   UNL     1       2.191   5.848  20.274  0.00  0.00    +0.000 C 
ATOM      8  C   UNL     1       1.769   7.100  21.075  0.00  0.00    +0.000 C 
ENDROOT
BRANCH   1  14
ATOM      9  C   UNL     1      -0.710  11.729  22.272  0.00  0.00    +0.000 C 
ATOM     10  C   UNL     1      -0.745  11.357  20.819  0.00  0.00    +0.000 A 
ATOM     11  C   UNL     1      -1.255  12.259  19.821  0.00  0.00    +0.000 A 
ATOM     12  C   UNL     1      -1.110  11.777  18.544  0.00  0.00    +0.000 A 
ATOM     13  S   UNL     1      -0.197  10.341  18.534  0.00  0.00    +0.000 S 
ATOM     14  C   UNL     1      -0.380  10.134  20.244  0.00  0.00    +0.000 A 
ENDBRANCH   1  14
BRANCH   6  15
ATOM     15  N   UNL     1       4.368   6.378  19.001  0.00  0.00    +0.000 NA
ATOM     16  C   UNL     1       4.990   6.974  17.802  0.00  0.00    +0.000 C 
ATOM     17  C   UNL     1       4.756   6.147  16.537  0.00  0.00    +0.000 C 
ATOM     18  C   UNL     1       5.188   4.683  16.671  0.00  0.00    +0.000 C 
ATOM     19  C   UNL     1       5.081   4.100  18.093  0.00  0.00    +0.000 C 
ATOM     20  C   UNL     1       5.121   5.120  19.248  0.00  0.00    +0.000 C 
BRANCH  18  21
ATOM     21  C   UNL     1       6.583   4.491  16.083  0.00  0.00    +0.000 C 
ATOM     22  O   UNL     1       7.573   4.369  16.804  0.00  0.00    +0.000 OA
BRANCH  21  23
ATOM     23  C   UNL     1       6.760   4.472  14.594  0.00  0.00    +0.000 A 
ATOM     24  C   UNL     1       6.058   3.592  13.756  0.00  0.00    +0.000 A 
ATOM     25  C   UNL     1       6.293   3.599  12.377  0.00  0.00    +0.000 A 
ATOM     26  C   UNL     1       7.222   4.481  11.839  0.00  0.00    +0.000 A 
ATOM     27  F   UNL     1       7.457   4.468  10.522  0.00  0.00    +0.000 F 
ATOM     28  C   UNL     1       7.914   5.370  12.652  0.00  0.00    +0.000 A 
ATOM     29  C   UNL     1       7.681   5.367  14.029  0.00  0.00    +0.000 A 
ENDBRANCH  21  23
ENDBRANCH  18  21
ENDBRANCH   6  15
BRANCH   7  30
ATOM     30  O   UNL     1       1.017   5.052  20.008  0.00  0.00    +0.000 OA
ATOM     31  H   UNL     1       0.720   4.693  20.866  0.00  0.00    +0.000 HD
ENDBRANCH   7  30
TORSDOF 5
ENDMDL
