MODEL 1
REMARK VINA RESULT:      -7.8      0.000      0.000
REMARK  Name = 
REMARK  2 active torsions:
REMARK  status: ('A' for Active; 'I' for Inactive)
REMARK    1  A    between atoms: C_6  and  N_7
REMARK    2  A    between atoms: C_10  and  C_11
REMARK                            x       y       z     vdW  Elec       q    Type
REMARK                         _______ _______ _______ _____ _____    ______ ____
ROOT
ATOM      1  N   UNL     1       2.676   6.194  18.828  0.00  0.00    +0.000 N 
ATOM      2  C   UNL     1       2.209   7.450  19.034  0.00  0.00    +0.000 A 
ATOM      3  N   UNL     1       1.539   7.875  20.082  0.00  0.00    +0.000 NA
ATOM      4  C   UNL     1       1.104   9.172  19.915  0.00  0.00    +0.000 A 
ATOM      5  C   UNL     1       1.493   9.759  18.728  0.00  0.00    +0.000 A 
ATOM      6  S   UNL     1       2.446   8.659  17.821  0.00  0.00    +0.000 S 
ATOM      7  H   UNL     1       3.151   6.037  17.949  0.00  0.00    +0.000 HD
ENDROOT
BRANCH   1  13
ATOM      8  F   UNL     1       0.346   1.959  18.692  0.00  0.00    +0.000 F 
ATOM      9  C   UNL     1       1.037   2.877  19.380  0.00  0.00    +0.000 A 
ATOM     10  C   UNL     1       1.351   2.639  20.710  0.00  0.00    +0.000 A 
ATOM     11  C   UNL     1       2.066   3.599  21.420  0.00  0.00    +0.000 A 
ATOM     12  C   UNL     1       2.470   4.780  20.787  0.00  0.00    +0.000 A 
ATOM     13  C   UNL     1       2.179   5.019  19.431  0.00  0.00    +0.000 A 
ATOM     14  C   UNL     1       1.435   4.049  18.746  0.00  0.00    +0.000 A 
ENDBRANCH   1  13
BRANCH   4  15
ATOM     15  C   UNL     1       0.316   9.823  20.951  0.00  0.00    +0.000 A 
ATOM     16  C   UNL     1       0.264   9.253  22.234  0.00  0.00    +0.000 A 
ATOM     17  C   UNL     1      -0.477   9.854  23.254  0.00  0.00    +0.000 A 
ATOM     18  C   UNL     1      -1.183  11.027  23.000  0.00  0.00    +0.000 A 
ATOM     19  C   UNL     1      -1.152  11.587  21.724  0.00  0.00    +0.000 A 
ATOM     20 BR   UNL     1      -2.128  13.168  21.372  0.00  0.00    +0.000 Br
ATOM     21  C   UNL     1      -0.413  10.992  20.700  0.00  0.00    +0.000 A 
ENDBRANCH   4  15
TORSDOF 2
ENDMDL
MODEL 2
REMARK VINA RESULT:      -7.7      1.005      1.469
REMARK  Name = 
REMARK  2 active torsions:
REMARK  status: ('A' for Active; 'I' for Inactive)
REMARK    1  A    between atoms: C_6  and  N_7
REMARK    2  A    between atoms: C_10  and  C_11
REMARK                            x       y       z     vdW  Elec       q    Type
REMARK                         _______ _______ _______ _____ _____    ______ ____
ROOT
ATOM      1  N   UNL     1       2.741   6.339  18.617  0.00  0.00    +0.000 N 
ATOM      2  C   UNL     1       2.236   7.568  18.883  0.00  0.00    +0.000 A 
ATOM      3  N   UNL     1       1.597   7.934  19.971  0.00  0.00    +0.000 NA
ATOM      4  C   UNL     1       1.105   9.218  19.864  0.00  0.00    +0.000 A 
ATOM      5  C   UNL     1       1.420   9.856  18.681  0.00  0.00    +0.000 A 
ATOM      6  S   UNL     1       2.373   8.822  17.699  0.00  0.00    +0.000 S 
ATOM      7  H   UNL     1       3.183   6.228  17.714  0.00  0.00    +0.000 HD
ENDROOT
BRANCH   1  13
ATOM      8  F   UNL     1       2.223   3.341  22.376  0.00  0.00    +0.000 F 
ATOM      9  C   UNL     1       2.021   3.618  21.082  0.00  0.00    +0.000 A 
ATOM     10  C   UNL     1       1.298   2.729  20.299  0.00  0.00    +0.000 A 
ATOM     11  C   UNL     1       1.094   3.021  18.953  0.00  0.00    +0.000 A 
ATOM     12  C   UNL     1       1.604   4.207  18.411  0.00  0.00    +0.000 A 
ATOM     13  C   UNL     1       2.316   5.127  19.203  0.00  0.00    +0.000 A 
ATOM     14  C   UNL     1       2.530   4.797  20.547  0.00  0.00    +0.000 A 
ENDBRANCH   1  13
BRANCH   4  15
ATOM     15  C   UNL     1       0.339   9.806  20.952  0.00  0.00    +0.000 A 
ATOM     16  C   UNL     1       0.329   9.172  22.205  0.00  0.00    +0.000 A 
ATOM     17  C   UNL     1      -0.391   9.710  23.275  0.00  0.00    +0.000 A 
ATOM     18  C   UNL     1      -1.117  10.886  23.100  0.00  0.00    +0.000 A 
ATOM     19  C   UNL     1      -1.128  11.509  21.853  0.00  0.00    +0.000 A 
ATOM     20 BR   UNL     1      -2.132  13.093  21.607  0.00  0.00    +0.000 Br
ATOM     21  C   UNL     1      -0.410  10.976  20.780  0.00  0.00    +0.000 A 
ENDBRANCH   4  15
TORSDOF 2
ENDMDL
MODEL 3
REMARK VINA RESULT:      -7.6      6.259      8.346
REMARK  Name = 
REMARK  2 active torsions:
REMARK  status: ('A' for Active; 'I' for Inactive)
REMARK    1  A    between atoms: C_6  and  N_7
REMARK    2  A    between atoms: C_10  and  C_11
REMARK                            x       y       z     vdW  Elec       q    Type
REMARK                         _______ _______ _______ _____ _____    ______ ____
ROOT
ATOM      1  N   UNL     1       7.583   5.323  15.488  0.00  0.00    +0.000 N 
ATOM      2  C   UNL     1       6.803   5.210  16.590  0.00  0.00    +0.000 A 
ATOM      3  N   UNL     1       5.850   4.328  16.789  0.00  0.00    +0.000 NA
ATOM      4  C   UNL     1       5.167   4.573  17.962  0.00  0.00    +0.000 A 
ATOM      5  C   UNL     1       5.646   5.642  18.691  0.00  0.00    +0.000 A 
ATOM      6  S   UNL     1       6.997   6.333  17.891  0.00  0.00    +0.000 S 
ATOM      7  H   UNL     1       8.254   6.080  15.495  0.00  0.00    +0.000 HD
ENDROOT
BRANCH   1  13
ATOM      8  F   UNL     1       4.862   2.778  12.405  0.00  0.00    +0.000 F 
ATOM      9  C   UNL     1       5.892   3.603  12.628  0.00  0.00    +0.000 A 
ATOM     10  C   UNL     1       6.625   4.085  11.552  0.00  0.00    +0.000 A 
ATOM     11  C   UNL     1       7.697   4.940  11.790  0.00  0.00    +0.000 A 
ATOM     12  C   UNL     1       8.015   5.314  13.101  0.00  0.00    +0.000 A 
ATOM     13  C   UNL     1       7.261   4.852  14.196  0.00  0.00    +0.000 A 
ATOM     14  C   UNL     1       6.204   3.972  13.932  0.00  0.00    +0.000 A 
ENDBRANCH   1  13
BRANCH   4  15
ATOM     15  C   UNL     1       4.051   3.726  18.355  0.00  0.00    +0.000 A 
ATOM     16  C   UNL     1       3.409   2.942  17.381  0.00  0.00    +0.000 A 
ATOM     17  C   UNL     1       2.339   2.112  17.723  0.00  0.00    +0.000 A 
ATOM     18  C   UNL     1       1.891   2.065  19.041  0.00  0.00    +0.000 A 
ATOM     19  C   UNL     1       2.510   2.856  20.007  0.00  0.00    +0.000 A 
ATOM     20 BR   UNL     1       1.889   2.810  21.793  0.00  0.00    +0.000 Br
ATOM     21  C   UNL     1       3.581   3.687  19.673  0.00  0.00    +0.000 A 
ENDBRANCH   4  15
TORSDOF 2
ENDMDL
MODEL 4
REMARK VINA RESULT:      -7.6      3.590      4.726
REMARK  Name = 
REMARK  2 active torsions:
REMARK  status: ('A' for Active; 'I' for Inactive)
REMARK    1  A    between atoms: C_6  and  N_7
REMARK    2  A    between atoms: C_10  and  C_11
REMARK                            x       y       z     vdW  Elec       q    Type
REMARK                         _______ _______ _______ _____ _____    ______ ____
ROOT
ATOM      1  N   UNL     1       3.987   3.756  18.522  0.00  0.00    +0.000 N 
ATOM      2  C   UNL     1       3.196   4.664  19.144  0.00  0.00    +0.000 A 
ATOM      3  N   UNL     1       2.936   5.886  18.739  0.00  0.00    +0.000 NA
ATOM      4  C   UNL     1       2.199   6.586  19.671  0.00  0.00    +0.000 A 
ATOM      5  C   UNL     1       1.855   5.858  20.792  0.00  0.00    +0.000 A 
ATOM      6  S   UNL     1       2.453   4.257  20.652  0.00  0.00    +0.000 S 
ATOM      7  H   UNL     1       4.095   2.867  18.992  0.00  0.00    +0.000 HD
ENDROOT
BRANCH   1  13
ATOM      8  F   UNL     1       5.706   4.306  14.035  0.00  0.00    +0.000 F 
ATOM      9  C   UNL     1       5.894   4.359  15.360  0.00  0.00    +0.000 A 
ATOM     10  C   UNL     1       7.112   4.797  15.859  0.00  0.00    +0.000 A 
ATOM     11  C   UNL     1       7.302   4.847  17.237  0.00  0.00    +0.000 A 
ATOM     12  C   UNL     1       6.265   4.471  18.100  0.00  0.00    +0.000 A 
ATOM     13  C   UNL     1       5.017   4.051  17.603  0.00  0.00    +0.000 A 
ATOM     14  C   UNL     1       4.861   3.984  16.213  0.00  0.00    +0.000 A 
ENDBRANCH   1  13
BRANCH   4  15
ATOM     15  C   UNL     1       1.829   7.972  19.428  0.00  0.00    +0.000 A 
ATOM     16  C   UNL     1       2.150   8.561  18.194  0.00  0.00    +0.000 A 
ATOM     17  C   UNL     1       1.805   9.887  17.923  0.00  0.00    +0.000 A 
ATOM     18  C   UNL     1       1.144  10.643  18.888  0.00  0.00    +0.000 A 
ATOM     19  C   UNL     1       0.841  10.070  20.122  0.00  0.00    +0.000 A 
ATOM     20 BR   UNL     1      -0.038  11.102  21.442  0.00  0.00    +0.000 Br
ATOM     21  C   UNL     1       1.182   8.745  20.399  0.00  0.00    +0.000 A 
ENDBRANCH   4  15
TORSDOF 2
ENDMDL
MODEL 5
REMARK VINA RESULT:      -7.5      6.591      8.492
REMARK  Name = 
REMARK  2 active torsions:
REMARK  status: ('A' for Active; 'I' for Inactive)
REMARK    1  A    between atoms: C_6  and  N_7
REMARK    2  A    between atoms: C_10  and  C_11
REMARK                            x       y       z     vdW  Elec       q    Type
REMARK                         _______ _______ _______ _____ _____    ______ ____
ROOT
ATOM      1  N   UNL     1       7.611   5.077  15.669  0.00  0.00    +0.000 N 
ATOM      2  C   UNL     1       6.855   4.946  16.786  0.00  0.00    +0.000 A 
ATOM      3  N   UNL     1       5.811   4.163  16.938  0.00  0.00    +0.000 NA
ATOM      4  C   UNL     1       5.195   4.367  18.155  0.00  0.00    +0.000 A 
ATOM      5  C   UNL     1       5.816   5.298  18.963  0.00  0.00    +0.000 A 
ATOM      6  S   UNL     1       7.215   5.906  18.179  0.00  0.00    +0.000 S 
ATOM      7  H   UNL     1       8.366   5.748  15.722  0.00  0.00    +0.000 HD
ENDROOT
BRANCH   1  13
ATOM      8  F   UNL     1       7.827   5.642  10.871  0.00  0.00    +0.000 F 
ATOM      9  C   UNL     1       7.311   5.023  11.940  0.00  0.00    +0.000 A 
ATOM     10  C   UNL     1       6.400   3.992  11.758  0.00  0.00    +0.000 A 
ATOM     11  C   UNL     1       5.864   3.355  12.874  0.00  0.00    +0.000 A 
ATOM     12  C   UNL     1       6.256   3.749  14.158  0.00  0.00    +0.000 A 
ATOM     13  C   UNL     1       7.199   4.775  14.353  0.00  0.00    +0.000 A 
ATOM     14  C   UNL     1       7.703   5.417  13.215  0.00  0.00    +0.000 A 
ENDBRANCH   1  13
BRANCH   4  15
ATOM     15  C   UNL     1       3.998   3.618  18.510  0.00  0.00    +0.000 A 
ATOM     16  C   UNL     1       3.288   2.943  17.503  0.00  0.00    +0.000 A 
ATOM     17  C   UNL     1       2.139   2.209  17.808  0.00  0.00    +0.000 A 
ATOM     18  C   UNL     1       1.683   2.149  19.122  0.00  0.00    +0.000 A 
ATOM     19  C   UNL     1       2.372   2.833  20.122  0.00  0.00    +0.000 A 
ATOM     20 BR   UNL     1       1.740   2.772  21.904  0.00  0.00    +0.000 Br
ATOM     21  C   UNL     1       3.521   3.568  19.825  0.00  0.00    +0.000 A 
ENDBRANCH   4  15
TORSDOF 2
ENDMDL
MODEL 6
REMARK VINA RESULT:      -7.5      4.003      5.210
REMARK  Name = 
REMARK  2 active torsions:
REMARK  status: ('A' for Active; 'I' for Inactive)
REMARK    1  A    between atoms: C_6  and  N_7
REMARK    2  A    between atoms: C_10  and  C_11
REMARK                            x       y       z     vdW  Elec       q    Type
REMARK                         _______ _______ _______ _____ _____    ______ ____
ROOT
ATOM      1  N   UNL     1       4.254   3.548  18.041  0.00  0.00    +0.000 N 
ATOM      2  C   UNL     1       3.441   4.209  18.900  0.00  0.00    +0.000 A 
ATOM      3  N   UNL     1       3.031   5.453  18.792  0.00  0.00    +0.000 NA
ATOM      4  C   UNL     1       2.319   5.853  19.903  0.00  0.00    +0.000 A 
ATOM      5  C   UNL     1       2.148   4.872  20.858  0.00  0.00    +0.000 A 
ATOM      6  S   UNL     1       2.879   3.413  20.329  0.00  0.00    +0.000 S 
ATOM      7  H   UNL     1       4.487   2.597  18.296  0.00  0.00    +0.000 HD
ENDROOT
BRANCH   1  13
ATOM      8  F   UNL     1       7.761   6.690  16.941  0.00  0.00    +0.000 F 
ATOM      9  C   UNL     1       6.944   5.694  16.575  0.00  0.00    +0.000 A 
ATOM     10  C   UNL     1       7.043   5.166  15.296  0.00  0.00    +0.000 A 
ATOM     11  C   UNL     1       6.189   4.133  14.920  0.00  0.00    +0.000 A 
ATOM     12  C   UNL     1       5.255   3.632  15.834  0.00  0.00    +0.000 A 
ATOM     13  C   UNL     1       5.165   4.144  17.142  0.00  0.00    +0.000 A 
ATOM     14  C   UNL     1       6.017   5.200  17.486  0.00  0.00    +0.000 A 
ENDBRANCH   1  13
BRANCH   4  15
ATOM     15  C   UNL     1       1.800   7.210  19.996  0.00  0.00    +0.000 A 
ATOM     16  C   UNL     1       1.918   8.067  18.889  0.00  0.00    +0.000 A 
ATOM     17  C   UNL     1       1.426   9.373  18.940  0.00  0.00    +0.000 A 
ATOM     18  C   UNL     1       0.818   9.840  20.103  0.00  0.00    +0.000 A 
ATOM     19  C   UNL     1       0.716   9.001  21.212  0.00  0.00    +0.000 A 
ATOM     20 BR   UNL     1      -0.089   9.641  22.799  0.00  0.00    +0.000 Br
ATOM     21  C   UNL     1       1.206   7.694  21.167  0.00  0.00    +0.000 A 
ENDBRANCH   4  15
TORSDOF 2
ENDMDL
MODEL 7
REMARK VINA RESULT:      -7.5      4.861      7.880
REMARK  Name = 
REMARK  2 active torsions:
REMARK  status: ('A' for Active; 'I' for Inactive)
REMARK    1  A    between atoms: C_6  and  N_7
REMARK    2  A    between atoms: C_10  and  C_11
REMARK                            x       y       z     vdW  Elec       q    Type
REMARK                         _______ _______ _______ _____ _____    ______ ____
ROOT
ATOM      1  N   UNL     1       1.833   6.204  20.856  0.00  0.00    +0.000 N 
ATOM      2  C   UNL     1       2.625   5.283  20.256  0.00  0.00    +0.000 A 
ATOM      3  N   UNL     1       3.622   5.521  19.434  0.00  0.00    +0.000 NA
ATOM      4  C   UNL     1       4.134   4.356  18.904  0.00  0.00    +0.000 A 
ATOM      5  C   UNL     1       3.538   3.203  19.372  0.00  0.00    +0.000 A 
ATOM      6  S   UNL     1       2.326   3.600  20.520  0.00  0.00    +0.000 S 
ATOM      7  H   UNL     1       1.094   5.839  21.442  0.00  0.00    +0.000 HD
ENDROOT
BRANCH   1  13
ATOM      8  F   UNL     1       1.848   9.623  17.436  0.00  0.00    +0.000 F 
ATOM      9  C   UNL     1       1.584   9.247  18.694  0.00  0.00    +0.000 A 
ATOM     10  C   UNL     1       0.994  10.150  19.566  0.00  0.00    +0.000 A 
ATOM     11  C   UNL     1       0.724   9.754  20.873  0.00  0.00    +0.000 A 
ATOM     12  C   UNL     1       1.036   8.454  21.287  0.00  0.00    +0.000 A 
ATOM     13  C   UNL     1       1.610   7.522  20.402  0.00  0.00    +0.000 A 
ATOM     14  C   UNL     1       1.895   7.954  19.101  0.00  0.00    +0.000 A 
ENDBRANCH   1  13
BRANCH   4  15
ATOM     15  C   UNL     1       5.229   4.402  17.946  0.00  0.00    +0.000 A 
ATOM     16  C   UNL     1       6.524   4.703  18.398  0.00  0.00    +0.000 A 
ATOM     17  C   UNL     1       7.600   4.749  17.507  0.00  0.00    +0.000 A 
ATOM     18  C   UNL     1       7.389   4.504  16.153  0.00  0.00    +0.000 A 
ATOM     19  C   UNL     1       6.102   4.226  15.695  0.00  0.00    +0.000 A 
ATOM     20 BR   UNL     1       5.812   3.915  13.852  0.00  0.00    +0.000 Br
ATOM     21  C   UNL     1       5.023   4.177  16.580  0.00  0.00    +0.000 A 
ENDBRANCH   4  15
TORSDOF 2
ENDMDL
MODEL 8
REMARK VINA RESULT:      -7.3      1.255      1.423
REMARK  Name = 
REMARK  2 active torsions:
REMARK  status: ('A' for Active; 'I' for Inactive)
REMARK    1  A    between atoms: C_6  and  N_7
REMARK    2  A    between atoms: C_10  and  C_11
REMARK                            x       y       z     vdW  Elec       q    Type
REMARK                         _______ _______ _______ _____ _____    ______ ____
ROOT
ATOM      1  N   UNL     1       3.057   6.077  18.823  0.00  0.00    +0.000 N 
ATOM      2  C   UNL     1       2.469   7.283  19.008  0.00  0.00    +0.000 A 
ATOM      3  N   UNL     1       1.855   7.698  20.093  0.00  0.00    +0.000 NA
ATOM      4  C   UNL     1       1.258   8.926  19.902  0.00  0.00    +0.000 A 
ATOM      5  C   UNL     1       1.463   9.475  18.653  0.00  0.00    +0.000 A 
ATOM      6  S   UNL     1       2.448   8.431  17.714  0.00  0.00    +0.000 S 
ATOM      7  H   UNL     1       3.463   5.918  17.910  0.00  0.00    +0.000 HD
ENDROOT
BRANCH   1  13
ATOM      8  F   UNL     1       4.316   1.941  20.991  0.00  0.00    +0.000 F 
ATOM      9  C   UNL     1       3.372   2.828  20.652  0.00  0.00    +0.000 A 
ATOM     10  C   UNL     1       2.067   2.632  21.079  0.00  0.00    +0.000 A 
ATOM     11  C   UNL     1       1.089   3.556  20.721  0.00  0.00    +0.000 A 
ATOM     12  C   UNL     1       1.433   4.673  19.950  0.00  0.00    +0.000 A 
ATOM     13  C   UNL     1       2.759   4.895  19.535  0.00  0.00    +0.000 A 
ATOM     14  C   UNL     1       3.718   3.937  19.886  0.00  0.00    +0.000 A 
ENDBRANCH   1  13
BRANCH   4  15
ATOM     15  C   UNL     1       0.499   9.551  20.976  0.00  0.00    +0.000 A 
ATOM     16  C   UNL     1       0.531   8.982  22.259  0.00  0.00    +0.000 A 
ATOM     17  C   UNL     1      -0.180   9.558  23.315  0.00  0.00    +0.000 A 
ATOM     18  C   UNL     1      -0.939  10.705  23.096  0.00  0.00    +0.000 A 
ATOM     19  C   UNL     1      -0.991  11.263  21.820  0.00  0.00    +0.000 A 
ATOM     20 BR   UNL     1      -2.039  12.808  21.515  0.00  0.00    +0.000 Br
ATOM     21  C   UNL     1      -0.282  10.692  20.760  0.00  0.00    +0.000 A 
ENDBRANCH   4  15
TORSDOF 2
ENDMDL
MODEL 9
REMARK VINA RESULT:      -7.2      4.896      7.962
REMARK  Name = 
REMARK  2 active torsions:
REMARK  status: ('A' for Active; 'I' for Inactive)
REMARK    1  A    between atoms: C_6  and  N_7
REMARK    2  A    between atoms: C_10  and  C_11
REMARK                            x       y       z     vdW  Elec       q    Type
REMARK                         _______ _______ _______ _____ _____    ______ ____
ROOT
ATOM      1  N   UNL     1       1.645   6.835  20.704  0.00  0.00    +0.000 N 
ATOM      2  C   UNL     1       2.450   5.845  20.249  0.00  0.00    +0.000 A 
ATOM      3  N   UNL     1       3.487   5.981  19.453  0.00  0.00    +0.000 NA
ATOM      4  C   UNL     1       4.007   4.760  19.081  0.00  0.00    +0.000 A 
ATOM      5  C   UNL     1       3.375   3.672  19.647  0.00  0.00    +0.000 A 
ATOM      6  S   UNL     1       2.117   4.205  20.685  0.00  0.00    +0.000 S 
ATOM      7  H   UNL     1       0.875   6.544  21.292  0.00  0.00    +0.000 HD
ENDROOT
BRANCH   1  13
ATOM      8  F   UNL     1       0.393  11.505  20.804  0.00  0.00    +0.000 F 
ATOM      9  C   UNL     1       0.863  10.448  20.130  0.00  0.00    +0.000 A 
ATOM     10  C   UNL     1       1.263  10.604  18.810  0.00  0.00    +0.000 A 
ATOM     11  C   UNL     1       1.748   9.501  18.113  0.00  0.00    +0.000 A 
ATOM     12  C   UNL     1       1.839   8.258  18.750  0.00  0.00    +0.000 A 
ATOM     13  C   UNL     1       1.460   8.096  20.096  0.00  0.00    +0.000 A 
ATOM     14  C   UNL     1       0.951   9.214  20.766  0.00  0.00    +0.000 A 
ENDBRANCH   1  13
BRANCH   4  15
ATOM     15  C   UNL     1       5.144   4.688  18.176  0.00  0.00    +0.000 A 
ATOM     16  C   UNL     1       6.438   4.895  18.682  0.00  0.00    +0.000 A 
ATOM     17  C   UNL     1       7.553   4.828  17.844  0.00  0.00    +0.000 A 
ATOM     18  C   UNL     1       7.386   4.562  16.487  0.00  0.00    +0.000 A 
ATOM     19  C   UNL     1       6.103   4.377  15.975  0.00  0.00    +0.000 A 
ATOM     20 BR   UNL     1       5.872   4.038  14.128  0.00  0.00    +0.000 Br
ATOM     21  C   UNL     1       4.984   4.442  16.807  0.00  0.00    +0.000 A 
ENDBRANCH   4  15
TORSDOF 2
ENDMDL
