MODEL 1
REMARK VINA RESULT:      -8.4      0.000      0.000
REMARK  Name = 
REMARK  11 active torsions:
REMARK  status: ('A' for Active; 'I' for Inactive)
REMARK    1  A    between atoms: C_1  and  O_2
REMARK    2  A    between atoms: O_2  and  C_3
REMARK    3  A    between atoms: C_5  and  C_6
REMARK    4  A    between atoms: C_7  and  C_8
REMARK    5  A    between atoms: C_12  and  C_13
REMARK    6  A    between atoms: C_15  and  C_16
REMARK    7  A    between atoms: C_16  and  C_17
REMARK    8  A    between atoms: C_16  and  C_18
REMARK    9  A    between atoms: C_19  and  C_20
REMARK   10  A    between atoms: C_21  and  C_22
REMARK   11  A    between atoms: C_27  and  N_28
REMARK                            x       y       z     vdW  Elec       q    Type
REMARK                         _______ _______ _______ _____ _____    ______ ____
ROOT
ATOM      1  C   UNL     1       0.759   9.394  21.327  0.00  0.00    +0.000 C 
ATOM      2  C   UNL     1      -0.488   8.907  22.080  0.00  0.00    +0.000 C 
ENDROOT
BRANCH   1   7
ATOM      3  C   UNL     1       0.789  12.498  19.124  0.00  0.00    +0.000 A 
ATOM      4  C   UNL     1      -0.524  12.471  18.632  0.00  0.00    +0.000 A 
ATOM      5  C   UNL     1      -1.396  11.385  18.842  0.00  0.00    +0.000 A 
ATOM      6  C   UNL     1      -0.850  10.316  19.571  0.00  0.00    +0.000 A 
ATOM      7  C   UNL     1       0.384  10.400  20.246  0.00  0.00    +0.000 A 
ATOM      8  C   UNL     1       1.220  11.485  19.975  0.00  0.00    +0.000 A 
BRANCH   5   9
ATOM      9  C   UNL     1      -2.849  11.429  18.434  0.00  0.00    +0.000 A 
ATOM     10  C   UNL     1      -3.310  10.887  17.193  0.00  0.00    +0.000 A 
ATOM     11  C   UNL     1      -2.495  10.015  16.268  0.00  0.00    +0.000 C 
ATOM     12  C   UNL     1      -4.620  11.155  16.733  0.00  0.00    +0.000 A 
ATOM     13  C   UNL     1      -5.528  11.864  17.501  0.00  0.00    +0.000 A 
ATOM     14  C   UNL     1      -5.145  12.305  18.754  0.00  0.00    +0.000 A 
ATOM     15  C   UNL     1      -3.830  12.118  19.228  0.00  0.00    +0.000 A 
ATOM     16  C   UNL     1      -3.582  12.687  20.606  0.00  0.00    +0.000 C 
ENDBRANCH   5   9
BRANCH   3  18
ATOM     17  C   UNL     1       2.833  13.329  18.247  0.00  0.00    +0.000 C 
ATOM     18  O   UNL     1       1.525  13.587  18.745  0.00  0.00    +0.000 OA
ENDBRANCH   3  18
ENDBRANCH   1   7
BRANCH   1  19
ATOM     19  C   UNL     1       1.476   8.242  20.768  0.00  0.00    +0.000 C 
ATOM     20  C   UNL     1       2.041   7.324  20.240  0.00  0.00    +0.000 C 
BRANCH  20  21
ATOM     21  C   UNL     1       2.716   6.286  19.531  0.00  0.00    +0.000 A 
ATOM     22  C   UNL     1       3.228   6.475  18.258  0.00  0.00    +0.000 A 
ATOM     23  C   UNL     1       3.164   7.789  17.537  0.00  0.00    +0.000 C 
ATOM     24  N   UNL     1       3.837   5.470  17.581  0.00  0.00    +0.000 NA
ATOM     25  C   UNL     1       3.897   4.280  18.176  0.00  0.00    +0.000 A 
ATOM     26  N   UNL     1       4.536   3.269  17.487  0.00  0.00    +0.000 N 
ATOM     27  N   UNL     1       3.449   4.007  19.402  0.00  0.00    +0.000 NA
ATOM     28  C   UNL     1       2.848   5.006  20.062  0.00  0.00    +0.000 A 
ATOM     29  H   UNL     1       5.181   3.676  16.824  0.00  0.00    +0.000 HD
ATOM     30  H   UNL     1       4.908   2.598  18.144  0.00  0.00    +0.000 HD
BRANCH  28  31
ATOM     31  N   UNL     1       2.401   4.689  21.353  0.00  0.00    +0.000 N 
ATOM     32  H   UNL     1       2.967   3.917  21.693  0.00  0.00    +0.000 HD
ATOM     33  H   UNL     1       1.408   4.484  21.371  0.00  0.00    +0.000 HD
ENDBRANCH  28  31
ENDBRANCH  20  21
ENDBRANCH   1  19
TORSDOF 6
ENDMDL
MODEL 2
REMARK VINA RESULT:      -8.3      0.544      1.575
REMARK  Name = 
REMARK  11 active torsions:
REMARK  status: ('A' for Active; 'I' for Inactive)
REMARK    1  A    between atoms: C_1  and  O_2
REMARK    2  A    between atoms: O_2  and  C_3
REMARK    3  A    between atoms: C_5  and  C_6
REMARK    4  A    between atoms: C_7  and  C_8
REMARK    5  A    between atoms: C_12  and  C_13
REMARK    6  A    between atoms: C_15  and  C_16
REMARK    7  A    between atoms: C_16  and  C_17
REMARK    8  A    between atoms: C_16  and  C_18
REMARK    9  A    between atoms: C_19  and  C_20
REMARK   10  A    between atoms: C_21  and  C_22
REMARK   11  A    between atoms: C_27  and  N_28
REMARK                            x       y       z     vdW  Elec       q    Type
REMARK                         _______ _______ _______ _____ _____    ______ ____
ROOT
ATOM      1  C   UNL     1       0.775   9.344  21.321  0.00  0.00    +0.000 C 
ATOM      2  C   UNL     1      -0.468   8.870  22.088  0.00  0.00    +0.000 C 
ENDROOT
BRANCH   1   7
ATOM      3  C   UNL     1       0.797  12.520  19.222  0.00  0.00    +0.000 A 
ATOM      4  C   UNL     1      -0.507  12.491  18.707  0.00  0.00    +0.000 A 
ATOM      5  C   UNL     1      -1.367  11.387  18.867  0.00  0.00    +0.000 A 
ATOM      6  C   UNL     1      -0.818  10.302  19.570  0.00  0.00    +0.000 A 
ATOM      7  C   UNL     1       0.404  10.380  20.268  0.00  0.00    +0.000 A 
ATOM      8  C   UNL     1       1.229  11.485  20.046  0.00  0.00    +0.000 A 
BRANCH   5   9
ATOM      9  C   UNL     1      -2.814  11.425  18.438  0.00  0.00    +0.000 A 
ATOM     10  C   UNL     1      -3.254  10.882  17.190  0.00  0.00    +0.000 A 
ATOM     11  C   UNL     1      -2.421  10.014  16.276  0.00  0.00    +0.000 C 
ATOM     12  C   UNL     1      -4.558  11.145  16.710  0.00  0.00    +0.000 A 
ATOM     13  C   UNL     1      -5.480  11.849  17.465  0.00  0.00    +0.000 A 
ATOM     14  C   UNL     1      -5.119  12.292  18.723  0.00  0.00    +0.000 A 
ATOM     15  C   UNL     1      -3.810  12.110  19.217  0.00  0.00    +0.000 A 
ATOM     16  C   UNL     1      -3.585  12.679  20.599  0.00  0.00    +0.000 C 
ENDBRANCH   5   9
BRANCH   3  18
ATOM     17  C   UNL     1       2.755  13.407  18.213  0.00  0.00    +0.000 C 
ATOM     18  O   UNL     1       1.525  13.631  18.891  0.00  0.00    +0.000 OA
ENDBRANCH   3  18
ENDBRANCH   1   7
BRANCH   1  19
ATOM     19  C   UNL     1       1.455   8.188  20.725  0.00  0.00    +0.000 C 
ATOM     20  C   UNL     1       2.002   7.276  20.168  0.00  0.00    +0.000 C 
BRANCH  20  21
ATOM     21  C   UNL     1       2.672   6.253  19.433  0.00  0.00    +0.000 A 
ATOM     22  C   UNL     1       2.772   4.954  19.901  0.00  0.00    +0.000 A 
ATOM     23  C   UNL     1       2.146   4.496  21.186  0.00  0.00    +0.000 C 
ATOM     24  N   UNL     1       3.443   3.999  19.211  0.00  0.00    +0.000 NA
ATOM     25  C   UNL     1       4.033   4.366  18.074  0.00  0.00    +0.000 A 
ATOM     26  N   UNL     1       4.696   3.383  17.368  0.00  0.00    +0.000 N 
ATOM     27  N   UNL     1       3.978   5.585  17.536  0.00  0.00    +0.000 NA
ATOM     28  C   UNL     1       3.315   6.522  18.227  0.00  0.00    +0.000 A 
ATOM     29  H   UNL     1       4.315   2.482  17.617  0.00  0.00    +0.000 HD
ATOM     30  H   UNL     1       4.711   3.626  16.389  0.00  0.00    +0.000 HD
BRANCH  28  31
ATOM     31  N   UNL     1       3.266   7.788  17.628  0.00  0.00    +0.000 N 
ATOM     32  H   UNL     1       4.222   8.113  17.517  0.00  0.00    +0.000 HD
ATOM     33  H   UNL     1       2.691   8.436  18.154  0.00  0.00    +0.000 HD
ENDBRANCH  28  31
ENDBRANCH  20  21
ENDBRANCH   1  19
TORSDOF 6
ENDMDL
MODEL 3
REMARK VINA RESULT:      -8.3      0.274      1.653
REMARK  Name = 
REMARK  11 active torsions:
REMARK  status: ('A' for Active; 'I' for Inactive)
REMARK    1  A    between atoms: C_1  and  O_2
REMARK    2  A    between atoms: O_2  and  C_3
REMARK    3  A    between atoms: C_5  and  C_6
REMARK    4  A    between atoms: C_7  and  C_8
REMARK    5  A    between atoms: C_12  and  C_13
REMARK    6  A    between atoms: C_15  and  C_16
REMARK    7  A    between atoms: C_16  and  C_17
REMARK    8  A    between atoms: C_16  and  C_18
REMARK    9  A    between atoms: C_19  and  C_20
REMARK   10  A    between atoms: C_21  and  C_22
REMARK   11  A    between atoms: C_27  and  N_28
REMARK                            x       y       z     vdW  Elec       q    Type
REMARK                         _______ _______ _______ _____ _____    ______ ____
ROOT
ATOM      1  C   UNL     1       0.791   9.495  21.189  0.00  0.00    +0.000 C 
ATOM      2  C   UNL     1      -0.429   9.066  22.018  0.00  0.00    +0.000 C 
ENDROOT
BRANCH   1   7
ATOM      3  C   UNL     1       0.817  12.594  18.979  0.00  0.00    +0.000 A 
ATOM      4  C   UNL     1      -0.520  12.613  18.554  0.00  0.00    +0.000 A 
ATOM      5  C   UNL     1      -1.417  11.558  18.812  0.00  0.00    +0.000 A 
ATOM      6  C   UNL     1      -0.873  10.472  19.516  0.00  0.00    +0.000 A 
ATOM      7  C   UNL     1       0.397  10.513  20.126  0.00  0.00    +0.000 A 
ATOM      8  C   UNL     1       1.255  11.567  19.809  0.00  0.00    +0.000 A 
BRANCH   5   9
ATOM      9  C   UNL     1      -2.887  11.653  18.479  0.00  0.00    +0.000 A 
ATOM     10  C   UNL     1      -3.849  12.155  19.411  0.00  0.00    +0.000 A 
ATOM     11  C   UNL     1      -3.521  12.858  20.707  0.00  0.00    +0.000 C 
ATOM     12  C   UNL     1      -5.234  12.008  19.165  0.00  0.00    +0.000 A 
ATOM     13  C   UNL     1      -5.707  11.467  17.982  0.00  0.00    +0.000 A 
ATOM     14  C   UNL     1      -4.801  11.075  17.015  0.00  0.00    +0.000 A 
ATOM     15  C   UNL     1      -3.410  11.142  17.241  0.00  0.00    +0.000 A 
ATOM     16  C   UNL     1      -2.571  10.648  16.086  0.00  0.00    +0.000 C 
ENDBRANCH   5   9
BRANCH   3  18
ATOM     17  C   UNL     1       2.958  13.411  18.355  0.00  0.00    +0.000 C 
ATOM     18  O   UNL     1       1.571  13.656  18.559  0.00  0.00    +0.000 OA
ENDBRANCH   3  18
ENDBRANCH   1   7
BRANCH   1  19
ATOM     19  C   UNL     1       1.423   8.311  20.596  0.00  0.00    +0.000 C 
ATOM     20  C   UNL     1       1.994   7.390  20.080  0.00  0.00    +0.000 C 
BRANCH  20  21
ATOM     21  C   UNL     1       2.753   6.348  19.468  0.00  0.00    +0.000 A 
ATOM     22  C   UNL     1       3.355   6.504  18.231  0.00  0.00    +0.000 A 
ATOM     23  C   UNL     1       3.306   7.786  17.452  0.00  0.00    +0.000 C 
ATOM     24  N   UNL     1       4.044   5.495  17.643  0.00  0.00    +0.000 NA
ATOM     25  C   UNL     1       4.095   4.331  18.290  0.00  0.00    +0.000 A 
ATOM     26  N   UNL     1       4.815   3.316  17.694  0.00  0.00    +0.000 N 
ATOM     27  N   UNL     1       3.563   4.092  19.489  0.00  0.00    +0.000 NA
ATOM     28  C   UNL     1       2.882   5.095  20.060  0.00  0.00    +0.000 A 
ATOM     29  H   UNL     1       5.496   3.718  17.065  0.00  0.00    +0.000 HD
ATOM     30  H   UNL     1       5.156   2.685  18.404  0.00  0.00    +0.000 HD
BRANCH  28  31
ATOM     31  N   UNL     1       2.347   4.813  21.325  0.00  0.00    +0.000 N 
ATOM     32  H   UNL     1       3.069   4.346  21.867  0.00  0.00    +0.000 HD
ATOM     33  H   UNL     1       1.492   4.274  21.264  0.00  0.00    +0.000 HD
ENDBRANCH  28  31
ENDBRANCH  20  21
ENDBRANCH   1  19
TORSDOF 6
ENDMDL
MODEL 4
REMARK VINA RESULT:      -8.2      0.663      2.295
REMARK  Name = 
REMARK  11 active torsions:
REMARK  status: ('A' for Active; 'I' for Inactive)
REMARK    1  A    between atoms: C_1  and  O_2
REMARK    2  A    between atoms: O_2  and  C_3
REMARK    3  A    between atoms: C_5  and  C_6
REMARK    4  A    between atoms: C_7  and  C_8
REMARK    5  A    between atoms: C_12  and  C_13
REMARK    6  A    between atoms: C_15  and  C_16
REMARK    7  A    between atoms: C_16  and  C_17
REMARK    8  A    between atoms: C_16  and  C_18
REMARK    9  A    between atoms: C_19  and  C_20
REMARK   10  A    between atoms: C_21  and  C_22
REMARK   11  A    between atoms: C_27  and  N_28
REMARK                            x       y       z     vdW  Elec       q    Type
REMARK                         _______ _______ _______ _____ _____    ______ ____
ROOT
ATOM      1  C   UNL     1       0.804   9.327  21.178  0.00  0.00    +0.000 C 
ATOM      2  C   UNL     1      -0.443   8.893  21.963  0.00  0.00    +0.000 C 
ENDROOT
BRANCH   1   7
ATOM      3  C   UNL     1       0.947  12.392  18.925  0.00  0.00    +0.000 A 
ATOM      4  C   UNL     1      -0.393  12.467  18.515  0.00  0.00    +0.000 A 
ATOM      5  C   UNL     1      -1.335  11.459  18.798  0.00  0.00    +0.000 A 
ATOM      6  C   UNL     1      -0.833  10.358  19.510  0.00  0.00    +0.000 A 
ATOM      7  C   UNL     1       0.445  10.348  20.106  0.00  0.00    +0.000 A 
ATOM      8  C   UNL     1       1.347  11.357  19.764  0.00  0.00    +0.000 A 
BRANCH   5   9
ATOM      9  C   UNL     1      -2.803  11.618  18.480  0.00  0.00    +0.000 A 
ATOM     10  C   UNL     1      -3.732  12.159  19.422  0.00  0.00    +0.000 A 
ATOM     11  C   UNL     1      -3.361  12.847  20.715  0.00  0.00    +0.000 C 
ATOM     12  C   UNL     1      -5.124  12.073  19.191  0.00  0.00    +0.000 A 
ATOM     13  C   UNL     1      -5.633  11.553  18.013  0.00  0.00    +0.000 A 
ATOM     14  C   UNL     1      -4.755  11.123  17.036  0.00  0.00    +0.000 A 
ATOM     15  C   UNL     1      -3.360  11.130  17.248  0.00  0.00    +0.000 A 
ATOM     16  C   UNL     1      -2.555  10.601  16.083  0.00  0.00    +0.000 C 
ENDBRANCH   5   9
BRANCH   3  18
ATOM     17  C   UNL     1       2.630  13.987  19.435  0.00  0.00    +0.000 C 
ATOM     18  O   UNL     1       1.744  13.412  18.482  0.00  0.00    +0.000 OA
ENDBRANCH   3  18
ENDBRANCH   1   7
BRANCH   1  19
ATOM     19  C   UNL     1       1.458   8.146  20.602  0.00  0.00    +0.000 C 
ATOM     20  C   UNL     1       2.014   7.224  20.071  0.00  0.00    +0.000 C 
BRANCH  20  21
ATOM     21  C   UNL     1       2.730   6.194  19.393  0.00  0.00    +0.000 A 
ATOM     22  C   UNL     1       2.817   4.905  19.892  0.00  0.00    +0.000 A 
ATOM     23  C   UNL     1       2.130   4.467  21.152  0.00  0.00    +0.000 C 
ATOM     24  N   UNL     1       3.531   3.943  19.257  0.00  0.00    +0.000 NA
ATOM     25  C   UNL     1       4.176   4.294  18.144  0.00  0.00    +0.000 A 
ATOM     26  N   UNL     1       4.883   3.303  17.493  0.00  0.00    +0.000 N 
ATOM     27  N   UNL     1       4.138   5.501  17.579  0.00  0.00    +0.000 NA
ATOM     28  C   UNL     1       3.431   6.445  18.216  0.00  0.00    +0.000 A 
ATOM     29  H   UNL     1       4.497   2.403  17.742  0.00  0.00    +0.000 HD
ATOM     30  H   UNL     1       4.946   3.526  16.511  0.00  0.00    +0.000 HD
BRANCH  28  31
ATOM     31  N   UNL     1       3.402   7.698  17.589  0.00  0.00    +0.000 N 
ATOM     32  H   UNL     1       3.547   7.548  16.595  0.00  0.00    +0.000 HD
ATOM     33  H   UNL     1       4.076   8.340  17.990  0.00  0.00    +0.000 HD
ENDBRANCH  28  31
ENDBRANCH  20  21
ENDBRANCH   1  19
TORSDOF 6
ENDMDL
MODEL 5
REMARK VINA RESULT:      -7.9      2.326      4.065
REMARK  Name = 
REMARK  11 active torsions:
REMARK  status: ('A' for Active; 'I' for Inactive)
REMARK    1  A    between atoms: C_1  and  O_2
REMARK    2  A    between atoms: O_2  and  C_3
REMARK    3  A    between atoms: C_5  and  C_6
REMARK    4  A    between atoms: C_7  and  C_8
REMARK    5  A    between atoms: C_12  and  C_13
REMARK    6  A    between atoms: C_15  and  C_16
REMARK    7  A    between atoms: C_16  and  C_17
REMARK    8  A    between atoms: C_16  and  C_18
REMARK    9  A    between atoms: C_19  and  C_20
REMARK   10  A    between atoms: C_21  and  C_22
REMARK   11  A    between atoms: C_27  and  N_28
REMARK                            x       y       z     vdW  Elec       q    Type
REMARK                         _______ _______ _______ _____ _____    ______ ____
ROOT
ATOM      1  C   UNL     1       1.603   9.858  17.642  0.00  0.00    +0.000 C 
ATOM      2  C   UNL     1       2.621  10.981  17.889  0.00  0.00    +0.000 C 
ENDROOT
BRANCH   1   7
ATOM      3  C   UNL     1      -2.137  10.298  18.197  0.00  0.00    +0.000 A 
ATOM      4  C   UNL     1      -2.128  11.170  19.296  0.00  0.00    +0.000 A 
ATOM      5  C   UNL     1      -0.953  11.503  19.996  0.00  0.00    +0.000 A 
ATOM      6  C   UNL     1       0.217  10.886  19.525  0.00  0.00    +0.000 A 
ATOM      7  C   UNL     1       0.271  10.173  18.310  0.00  0.00    +0.000 A 
ATOM      8  C   UNL     1      -0.929   9.845  17.676  0.00  0.00    +0.000 A 
BRANCH   5   9
ATOM      9  C   UNL     1      -0.933  12.553  21.082  0.00  0.00    +0.000 A 
ATOM     10  C   UNL     1      -1.139  12.230  22.459  0.00  0.00    +0.000 A 
ATOM     11  C   UNL     1      -1.157  10.832  23.033  0.00  0.00    +0.000 C 
ATOM     12  C   UNL     1      -1.355  13.250  23.414  0.00  0.00    +0.000 A 
ATOM     13  C   UNL     1      -1.281  14.590  23.073  0.00  0.00    +0.000 A 
ATOM     14  C   UNL     1      -0.974  14.934  21.770  0.00  0.00    +0.000 A 
ATOM     15  C   UNL     1      -0.814  13.952  20.770  0.00  0.00    +0.000 A 
ATOM     16  C   UNL     1      -0.507  14.509  19.399  0.00  0.00    +0.000 C 
ENDBRANCH   5   9
BRANCH   3  18
ATOM     17  C   UNL     1      -3.784  10.740  16.544  0.00  0.00    +0.000 C 
ATOM     18  O   UNL     1      -3.378  10.011  17.697  0.00  0.00    +0.000 OA
ENDBRANCH   3  18
ENDBRANCH   1   7
BRANCH   1  19
ATOM     19  C   UNL     1       2.155   8.582  18.114  0.00  0.00    +0.000 C 
ATOM     20  C   UNL     1       2.625   7.523  18.427  0.00  0.00    +0.000 C 
BRANCH  20  21
ATOM     21  C   UNL     1       3.238   6.267  18.717  0.00  0.00    +0.000 A 
ATOM     22  C   UNL     1       4.218   5.720  17.906  0.00  0.00    +0.000 A 
ATOM     23  C   UNL     1       4.756   6.415  16.690  0.00  0.00    +0.000 C 
ATOM     24  N   UNL     1       4.767   4.510  18.173  0.00  0.00    +0.000 NA
ATOM     25  C   UNL     1       4.304   3.848  19.233  0.00  0.00    +0.000 A 
ATOM     26  N   UNL     1       4.883   2.625  19.508  0.00  0.00    +0.000 N 
ATOM     27  N   UNL     1       3.377   4.299  20.079  0.00  0.00    +0.000 NA
ATOM     28  C   UNL     1       2.840   5.495  19.805  0.00  0.00    +0.000 A 
ATOM     29  H   UNL     1       5.808   2.598  19.103  0.00  0.00    +0.000 HD
ATOM     30  H   UNL     1       4.803   2.432  20.495  0.00  0.00    +0.000 HD
BRANCH  28  31
ATOM     31  N   UNL     1       1.879   5.945  20.721  0.00  0.00    +0.000 N 
ATOM     32  H   UNL     1       0.967   5.849  20.283  0.00  0.00    +0.000 HD
ATOM     33  H   UNL     1       2.065   6.891  21.034  0.00  0.00    +0.000 HD
ENDBRANCH  28  31
ENDBRANCH  20  21
ENDBRANCH   1  19
TORSDOF 6
ENDMDL
MODEL 6
REMARK VINA RESULT:      -7.8      2.306      4.301
REMARK  Name = 
REMARK  11 active torsions:
REMARK  status: ('A' for Active; 'I' for Inactive)
REMARK    1  A    between atoms: C_1  and  O_2
REMARK    2  A    between atoms: O_2  and  C_3
REMARK    3  A    between atoms: C_5  and  C_6
REMARK    4  A    between atoms: C_7  and  C_8
REMARK    5  A    between atoms: C_12  and  C_13
REMARK    6  A    between atoms: C_15  and  C_16
REMARK    7  A    between atoms: C_16  and  C_17
REMARK    8  A    between atoms: C_16  and  C_18
REMARK    9  A    between atoms: C_19  and  C_20
REMARK   10  A    between atoms: C_21  and  C_22
REMARK   11  A    between atoms: C_27  and  N_28
REMARK                            x       y       z     vdW  Elec       q    Type
REMARK                         _______ _______ _______ _____ _____    ______ ____
ROOT
ATOM      1  C   UNL     1       1.629   9.824  17.641  0.00  0.00    +0.000 C 
ATOM      2  C   UNL     1       2.642  10.948  17.902  0.00  0.00    +0.000 C 
ENDROOT
BRANCH   1   7
ATOM      3  C   UNL     1      -2.115  10.210  18.212  0.00  0.00    +0.000 A 
ATOM      4  C   UNL     1      -2.114  11.096  19.300  0.00  0.00    +0.000 A 
ATOM      5  C   UNL     1      -0.940  11.457  19.989  0.00  0.00    +0.000 A 
ATOM      6  C   UNL     1       0.236  10.853  19.518  0.00  0.00    +0.000 A 
ATOM      7  C   UNL     1       0.295  10.126  18.313  0.00  0.00    +0.000 A 
ATOM      8  C   UNL     1      -0.903   9.770  17.690  0.00  0.00    +0.000 A 
BRANCH   5   9
ATOM      9  C   UNL     1      -0.932  12.521  21.061  0.00  0.00    +0.000 A 
ATOM     10  C   UNL     1      -1.130  12.213  22.444  0.00  0.00    +0.000 A 
ATOM     11  C   UNL     1      -1.128  10.823  23.035  0.00  0.00    +0.000 C 
ATOM     12  C   UNL     1      -1.357  13.243  23.385  0.00  0.00    +0.000 A 
ATOM     13  C   UNL     1      -1.302  14.579  23.027  0.00  0.00    +0.000 A 
ATOM     14  C   UNL     1      -1.003  14.910  21.719  0.00  0.00    +0.000 A 
ATOM     15  C   UNL     1      -0.833  13.917  20.731  0.00  0.00    +0.000 A 
ATOM     16  C   UNL     1      -0.537  14.461  19.352  0.00  0.00    +0.000 C 
ENDBRANCH   5   9
BRANCH   3  18
ATOM     17  C   UNL     1      -4.334  10.927  17.765  0.00  0.00    +0.000 C 
ATOM     18  O   UNL     1      -3.354   9.896  17.724  0.00  0.00    +0.000 OA
ENDBRANCH   3  18
ENDBRANCH   1   7
BRANCH   1  19
ATOM     19  C   UNL     1       2.185   8.545  18.096  0.00  0.00    +0.000 C 
ATOM     20  C   UNL     1       2.638   7.474  18.395  0.00  0.00    +0.000 C 
BRANCH  20  21
ATOM     21  C   UNL     1       3.206   6.192  18.658  0.00  0.00    +0.000 A 
ATOM     22  C   UNL     1       2.772   5.393  19.703  0.00  0.00    +0.000 A 
ATOM     23  C   UNL     1       1.642   5.778  20.612  0.00  0.00    +0.000 C 
ATOM     24  N   UNL     1       3.344   4.192  19.964  0.00  0.00    +0.000 NA
ATOM     25  C   UNL     1       4.366   3.820  19.194  0.00  0.00    +0.000 A 
ATOM     26  N   UNL     1       4.929   2.587  19.455  0.00  0.00    +0.000 N 
ATOM     27  N   UNL     1       4.841   4.511  18.157  0.00  0.00    +0.000 NA
ATOM     28  C   UNL     1       4.270   5.697  17.909  0.00  0.00    +0.000 A 
ATOM     29  H   UNL     1       4.249   2.006  19.926  0.00  0.00    +0.000 HD
ATOM     30  H   UNL     1       5.345   2.223  18.611  0.00  0.00    +0.000 HD
BRANCH  28  31
ATOM     31  N   UNL     1       4.785   6.392  16.805  0.00  0.00    +0.000 N 
ATOM     32  H   UNL     1       5.040   5.704  16.101  0.00  0.00    +0.000 HD
ATOM     33  H   UNL     1       5.559   6.994  17.062  0.00  0.00    +0.000 HD
ENDBRANCH  28  31
ENDBRANCH  20  21
ENDBRANCH   1  19
TORSDOF 6
ENDMDL
MODEL 7
REMARK VINA RESULT:      -7.7      2.398      4.035
REMARK  Name = 
REMARK  11 active torsions:
REMARK  status: ('A' for Active; 'I' for Inactive)
REMARK    1  A    between atoms: C_1  and  O_2
REMARK    2  A    between atoms: O_2  and  C_3
REMARK    3  A    between atoms: C_5  and  C_6
REMARK    4  A    between atoms: C_7  and  C_8
REMARK    5  A    between atoms: C_12  and  C_13
REMARK    6  A    between atoms: C_15  and  C_16
REMARK    7  A    between atoms: C_16  and  C_17
REMARK    8  A    between atoms: C_16  and  C_18
REMARK    9  A    between atoms: C_19  and  C_20
REMARK   10  A    between atoms: C_21  and  C_22
REMARK   11  A    between atoms: C_27  and  N_28
REMARK                            x       y       z     vdW  Elec       q    Type
REMARK                         _______ _______ _______ _____ _____    ______ ____
ROOT
ATOM      1  C   UNL     1       1.549  10.083  17.685  0.00  0.00    +0.000 C 
ATOM      2  C   UNL     1       2.584  11.183  17.965  0.00  0.00    +0.000 C 
ENDROOT
BRANCH   1   7
ATOM      3  C   UNL     1      -2.192  10.450  18.286  0.00  0.00    +0.000 A 
ATOM      4  C   UNL     1      -2.190  11.390  19.327  0.00  0.00    +0.000 A 
ATOM      5  C   UNL     1      -1.012  11.801  19.981  0.00  0.00    +0.000 A 
ATOM      6  C   UNL     1       0.167  11.189  19.526  0.00  0.00    +0.000 A 
ATOM      7  C   UNL     1       0.220  10.402  18.358  0.00  0.00    +0.000 A 
ATOM      8  C   UNL     1      -0.981  10.000  17.771  0.00  0.00    +0.000 A 
BRANCH   5   9
ATOM      9  C   UNL     1      -1.004  12.918  20.998  0.00  0.00    +0.000 A 
ATOM     10  C   UNL     1      -0.672  14.265  20.649  0.00  0.00    +0.000 A 
ATOM     11  C   UNL     1      -0.529  14.789  19.239  0.00  0.00    +0.000 C 
ATOM     12  C   UNL     1      -0.439  15.232  21.653  0.00  0.00    +0.000 A 
ATOM     13  C   UNL     1      -0.616  14.942  22.995  0.00  0.00    +0.000 A 
ATOM     14  C   UNL     1      -1.045  13.679  23.356  0.00  0.00    +0.000 A 
ATOM     15  C   UNL     1      -1.227  12.662  22.395  0.00  0.00    +0.000 A 
ATOM     16  C   UNL     1      -1.673  11.338  22.972  0.00  0.00    +0.000 C 
ENDBRANCH   5   9
BRANCH   3  18
ATOM     17  C   UNL     1      -3.887  10.747  16.650  0.00  0.00    +0.000 C 
ATOM     18  O   UNL     1      -3.433  10.096  17.831  0.00  0.00    +0.000 OA
ENDBRANCH   3  18
ENDBRANCH   1   7
BRANCH   1  19
ATOM     19  C   UNL     1       2.079   8.787  18.122  0.00  0.00    +0.000 C 
ATOM     20  C   UNL     1       2.548   7.721  18.412  0.00  0.00    +0.000 C 
BRANCH  20  21
ATOM     21  C   UNL     1       3.177   6.471  18.691  0.00  0.00    +0.000 A 
ATOM     22  C   UNL     1       4.157   5.938  17.870  0.00  0.00    +0.000 A 
ATOM     23  C   UNL     1       4.676   6.644  16.652  0.00  0.00    +0.000 C 
ATOM     24  N   UNL     1       4.722   4.733  18.127  0.00  0.00    +0.000 NA
ATOM     25  C   UNL     1       4.275   4.061  19.188  0.00  0.00    +0.000 A 
ATOM     26  N   UNL     1       4.870   2.844  19.453  0.00  0.00    +0.000 N 
ATOM     27  N   UNL     1       3.351   4.499  20.044  0.00  0.00    +0.000 NA
ATOM     28  C   UNL     1       2.797   5.690  19.780  0.00  0.00    +0.000 A 
ATOM     29  H   UNL     1       5.791   2.829  19.039  0.00  0.00    +0.000 HD
ATOM     30  H   UNL     1       4.801   2.645  20.440  0.00  0.00    +0.000 HD
BRANCH  28  31
ATOM     31  N   UNL     1       1.839   6.125  20.706  0.00  0.00    +0.000 N 
ATOM     32  H   UNL     1       1.678   5.365  21.361  0.00  0.00    +0.000 HD
ATOM     33  H   UNL     1       0.989   6.440  20.254  0.00  0.00    +0.000 HD
ENDBRANCH  28  31
ENDBRANCH  20  21
ENDBRANCH   1  19
TORSDOF 6
ENDMDL
MODEL 8
REMARK VINA RESULT:      -7.6      1.823      4.185
REMARK  Name = 
REMARK  11 active torsions:
REMARK  status: ('A' for Active; 'I' for Inactive)
REMARK    1  A    between atoms: C_1  and  O_2
REMARK    2  A    between atoms: O_2  and  C_3
REMARK    3  A    between atoms: C_5  and  C_6
REMARK    4  A    between atoms: C_7  and  C_8
REMARK    5  A    between atoms: C_12  and  C_13
REMARK    6  A    between atoms: C_15  and  C_16
REMARK    7  A    between atoms: C_16  and  C_17
REMARK    8  A    between atoms: C_16  and  C_18
REMARK    9  A    between atoms: C_19  and  C_20
REMARK   10  A    between atoms: C_21  and  C_22
REMARK   11  A    between atoms: C_27  and  N_28
REMARK                            x       y       z     vdW  Elec       q    Type
REMARK                         _______ _______ _______ _____ _____    ______ ____
ROOT
ATOM      1  C   UNL     1       0.567   9.756  21.533  0.00  0.00    +0.000 C 
ATOM      2  C   UNL     1      -0.499   9.249  22.516  0.00  0.00    +0.000 C 
ENDROOT
BRANCH   1   7
ATOM      3  C   UNL     1      -1.264  11.031  18.449  0.00  0.00    +0.000 A 
ATOM      4  C   UNL     1      -0.758  12.338  18.377  0.00  0.00    +0.000 A 
ATOM      5  C   UNL     1       0.035  12.905  19.393  0.00  0.00    +0.000 A 
ATOM      6  C   UNL     1       0.275  12.072  20.497  0.00  0.00    +0.000 A 
ATOM      7  C   UNL     1      -0.045  10.699  20.505  0.00  0.00    +0.000 A 
ATOM      8  C   UNL     1      -0.860  10.199  19.488  0.00  0.00    +0.000 A 
BRANCH   5   9
ATOM      9  C   UNL     1       0.693  14.256  19.239  0.00  0.00    +0.000 A 
ATOM     10  C   UNL     1       0.032  15.472  19.598  0.00  0.00    +0.000 A 
ATOM     11  C   UNL     1      -1.260  15.564  20.376  0.00  0.00    +0.000 C 
ATOM     12  C   UNL     1       0.572  16.724  19.222  0.00  0.00    +0.000 A 
ATOM     13  C   UNL     1       1.796  16.823  18.582  0.00  0.00    +0.000 A 
ATOM     14  C   UNL     1       2.511  15.669  18.321  0.00  0.00    +0.000 A 
ATOM     15  C   UNL     1       1.983  14.395  18.620  0.00  0.00    +0.000 A 
ATOM     16  C   UNL     1       2.890  13.247  18.242  0.00  0.00    +0.000 C 
ENDBRANCH   5   9
BRANCH   3  18
ATOM     17  C   UNL     1      -3.055   9.664  17.698  0.00  0.00    +0.000 C 
ATOM     18  O   UNL     1      -2.094  10.676  17.420  0.00  0.00    +0.000 OA
ENDBRANCH   3  18
ENDBRANCH   1   7
BRANCH   1  19
ATOM     19  C   UNL     1       1.227   8.613  20.891  0.00  0.00    +0.000 C 
ATOM     20  C   UNL     1       1.774   7.721  20.303  0.00  0.00    +0.000 C 
BRANCH  20  21
ATOM     21  C   UNL     1       2.467   6.730  19.547  0.00  0.00    +0.000 A 
ATOM     22  C   UNL     1       2.931   6.970  18.264  0.00  0.00    +0.000 A 
ATOM     23  C   UNL     1       2.794   8.299  17.580  0.00  0.00    +0.000 C 
ATOM     24  N   UNL     1       3.557   6.008  17.542  0.00  0.00    +0.000 NA
ATOM     25  C   UNL     1       3.681   4.806  18.103  0.00  0.00    +0.000 A 
ATOM     26  N   UNL     1       4.337   3.838  17.369  0.00  0.00    +0.000 N 
ATOM     27  N   UNL     1       3.283   4.485  19.335  0.00  0.00    +0.000 NA
ATOM     28  C   UNL     1       2.664   5.442  20.039  0.00  0.00    +0.000 A 
ATOM     29  H   UNL     1       4.944   4.287  16.698  0.00  0.00    +0.000 HD
ATOM     30  H   UNL     1       4.754   3.167  17.996  0.00  0.00    +0.000 HD
BRANCH  28  31
ATOM     31  N   UNL     1       2.270   5.075  21.333  0.00  0.00    +0.000 N 
ATOM     32  H   UNL     1       1.271   4.887  21.309  0.00  0.00    +0.000 HD
ATOM     33  H   UNL     1       2.519   5.777  22.020  0.00  0.00    +0.000 HD
ENDBRANCH  28  31
ENDBRANCH  20  21
ENDBRANCH   1  19
TORSDOF 6
ENDMDL
MODEL 9
REMARK VINA RESULT:      -7.6      1.782      3.916
REMARK  Name = 
REMARK  11 active torsions:
REMARK  status: ('A' for Active; 'I' for Inactive)
REMARK    1  A    between atoms: C_1  and  O_2
REMARK    2  A    between atoms: O_2  and  C_3
REMARK    3  A    between atoms: C_5  and  C_6
REMARK    4  A    between atoms: C_7  and  C_8
REMARK    5  A    between atoms: C_12  and  C_13
REMARK    6  A    between atoms: C_15  and  C_16
REMARK    7  A    between atoms: C_16  and  C_17
REMARK    8  A    between atoms: C_16  and  C_18
REMARK    9  A    between atoms: C_19  and  C_20
REMARK   10  A    between atoms: C_21  and  C_22
REMARK   11  A    between atoms: C_27  and  N_28
REMARK                            x       y       z     vdW  Elec       q    Type
REMARK                         _______ _______ _______ _____ _____    ______ ____
ROOT
ATOM      1  C   UNL     1       0.722   9.497  21.587  0.00  0.00    +0.000 C 
ATOM      2  C   UNL     1      -0.266   8.993  22.649  0.00  0.00    +0.000 C 
ENDROOT
BRANCH   1   7
ATOM      3  C   UNL     1      -1.497  10.799  18.781  0.00  0.00    +0.000 A 
ATOM      4  C   UNL     1      -0.876  12.029  18.518  0.00  0.00    +0.000 A 
ATOM      5  C   UNL     1       0.147  12.556  19.330  0.00  0.00    +0.000 A 
ATOM      6  C   UNL     1       0.495  11.766  20.438  0.00  0.00    +0.000 A 
ATOM      7  C   UNL     1       0.036  10.445  20.611  0.00  0.00    +0.000 A 
ATOM      8  C   UNL     1      -1.001   9.987  19.796  0.00  0.00    +0.000 A 
BRANCH   5   9
ATOM      9  C   UNL     1       0.906  13.807  18.957  0.00  0.00    +0.000 A 
ATOM     10  C   UNL     1       2.202  13.761  18.354  0.00  0.00    +0.000 A 
ATOM     11  C   UNL     1       2.864  12.519  17.804  0.00  0.00    +0.000 C 
ATOM     12  C   UNL     1       2.985  14.933  18.239  0.00  0.00    +0.000 A 
ATOM     13  C   UNL     1       2.493  16.173  18.612  0.00  0.00    +0.000 A 
ATOM     14  C   UNL     1       1.202  16.264  19.094  0.00  0.00    +0.000 A 
ATOM     15  C   UNL     1       0.407  15.114  19.288  0.00  0.00    +0.000 A 
ATOM     16  C   UNL     1      -0.968  15.399  19.847  0.00  0.00    +0.000 C 
ENDBRANCH   5   9
BRANCH   3  18
ATOM     17  C   UNL     1      -2.190  10.066  16.631  0.00  0.00    +0.000 C 
ATOM     18  O   UNL     1      -2.535  10.486  17.946  0.00  0.00    +0.000 OA
ENDBRANCH   3  18
ENDBRANCH   1   7
BRANCH   1  19
ATOM     19  C   UNL     1       1.324   8.352  20.894  0.00  0.00    +0.000 C 
ATOM     20  C   UNL     1       1.866   7.464  20.294  0.00  0.00    +0.000 C 
BRANCH  20  21
ATOM     21  C   UNL     1       2.590   6.467  19.576  0.00  0.00    +0.000 A 
ATOM     22  C   UNL     1       3.096   6.692  18.307  0.00  0.00    +0.000 A 
ATOM     23  C   UNL     1       2.974   8.010  17.600  0.00  0.00    +0.000 C 
ATOM     24  N   UNL     1       3.751   5.724  17.620  0.00  0.00    +0.000 NA
ATOM     25  C   UNL     1       3.863   4.531  18.202  0.00  0.00    +0.000 A 
ATOM     26  N   UNL     1       4.549   3.557  17.504  0.00  0.00    +0.000 N 
ATOM     27  N   UNL     1       3.425   4.224  19.424  0.00  0.00    +0.000 NA
ATOM     28  C   UNL     1       2.778   5.187  20.093  0.00  0.00    +0.000 A 
ATOM     29  H   UNL     1       5.176   4.000  16.847  0.00  0.00    +0.000 HD
ATOM     30  H   UNL     1       4.949   2.897  18.154  0.00  0.00    +0.000 HD
BRANCH  28  31
ATOM     31  N   UNL     1       2.342   4.836  21.378  0.00  0.00    +0.000 N 
ATOM     32  H   UNL     1       1.367   5.110  21.458  0.00  0.00    +0.000 HD
ATOM     33  H   UNL     1       2.924   5.242  22.101  0.00  0.00    +0.000 HD
ENDBRANCH  28  31
ENDBRANCH  20  21
ENDBRANCH   1  19
TORSDOF 6
ENDMDL
