MODEL 1
REMARK VINA RESULT:      -7.8      0.000      0.000
REMARK  Name = 
REMARK  13 active torsions:
REMARK  status: ('A' for Active; 'I' for Inactive)
REMARK    1  A    between atoms: C_1  and  C_2
REMARK    2  A    between atoms: C_2  and  O_3
REMARK    3  A    between atoms: O_3  and  C_4
REMARK    4  A    between atoms: C_4  and  C_6
REMARK    5  A    between atoms: C_6  and  C_7
REMARK    6  A    between atoms: C_7  and  C_8
REMARK    7  A    between atoms: C_8  and  O_10
REMARK    8  A    between atoms: O_10  and  C_11
REMARK    9  A    between atoms: C_13  and  C_14
REMARK   10  A    between atoms: C_14  and  C_15
REMARK   11  A    between atoms: C_14  and  C_16
REMARK   12  A    between atoms: C_14  and  C_17
REMARK   13  A    between atoms: N_19  and  C_20
REMARK                            x       y       z     vdW  Elec       q    Type
REMARK                         _______ _______ _______ _____ _____    ______ ____
ROOT
ATOM      1  C   UNL     1       3.014   5.295  17.801  0.00  0.00    +0.000 A 
ATOM      2  C   UNL     1       4.207   4.732  17.405  0.00  0.00    +0.000 A 
ATOM      3  C   UNL     1       5.151   5.781  17.381  0.00  0.00    +0.000 A 
ATOM      4  N   UNL     1       4.554   6.960  17.606  0.00  0.00    +0.000 NA
ATOM      5  N   UNL     1       3.285   6.645  17.984  0.00  0.00    +0.000 N 
ENDROOT
BRANCH   5   6
ATOM      6  C   UNL     1       2.427   7.651  18.514  0.00  0.00    +0.000 A 
ATOM      7  C   UNL     1       1.923   8.649  17.669  0.00  0.00    +0.000 A 
ATOM      8  C   UNL     1       1.069   9.633  18.176  0.00  0.00    +0.000 A 
ATOM      9  C   UNL     1       0.746   9.653  19.537  0.00  0.00    +0.000 A 
ATOM     10 CL   UNL     1      -0.298  10.909  20.101  0.00  0.00    +0.000 Cl
ATOM     11  C   UNL     1       1.275   8.679  20.390  0.00  0.00    +0.000 A 
ATOM     12 CL   UNL     1       0.964   8.669  22.092  0.00  0.00    +0.000 Cl
ATOM     13  C   UNL     1       2.104   7.673  19.879  0.00  0.00    +0.000 A 
ENDBRANCH   5   6
BRANCH   3  14
ATOM     14  C   UNL     1       6.642   5.680  17.096  0.00  0.00    +0.000 C 
ATOM     15  C   UNL     1       7.291   4.660  18.047  0.00  0.00    +0.000 C 
ATOM     16  C   UNL     1       6.908   5.248  15.638  0.00  0.00    +0.000 C 
ATOM     17  C   UNL     1       7.338   7.047  17.298  0.00  0.00    +0.000 C 
ENDBRANCH   3  14
BRANCH   1  18
ATOM     18  O   UNL     1       1.788   4.807  17.959  0.00  0.00    +0.000 OA
BRANCH  18  19
ATOM     19  C   UNL     1       1.593   3.468  17.987  0.00  0.00    +0.000 C 
ATOM     20  O   UNL     1       2.083   2.626  17.243  0.00  0.00    +0.000 OA
BRANCH  19  21
ATOM     21  C   UNL     1       0.632   3.122  19.104  0.00  0.00    +0.000 C 
BRANCH  21  22
ATOM     22  C   UNL     1       1.066   3.774  20.410  0.00  0.00    +0.000 C 
BRANCH  22  23
ATOM     23  C   UNL     1       1.527   2.739  21.409  0.00  0.00    +0.000 C 
ATOM     24  O   UNL     1       1.088   2.617  22.540  0.00  0.00    +0.000 OA
BRANCH  23  25
ATOM     25  O   UNL     1       2.552   2.026  20.865  0.00  0.00    +0.000 OA
BRANCH  25  27
ATOM     26  C   UNL     1       4.650   1.950  19.745  0.00  0.00    +0.000 C 
ATOM     27  C   UNL     1       3.779   2.749  20.698  0.00  0.00    +0.000 C 
ENDBRANCH  25  27
ENDBRANCH  23  25
ENDBRANCH  22  23
ENDBRANCH  21  22
ENDBRANCH  19  21
ENDBRANCH  18  19
ENDBRANCH   1  18
TORSDOF 9
ENDMDL
MODEL 2
REMARK VINA RESULT:      -7.7      2.565      5.358
REMARK  Name = 
REMARK  13 active torsions:
REMARK  status: ('A' for Active; 'I' for Inactive)
REMARK    1  A    between atoms: C_1  and  C_2
REMARK    2  A    between atoms: C_2  and  O_3
REMARK    3  A    between atoms: O_3  and  C_4
REMARK    4  A    between atoms: C_4  and  C_6
REMARK    5  A    between atoms: C_6  and  C_7
REMARK    6  A    between atoms: C_7  and  C_8
REMARK    7  A    between atoms: C_8  and  O_10
REMARK    8  A    between atoms: O_10  and  C_11
REMARK    9  A    between atoms: C_13  and  C_14
REMARK   10  A    between atoms: C_14  and  C_15
REMARK   11  A    between atoms: C_14  and  C_16
REMARK   12  A    between atoms: C_14  and  C_17
REMARK   13  A    between atoms: N_19  and  C_20
REMARK                            x       y       z     vdW  Elec       q    Type
REMARK                         _______ _______ _______ _____ _____    ______ ____
ROOT
ATOM      1  C   UNL     1       4.261   5.912  18.408  0.00  0.00    +0.000 A 
ATOM      2  C   UNL     1       4.488   4.575  18.644  0.00  0.00    +0.000 A 
ATOM      3  C   UNL     1       3.441   4.136  19.483  0.00  0.00    +0.000 A 
ATOM      4  N   UNL     1       2.682   5.171  19.870  0.00  0.00    +0.000 NA
ATOM      5  N   UNL     1       3.107   6.221  19.115  0.00  0.00    +0.000 N 
ENDROOT
BRANCH   5   6
ATOM      6  C   UNL     1       2.368   7.440  19.106  0.00  0.00    +0.000 A 
ATOM      7  C   UNL     1       2.227   8.156  17.910  0.00  0.00    +0.000 A 
ATOM      8  C   UNL     1       1.492   9.346  17.887  0.00  0.00    +0.000 A 
ATOM      9  C   UNL     1       0.931   9.850  19.065  0.00  0.00    +0.000 A 
ATOM     10 CL   UNL     1       0.053  11.335  18.969  0.00  0.00    +0.000 Cl
ATOM     11  C   UNL     1       1.099   9.156  20.267  0.00  0.00    +0.000 A 
ATOM     12 CL   UNL     1       0.479   9.743  21.771  0.00  0.00    +0.000 Cl
ATOM     13  C   UNL     1       1.806   7.947  20.287  0.00  0.00    +0.000 A 
ENDBRANCH   5   6
BRANCH   3  14
ATOM     14  C   UNL     1       3.173   2.720  19.969  0.00  0.00    +0.000 C 
ATOM     15  C   UNL     1       2.315   1.964  18.939  0.00  0.00    +0.000 C 
ATOM     16  C   UNL     1       4.488   1.944  20.194  0.00  0.00    +0.000 C 
ATOM     17  C   UNL     1       2.417   2.733  21.319  0.00  0.00    +0.000 C 
ENDBRANCH   3  14
BRANCH   1  18
ATOM     18  O   UNL     1       4.929   6.841  17.733  0.00  0.00    +0.000 OA
BRANCH  18  19
ATOM     19  C   UNL     1       5.482   6.539  16.535  0.00  0.00    +0.000 C 
ATOM     20  O   UNL     1       4.986   6.688  15.424  0.00  0.00    +0.000 OA
BRANCH  19  21
ATOM     21  C   UNL     1       6.860   5.951  16.750  0.00  0.00    +0.000 C 
BRANCH  21  22
ATOM     22  C   UNL     1       6.972   4.582  16.094  0.00  0.00    +0.000 C 
BRANCH  22  23
ATOM     23  C   UNL     1       7.135   4.706  14.598  0.00  0.00    +0.000 C 
ATOM     24  O   UNL     1       7.848   5.522  14.039  0.00  0.00    +0.000 OA
BRANCH  23  25
ATOM     25  O   UNL     1       6.306   3.814  13.988  0.00  0.00    +0.000 OA
BRANCH  25  27
ATOM     26  C   UNL     1       5.174   3.209  11.985  0.00  0.00    +0.000 C 
ATOM     27  C   UNL     1       6.494   3.671  12.575  0.00  0.00    +0.000 C 
ENDBRANCH  25  27
ENDBRANCH  23  25
ENDBRANCH  22  23
ENDBRANCH  21  22
ENDBRANCH  19  21
ENDBRANCH  18  19
ENDBRANCH   1  18
TORSDOF 9
ENDMDL
MODEL 3
REMARK VINA RESULT:      -7.7      0.667      1.187
REMARK  Name = 
REMARK  13 active torsions:
REMARK  status: ('A' for Active; 'I' for Inactive)
REMARK    1  A    between atoms: C_1  and  C_2
REMARK    2  A    between atoms: C_2  and  O_3
REMARK    3  A    between atoms: O_3  and  C_4
REMARK    4  A    between atoms: C_4  and  C_6
REMARK    5  A    between atoms: C_6  and  C_7
REMARK    6  A    between atoms: C_7  and  C_8
REMARK    7  A    between atoms: C_8  and  O_10
REMARK    8  A    between atoms: O_10  and  C_11
REMARK    9  A    between atoms: C_13  and  C_14
REMARK   10  A    between atoms: C_14  and  C_15
REMARK   11  A    between atoms: C_14  and  C_16
REMARK   12  A    between atoms: C_14  and  C_17
REMARK   13  A    between atoms: N_19  and  C_20
REMARK                            x       y       z     vdW  Elec       q    Type
REMARK                         _______ _______ _______ _____ _____    ______ ____
ROOT
ATOM      1  C   UNL     1       2.849   5.381  17.746  0.00  0.00    +0.000 A 
ATOM      2  C   UNL     1       4.028   4.785  17.358  0.00  0.00    +0.000 A 
ATOM      3  C   UNL     1       5.012   5.797  17.388  0.00  0.00    +0.000 A 
ATOM      4  N   UNL     1       4.456   6.990  17.639  0.00  0.00    +0.000 NA
ATOM      5  N   UNL     1       3.167   6.713  17.979  0.00  0.00    +0.000 N 
ENDROOT
BRANCH   5   6
ATOM      6  C   UNL     1       2.336   7.735  18.524  0.00  0.00    +0.000 A 
ATOM      7  C   UNL     1       1.803   8.718  17.679  0.00  0.00    +0.000 A 
ATOM      8  C   UNL     1       0.975   9.717  18.202  0.00  0.00    +0.000 A 
ATOM      9  C   UNL     1       0.709   9.766  19.574  0.00  0.00    +0.000 A 
ATOM     10 CL   UNL     1      -0.305  11.039  20.154  0.00  0.00    +0.000 Cl
ATOM     11  C   UNL     1       1.269   8.807  20.424  0.00  0.00    +0.000 A 
ATOM     12 CL   UNL     1       1.028   8.833  22.137  0.00  0.00    +0.000 Cl
ATOM     13  C   UNL     1       2.071   7.786  19.900  0.00  0.00    +0.000 A 
ENDBRANCH   5   6
BRANCH   3  14
ATOM     14  C   UNL     1       6.504   5.647  17.132  0.00  0.00    +0.000 C 
ATOM     15  C   UNL     1       7.208   7.003  17.316  0.00  0.00    +0.000 C 
ATOM     16  C   UNL     1       7.139   4.616  18.090  0.00  0.00    +0.000 C 
ATOM     17  C   UNL     1       6.770   5.151  15.691  0.00  0.00    +0.000 C 
ENDBRANCH   3  14
BRANCH   1  18
ATOM     18  O   UNL     1       1.602   4.937  17.861  0.00  0.00    +0.000 OA
BRANCH  18  19
ATOM     19  C   UNL     1       1.363   3.741  18.448  0.00  0.00    +0.000 C 
ATOM     20  O   UNL     1       1.406   2.632  17.929  0.00  0.00    +0.000 OA
BRANCH  19  21
ATOM     21  C   UNL     1       1.006   3.956  19.903  0.00  0.00    +0.000 C 
BRANCH  21  22
ATOM     22  C   UNL     1       2.241   4.319  20.715  0.00  0.00    +0.000 C 
BRANCH  22  23
ATOM     23  C   UNL     1       3.050   3.089  21.056  0.00  0.00    +0.000 C 
ATOM     24  O   UNL     1       2.803   2.325  21.973  0.00  0.00    +0.000 OA
BRANCH  23  25
ATOM     25  O   UNL     1       4.126   3.024  20.224  0.00  0.00    +0.000 OA
BRANCH  25  27
ATOM     26  C   UNL     1       3.951   1.144  18.776  0.00  0.00    +0.000 C 
ATOM     27  C   UNL     1       4.648   1.708  20.001  0.00  0.00    +0.000 C 
ENDBRANCH  25  27
ENDBRANCH  23  25
ENDBRANCH  22  23
ENDBRANCH  21  22
ENDBRANCH  19  21
ENDBRANCH  18  19
ENDBRANCH   1  18
TORSDOF 9
ENDMDL
MODEL 4
REMARK VINA RESULT:      -7.6      2.450      4.845
REMARK  Name = 
REMARK  13 active torsions:
REMARK  status: ('A' for Active; 'I' for Inactive)
REMARK    1  A    between atoms: C_1  and  C_2
REMARK    2  A    between atoms: C_2  and  O_3
REMARK    3  A    between atoms: O_3  and  C_4
REMARK    4  A    between atoms: C_4  and  C_6
REMARK    5  A    between atoms: C_6  and  C_7
REMARK    6  A    between atoms: C_7  and  C_8
REMARK    7  A    between atoms: C_8  and  O_10
REMARK    8  A    between atoms: O_10  and  C_11
REMARK    9  A    between atoms: C_13  and  C_14
REMARK   10  A    between atoms: C_14  and  C_15
REMARK   11  A    between atoms: C_14  and  C_16
REMARK   12  A    between atoms: C_14  and  C_17
REMARK   13  A    between atoms: N_19  and  C_20
REMARK                            x       y       z     vdW  Elec       q    Type
REMARK                         _______ _______ _______ _____ _____    ______ ____
ROOT
ATOM      1  C   UNL     1       3.258   6.328  18.144  0.00  0.00    +0.000 A 
ATOM      2  C   UNL     1       3.387   4.957  18.126  0.00  0.00    +0.000 A 
ATOM      3  C   UNL     1       2.584   4.469  19.179  0.00  0.00    +0.000 A 
ATOM      4  N   UNL     1       2.095   5.481  19.908  0.00  0.00    +0.000 NA
ATOM      5  N   UNL     1       2.402   6.604  19.203  0.00  0.00    +0.000 N 
ENDROOT
BRANCH   5   6
ATOM      6  C   UNL     1       1.840   7.859  19.576  0.00  0.00    +0.000 A 
ATOM      7  C   UNL     1       1.713   8.874  18.617  0.00  0.00    +0.000 A 
ATOM      8  C   UNL     1       1.149  10.104  18.970  0.00  0.00    +0.000 A 
ATOM      9  C   UNL     1       0.749  10.344  20.288  0.00  0.00    +0.000 A 
ATOM     10 CL   UNL     1       0.080  11.894  20.659  0.00  0.00    +0.000 Cl
ATOM     11  C   UNL     1       0.907   9.346  21.254  0.00  0.00    +0.000 A 
ATOM     12 CL   UNL     1       0.483   9.587  22.914  0.00  0.00    +0.000 Cl
ATOM     13  C   UNL     1       1.440   8.101  20.898  0.00  0.00    +0.000 A 
ENDBRANCH   5   6
BRANCH   3  14
ATOM     14  C   UNL     1       2.305   3.016  19.537  0.00  0.00    +0.000 C 
ATOM     15  C   UNL     1       3.597   2.189  19.416  0.00  0.00    +0.000 C 
ATOM     16  C   UNL     1       1.757   2.886  20.974  0.00  0.00    +0.000 C 
ATOM     17  C   UNL     1       1.245   2.407  18.590  0.00  0.00    +0.000 C 
ENDBRANCH   3  14
BRANCH   1  18
ATOM     18  O   UNL     1       3.806   7.301  17.424  0.00  0.00    +0.000 OA
BRANCH  18  19
ATOM     19  C   UNL     1       4.951   7.072  16.741  0.00  0.00    +0.000 C 
ATOM     20  O   UNL     1       5.084   6.931  15.530  0.00  0.00    +0.000 OA
BRANCH  19  21
ATOM     21  C   UNL     1       6.111   6.997  17.711  0.00  0.00    +0.000 C 
BRANCH  21  22
ATOM     22  C   UNL     1       7.351   6.439  17.028  0.00  0.00    +0.000 C 
BRANCH  22  23
ATOM     23  C   UNL     1       7.498   4.959  17.290  0.00  0.00    +0.000 C 
ATOM     24  O   UNL     1       7.580   4.451  18.395  0.00  0.00    +0.000 OA
BRANCH  23  25
ATOM     25  O   UNL     1       7.597   4.308  16.098  0.00  0.00    +0.000 OA
BRANCH  25  27
ATOM     26  C   UNL     1       6.361   4.057  14.080  0.00  0.00    +0.000 C 
ATOM     27  C   UNL     1       6.365   3.795  15.576  0.00  0.00    +0.000 C 
ENDBRANCH  25  27
ENDBRANCH  23  25
ENDBRANCH  22  23
ENDBRANCH  21  22
ENDBRANCH  19  21
ENDBRANCH  18  19
ENDBRANCH   1  18
TORSDOF 9
ENDMDL
MODEL 5
REMARK VINA RESULT:      -7.6      1.258      2.193
REMARK  Name = 
REMARK  13 active torsions:
REMARK  status: ('A' for Active; 'I' for Inactive)
REMARK    1  A    between atoms: C_1  and  C_2
REMARK    2  A    between atoms: C_2  and  O_3
REMARK    3  A    between atoms: O_3  and  C_4
REMARK    4  A    between atoms: C_4  and  C_6
REMARK    5  A    between atoms: C_6  and  C_7
REMARK    6  A    between atoms: C_7  and  C_8
REMARK    7  A    between atoms: C_8  and  O_10
REMARK    8  A    between atoms: O_10  and  C_11
REMARK    9  A    between atoms: C_13  and  C_14
REMARK   10  A    between atoms: C_14  and  C_15
REMARK   11  A    between atoms: C_14  and  C_16
REMARK   12  A    between atoms: C_14  and  C_17
REMARK   13  A    between atoms: N_19  and  C_20
REMARK                            x       y       z     vdW  Elec       q    Type
REMARK                         _______ _______ _______ _____ _____    ______ ____
ROOT
ATOM      1  C   UNL     1       3.154   5.935  19.745  0.00  0.00    +0.000 A 
ATOM      2  C   UNL     1       4.238   5.308  19.173  0.00  0.00    +0.000 A 
ATOM      3  C   UNL     1       4.576   6.063  18.028  0.00  0.00    +0.000 A 
ATOM      4  N   UNL     1       3.666   7.024  17.812  0.00  0.00    +0.000 NA
ATOM      5  N   UNL     1       2.881   7.021  18.924  0.00  0.00    +0.000 N 
ENDROOT
BRANCH   5   6
ATOM      6  C   UNL     1       1.938   8.069  19.135  0.00  0.00    +0.000 A 
ATOM      7  C   UNL     1       1.536   8.868  18.055  0.00  0.00    +0.000 A 
ATOM      8  C   UNL     1       0.601   9.890  18.249  0.00  0.00    +0.000 A 
ATOM      9  C   UNL     1       0.094  10.148  19.527  0.00  0.00    +0.000 A 
ATOM     10 CL   UNL     1      -1.041  11.439  19.698  0.00  0.00    +0.000 Cl
ATOM     11  C   UNL     1       0.521   9.376  20.612  0.00  0.00    +0.000 A 
ATOM     12 CL   UNL     1      -0.021   9.670  22.229  0.00  0.00    +0.000 Cl
ATOM     13  C   UNL     1       1.431   8.331  20.416  0.00  0.00    +0.000 A 
ENDBRANCH   5   6
BRANCH   3  14
ATOM     14  C   UNL     1       5.754   5.849  17.090  0.00  0.00    +0.000 C 
ATOM     15  C   UNL     1       6.814   6.940  17.321  0.00  0.00    +0.000 C 
ATOM     16  C   UNL     1       6.402   4.465  17.307  0.00  0.00    +0.000 C 
ATOM     17  C   UNL     1       5.303   5.913  15.612  0.00  0.00    +0.000 C 
ENDBRANCH   3  14
BRANCH   1  18
ATOM     18  O   UNL     1       2.397   5.656  20.800  0.00  0.00    +0.000 OA
BRANCH  18  19
ATOM     19  C   UNL     1       1.905   4.406  20.967  0.00  0.00    +0.000 C 
ATOM     20  O   UNL     1       2.313   3.539  21.730  0.00  0.00    +0.000 OA
BRANCH  19  21
ATOM     21  C   UNL     1       0.731   4.198  20.035  0.00  0.00    +0.000 C 
BRANCH  21  22
ATOM     22  C   UNL     1       0.732   2.784  19.473  0.00  0.00    +0.000 C 
BRANCH  22  23
ATOM     23  C   UNL     1       1.736   2.643  18.353  0.00  0.00    +0.000 C 
ATOM     24  O   UNL     1       1.818   3.389  17.392  0.00  0.00    +0.000 OA
BRANCH  23  25
ATOM     25  O   UNL     1       2.472   1.517  18.560  0.00  0.00    +0.000 OA
BRANCH  25  27
ATOM     26  C   UNL     1       4.503   1.848  19.755  0.00  0.00    +0.000 C 
ATOM     27  C   UNL     1       3.886   1.669  18.379  0.00  0.00    +0.000 C 
ENDBRANCH  25  27
ENDBRANCH  23  25
ENDBRANCH  22  23
ENDBRANCH  21  22
ENDBRANCH  19  21
ENDBRANCH  18  19
ENDBRANCH   1  18
TORSDOF 9
ENDMDL
MODEL 6
REMARK VINA RESULT:      -7.5      0.842      1.698
REMARK  Name = 
REMARK  13 active torsions:
REMARK  status: ('A' for Active; 'I' for Inactive)
REMARK    1  A    between atoms: C_1  and  C_2
REMARK    2  A    between atoms: C_2  and  O_3
REMARK    3  A    between atoms: O_3  and  C_4
REMARK    4  A    between atoms: C_4  and  C_6
REMARK    5  A    between atoms: C_6  and  C_7
REMARK    6  A    between atoms: C_7  and  C_8
REMARK    7  A    between atoms: C_8  and  O_10
REMARK    8  A    between atoms: O_10  and  C_11
REMARK    9  A    between atoms: C_13  and  C_14
REMARK   10  A    between atoms: C_14  and  C_15
REMARK   11  A    between atoms: C_14  and  C_16
REMARK   12  A    between atoms: C_14  and  C_17
REMARK   13  A    between atoms: N_19  and  C_20
REMARK                            x       y       z     vdW  Elec       q    Type
REMARK                         _______ _______ _______ _____ _____    ______ ____
ROOT
ATOM      1  C   UNL     1       2.995   5.321  17.585  0.00  0.00    +0.000 A 
ATOM      2  C   UNL     1       4.173   4.820  17.076  0.00  0.00    +0.000 A 
ATOM      3  C   UNL     1       5.170   5.774  17.373  0.00  0.00    +0.000 A 
ATOM      4  N   UNL     1       4.625   6.876  17.908  0.00  0.00    +0.000 NA
ATOM      5  N   UNL     1       3.328   6.545  18.150  0.00  0.00    +0.000 N 
ENDROOT
BRANCH   5   6
ATOM      6  C   UNL     1       2.501   7.412  18.922  0.00  0.00    +0.000 A 
ATOM      7  C   UNL     1       2.157   7.055  20.233  0.00  0.00    +0.000 A 
ATOM      8  C   UNL     1       1.358   7.905  21.005  0.00  0.00    +0.000 A 
ATOM      9  C   UNL     1       0.863   9.094  20.460  0.00  0.00    +0.000 A 
ATOM     10 CL   UNL     1      -0.135  10.087  21.461  0.00  0.00    +0.000 Cl
ATOM     11  C   UNL     1       1.176   9.436  19.140  0.00  0.00    +0.000 A 
ATOM     12 CL   UNL     1       0.559  10.862  18.381  0.00  0.00    +0.000 Cl
ATOM     13  C   UNL     1       2.003   8.604  18.376  0.00  0.00    +0.000 A 
ENDBRANCH   5   6
BRANCH   3  14
ATOM     14  C   UNL     1       6.664   5.667  17.108  0.00  0.00    +0.000 C 
ATOM     15  C   UNL     1       7.332   7.040  17.303  0.00  0.00    +0.000 C 
ATOM     16  C   UNL     1       7.332   4.645  18.052  0.00  0.00    +0.000 C 
ATOM     17  C   UNL     1       6.936   5.193  15.661  0.00  0.00    +0.000 C 
ENDBRANCH   3  14
BRANCH   1  18
ATOM     18  O   UNL     1       1.741   4.883  17.568  0.00  0.00    +0.000 OA
BRANCH  18  19
ATOM     19  C   UNL     1       1.439   3.676  18.100  0.00  0.00    +0.000 C 
ATOM     20  O   UNL     1       1.577   2.575  17.579  0.00  0.00    +0.000 OA
BRANCH  19  21
ATOM     21  C   UNL     1       0.869   3.865  19.489  0.00  0.00    +0.000 C 
BRANCH  21  22
ATOM     22  C   UNL     1       1.191   2.668  20.373  0.00  0.00    +0.000 C 
BRANCH  22  23
ATOM     23  C   UNL     1       2.457   2.900  21.163  0.00  0.00    +0.000 C 
ATOM     24  O   UNL     1       2.530   2.901  22.380  0.00  0.00    +0.000 OA
BRANCH  23  25
ATOM     25  O   UNL     1       3.472   3.177  20.299  0.00  0.00    +0.000 OA
BRANCH  25  27
ATOM     26  C   UNL     1       4.244   1.378  18.946  0.00  0.00    +0.000 C 
ATOM     27  C   UNL     1       4.495   2.176  20.214  0.00  0.00    +0.000 C 
ENDBRANCH  25  27
ENDBRANCH  23  25
ENDBRANCH  22  23
ENDBRANCH  21  22
ENDBRANCH  19  21
ENDBRANCH  18  19
ENDBRANCH   1  18
TORSDOF 9
ENDMDL
MODEL 7
REMARK VINA RESULT:      -7.5      0.807      1.025
REMARK  Name = 
REMARK  13 active torsions:
REMARK  status: ('A' for Active; 'I' for Inactive)
REMARK    1  A    between atoms: C_1  and  C_2
REMARK    2  A    between atoms: C_2  and  O_3
REMARK    3  A    between atoms: O_3  and  C_4
REMARK    4  A    between atoms: C_4  and  C_6
REMARK    5  A    between atoms: C_6  and  C_7
REMARK    6  A    between atoms: C_7  and  C_8
REMARK    7  A    between atoms: C_8  and  O_10
REMARK    8  A    between atoms: O_10  and  C_11
REMARK    9  A    between atoms: C_13  and  C_14
REMARK   10  A    between atoms: C_14  and  C_15
REMARK   11  A    between atoms: C_14  and  C_16
REMARK   12  A    between atoms: C_14  and  C_17
REMARK   13  A    between atoms: N_19  and  C_20
REMARK                            x       y       z     vdW  Elec       q    Type
REMARK                         _______ _______ _______ _____ _____    ______ ____
ROOT
ATOM      1  C   UNL     1       3.152   5.368  17.991  0.00  0.00    +0.000 A 
ATOM      2  C   UNL     1       4.399   4.822  17.783  0.00  0.00    +0.000 A 
ATOM      3  C   UNL     1       5.323   5.880  17.924  0.00  0.00    +0.000 A 
ATOM      4  N   UNL     1       4.685   7.049  18.067  0.00  0.00    +0.000 NA
ATOM      5  N   UNL     1       3.375   6.717  18.234  0.00  0.00    +0.000 N 
ENDROOT
BRANCH   5   6
ATOM      6  C   UNL     1       2.432   7.708  18.635  0.00  0.00    +0.000 A 
ATOM      7  C   UNL     1       1.959   8.634  17.695  0.00  0.00    +0.000 A 
ATOM      8  C   UNL     1       1.022   9.601  18.075  0.00  0.00    +0.000 A 
ATOM      9  C   UNL     1       0.586   9.677  19.402  0.00  0.00    +0.000 A 
ATOM     10 CL   UNL     1      -0.556  10.909  19.806  0.00  0.00    +0.000 Cl
ATOM     11  C   UNL     1       1.084   8.777  20.349  0.00  0.00    +0.000 A 
ATOM     12 CL   UNL     1       0.631   8.842  22.017  0.00  0.00    +0.000 Cl
ATOM     13  C   UNL     1       1.996   7.786  19.965  0.00  0.00    +0.000 A 
ENDBRANCH   5   6
BRANCH   3  14
ATOM     14  C   UNL     1       6.842   5.797  17.879  0.00  0.00    +0.000 C 
ATOM     15  C   UNL     1       7.277   4.601  17.013  0.00  0.00    +0.000 C 
ATOM     16  C   UNL     1       7.459   7.088  17.300  0.00  0.00    +0.000 C 
ATOM     17  C   UNL     1       7.428   5.610  19.298  0.00  0.00    +0.000 C 
ENDBRANCH   3  14
BRANCH   1  18
ATOM     18  O   UNL     1       1.922   4.867  17.945  0.00  0.00    +0.000 OA
BRANCH  18  19
ATOM     19  C   UNL     1       1.741   3.526  17.906  0.00  0.00    +0.000 C 
ATOM     20  O   UNL     1       2.216   2.731  17.104  0.00  0.00    +0.000 OA
BRANCH  19  21
ATOM     21  C   UNL     1       0.818   3.110  19.031  0.00  0.00    +0.000 C 
BRANCH  21  22
ATOM     22  C   UNL     1       1.567   2.281  20.065  0.00  0.00    +0.000 C 
BRANCH  22  23
ATOM     23  C   UNL     1       2.271   3.165  21.066  0.00  0.00    +0.000 C 
ATOM     24  O   UNL     1       1.882   4.265  21.421  0.00  0.00    +0.000 OA
BRANCH  23  25
ATOM     25  O   UNL     1       3.435   2.567  21.442  0.00  0.00    +0.000 OA
BRANCH  25  27
ATOM     26  C   UNL     1       5.293   1.170  20.931  0.00  0.00    +0.000 C 
ATOM     27  C   UNL     1       4.289   2.160  20.365  0.00  0.00    +0.000 C 
ENDBRANCH  25  27
ENDBRANCH  23  25
ENDBRANCH  22  23
ENDBRANCH  21  22
ENDBRANCH  19  21
ENDBRANCH  18  19
ENDBRANCH   1  18
TORSDOF 9
ENDMDL
MODEL 8
REMARK VINA RESULT:      -7.4      2.434      5.273
REMARK  Name = 
REMARK  13 active torsions:
REMARK  status: ('A' for Active; 'I' for Inactive)
REMARK    1  A    between atoms: C_1  and  C_2
REMARK    2  A    between atoms: C_2  and  O_3
REMARK    3  A    between atoms: O_3  and  C_4
REMARK    4  A    between atoms: C_4  and  C_6
REMARK    5  A    between atoms: C_6  and  C_7
REMARK    6  A    between atoms: C_7  and  C_8
REMARK    7  A    between atoms: C_8  and  O_10
REMARK    8  A    between atoms: O_10  and  C_11
REMARK    9  A    between atoms: C_13  and  C_14
REMARK   10  A    between atoms: C_14  and  C_15
REMARK   11  A    between atoms: C_14  and  C_16
REMARK   12  A    between atoms: C_14  and  C_17
REMARK   13  A    between atoms: N_19  and  C_20
REMARK                            x       y       z     vdW  Elec       q    Type
REMARK                         _______ _______ _______ _____ _____    ______ ____
ROOT
ATOM      1  C   UNL     1       4.117   5.510  18.835  0.00  0.00    +0.000 A 
ATOM      2  C   UNL     1       4.032   4.139  18.942  0.00  0.00    +0.000 A 
ATOM      3  C   UNL     1       2.703   3.853  19.321  0.00  0.00    +0.000 A 
ATOM      4  N   UNL     1       2.032   4.984  19.580  0.00  0.00    +0.000 NA
ATOM      5  N   UNL     1       2.853   5.984  19.162  0.00  0.00    +0.000 N 
ENDROOT
BRANCH   5   6
ATOM      6  C   UNL     1       2.368   7.322  19.084  0.00  0.00    +0.000 A 
ATOM      7  C   UNL     1       2.514   8.043  17.890  0.00  0.00    +0.000 A 
ATOM      8  C   UNL     1       2.028   9.352  17.799  0.00  0.00    +0.000 A 
ATOM      9  C   UNL     1       1.434   9.963  18.908  0.00  0.00    +0.000 A 
ATOM     10 CL   UNL     1       0.876  11.588  18.731  0.00  0.00    +0.000 Cl
ATOM     11  C   UNL     1       1.320   9.258  20.110  0.00  0.00    +0.000 A 
ATOM     12 CL   UNL     1       0.645   9.964  21.538  0.00  0.00    +0.000 Cl
ATOM     13  C   UNL     1       1.774   7.936  20.196  0.00  0.00    +0.000 A 
ENDBRANCH   5   6
BRANCH   3  14
ATOM     14  C   UNL     1       2.060   2.484  19.489  0.00  0.00    +0.000 C 
ATOM     15  C   UNL     1       1.817   2.197  20.980  0.00  0.00    +0.000 C 
ATOM     16  C   UNL     1       0.716   2.397  18.734  0.00  0.00    +0.000 C 
ATOM     17  C   UNL     1       2.973   1.372  18.920  0.00  0.00    +0.000 C 
ENDBRANCH   3  14
BRANCH   1  18
ATOM     18  O   UNL     1       5.117   6.338  18.553  0.00  0.00    +0.000 OA
BRANCH  18  19
ATOM     19  C   UNL     1       6.397   5.932  18.720  0.00  0.00    +0.000 C 
ATOM     20  O   UNL     1       6.922   5.518  19.747  0.00  0.00    +0.000 OA
BRANCH  19  21
ATOM     21  C   UNL     1       7.144   6.070  17.411  0.00  0.00    +0.000 C 
BRANCH  21  22
ATOM     22  C   UNL     1       7.069   4.779  16.607  0.00  0.00    +0.000 C 
BRANCH  22  23
ATOM     23  C   UNL     1       6.251   4.966  15.352  0.00  0.00    +0.000 C 
ATOM     24  O   UNL     1       5.643   5.981  15.060  0.00  0.00    +0.000 OA
BRANCH  23  25
ATOM     25  O   UNL     1       6.249   3.800  14.649  0.00  0.00    +0.000 OA
BRANCH  25  27
ATOM     26  C   UNL     1       5.369   3.424  12.470  0.00  0.00    +0.000 C 
ATOM     27  C   UNL     1       6.568   3.923  13.257  0.00  0.00    +0.000 C 
ENDBRANCH  25  27
ENDBRANCH  23  25
ENDBRANCH  22  23
ENDBRANCH  21  22
ENDBRANCH  19  21
ENDBRANCH  18  19
ENDBRANCH   1  18
TORSDOF 9
ENDMDL
MODEL 9
REMARK VINA RESULT:      -7.4      2.414      5.133
REMARK  Name = 
REMARK  13 active torsions:
REMARK  status: ('A' for Active; 'I' for Inactive)
REMARK    1  A    between atoms: C_1  and  C_2
REMARK    2  A    between atoms: C_2  and  O_3
REMARK    3  A    between atoms: O_3  and  C_4
REMARK    4  A    between atoms: C_4  and  C_6
REMARK    5  A    between atoms: C_6  and  C_7
REMARK    6  A    between atoms: C_7  and  C_8
REMARK    7  A    between atoms: C_8  and  O_10
REMARK    8  A    between atoms: O_10  and  C_11
REMARK    9  A    between atoms: C_13  and  C_14
REMARK   10  A    between atoms: C_14  and  C_15
REMARK   11  A    between atoms: C_14  and  C_16
REMARK   12  A    between atoms: C_14  and  C_17
REMARK   13  A    between atoms: N_19  and  C_20
REMARK                            x       y       z     vdW  Elec       q    Type
REMARK                         _______ _______ _______ _____ _____    ______ ____
ROOT
ATOM      1  C   UNL     1       3.995   5.698  18.799  0.00  0.00    +0.000 A 
ATOM      2  C   UNL     1       3.948   4.327  18.915  0.00  0.00    +0.000 A 
ATOM      3  C   UNL     1       2.643   4.010  19.350  0.00  0.00    +0.000 A 
ATOM      4  N   UNL     1       1.956   5.125  19.632  0.00  0.00    +0.000 NA
ATOM      5  N   UNL     1       2.735   6.143  19.176  0.00  0.00    +0.000 N 
ENDROOT
BRANCH   5   6
ATOM      6  C   UNL     1       2.214   7.468  19.112  0.00  0.00    +0.000 A 
ATOM      7  C   UNL     1       2.311   8.194  17.917  0.00  0.00    +0.000 A 
ATOM      8  C   UNL     1       1.790   9.490  17.840  0.00  0.00    +0.000 A 
ATOM      9  C   UNL     1       1.209  10.085  18.965  0.00  0.00    +0.000 A 
ATOM     10 CL   UNL     1       0.605  11.695  18.805  0.00  0.00    +0.000 Cl
ATOM     11  C   UNL     1       1.142   9.375  20.168  0.00  0.00    +0.000 A 
ATOM     12 CL   UNL     1       0.485  10.062  21.614  0.00  0.00    +0.000 Cl
ATOM     13  C   UNL     1       1.632   8.066  20.240  0.00  0.00    +0.000 A 
ENDBRANCH   5   6
BRANCH   3  14
ATOM     14  C   UNL     1       2.043   2.626  19.550  0.00  0.00    +0.000 C 
ATOM     15  C   UNL     1       2.991   1.555  18.983  0.00  0.00    +0.000 C 
ATOM     16  C   UNL     1       1.789   2.333  21.044  0.00  0.00    +0.000 C 
ATOM     17  C   UNL     1       0.681   2.505  18.826  0.00  0.00    +0.000 C 
ENDBRANCH   3  14
BRANCH   1  18
ATOM     18  O   UNL     1       4.962   6.549  18.473  0.00  0.00    +0.000 OA
BRANCH  18  19
ATOM     19  C   UNL     1       6.255   6.221  18.699  0.00  0.00    +0.000 C 
ATOM     20  O   UNL     1       6.722   5.655  19.680  0.00  0.00    +0.000 OA
BRANCH  19  21
ATOM     21  C   UNL     1       7.102   6.673  17.528  0.00  0.00    +0.000 C 
BRANCH  21  22
ATOM     22  C   UNL     1       6.704   5.937  16.257  0.00  0.00    +0.000 C 
BRANCH  22  23
ATOM     23  C   UNL     1       7.119   4.486  16.315  0.00  0.00    +0.000 C 
ATOM     24  O   UNL     1       8.126   4.070  16.862  0.00  0.00    +0.000 OA
BRANCH  23  25
ATOM     25  O   UNL     1       6.228   3.744  15.601  0.00  0.00    +0.000 OA
BRANCH  25  27
ATOM     26  C   UNL     1       6.164   3.714  13.222  0.00  0.00    +0.000 C 
ATOM     27  C   UNL     1       5.646   4.406  14.471  0.00  0.00    +0.000 C 
ENDBRANCH  25  27
ENDBRANCH  23  25
ENDBRANCH  22  23
ENDBRANCH  21  22
ENDBRANCH  19  21
ENDBRANCH  18  19
ENDBRANCH   1  18
TORSDOF 9
ENDMDL
