MODEL 1
REMARK VINA RESULT:      -8.1      0.000      0.000
REMARK  Name = 
REMARK  8 active torsions:
REMARK  status: ('A' for Active; 'I' for Inactive)
REMARK    1  A    between atoms: C_1  and  C_2
REMARK    2  A    between atoms: C_2  and  C_3
REMARK    3  A    between atoms: C_2  and  N_4
REMARK    4  A    between atoms: N_7  and  S_8
REMARK    5  A    between atoms: S_8  and  C_11
REMARK    6  A    between atoms: C_14  and  N_15
REMARK    7  A    between atoms: C_16  and  C_18
REMARK    8  A    between atoms: C_21  and  C_22
REMARK                            x       y       z     vdW  Elec       q    Type
REMARK                         _______ _______ _______ _____ _____    ______ ____
ROOT
ATOM      1  C   UNL     1       3.098   6.463  19.223  0.00  0.00    +0.000 A 
ATOM      2  C   UNL     1       2.402   6.296  20.416  0.00  0.00    +0.000 A 
ATOM      3  C   UNL     1       1.463   7.248  20.796  0.00  0.00    +0.000 A 
ATOM      4  C   UNL     1       1.210   8.364  19.993  0.00  0.00    +0.000 A 
ATOM      5  C   UNL     1       1.907   8.520  18.790  0.00  0.00    +0.000 A 
ATOM      6  C   UNL     1       2.876   7.586  18.419  0.00  0.00    +0.000 A 
ENDROOT
BRANCH   4   7
ATOM      7  N   UNL     1       0.257   9.341  20.333  0.00  0.00    +0.000 N 
ATOM      8  C   UNL     1       0.408  10.281  21.338  0.00  0.00    +0.000 C 
ATOM      9  O   UNL     1       1.428  10.486  21.988  0.00  0.00    +0.000 OA
ATOM     10  H   UNL     1      -0.591   9.346  19.785  0.00  0.00    +0.000 HD
BRANCH   8  11
ATOM     11  C   UNL     1      -0.784  11.100  21.657  0.00  0.00    +0.000 A 
ATOM     12  C   UNL     1      -1.238  11.057  22.980  0.00  0.00    +0.000 A 
ATOM     13  C   UNL     1      -2.370  11.772  23.360  0.00  0.00    +0.000 A 
ATOM     14  C   UNL     1      -3.074  12.558  22.433  0.00  0.00    +0.000 A 
ATOM     15  C   UNL     1      -2.593  12.599  21.110  0.00  0.00    +0.000 A 
ATOM     16  C   UNL     1      -1.456  11.887  20.720  0.00  0.00    +0.000 A 
BRANCH  14  17
ATOM     17  C   UNL     1      -4.286  13.299  22.818  0.00  0.00    +0.000 A 
ATOM     18  C   UNL     1      -4.240  14.548  23.440  0.00  0.00    +0.000 A 
ATOM     19  C   UNL     1      -5.430  15.166  23.814  0.00  0.00    +0.000 A 
ATOM     20  C   UNL     1      -6.635  14.531  23.552  0.00  0.00    +0.000 A 
ATOM     21  C   UNL     1      -6.601  13.304  22.920  0.00  0.00    +0.000 A 
ATOM     22  N   UNL     1      -5.463  12.681  22.546  0.00  0.00    +0.000 NA
ENDBRANCH  14  17
ENDBRANCH   8  11
ENDBRANCH   4   7
BRANCH   1  23
ATOM     23  S   UNL     1       4.293   5.234  18.752  0.00  0.00    +0.000 S 
ATOM     24  O   UNL     1       3.774   3.945  19.151  0.00  0.00    +0.000 OA
ATOM     25  O   UNL     1       5.579   5.707  19.213  0.00  0.00    +0.000 OA
BRANCH  23  29
ATOM     26  N   UNL     1       6.629   4.573  15.501  0.00  0.00    +0.000 NA
ATOM     27  C   UNL     1       6.529   5.819  16.304  0.00  0.00    +0.000 C 
ATOM     28  C   UNL     1       5.092   6.372  16.429  0.00  0.00    +0.000 C 
ATOM     29  N   UNL     1       4.202   5.356  17.052  0.00  0.00    +0.000 NA
ATOM     30  C   UNL     1       4.234   4.083  16.276  0.00  0.00    +0.000 C 
ATOM     31  C   UNL     1       5.679   3.583  16.071  0.00  0.00    +0.000 C 
BRANCH  26  33
ATOM     32  C   UNL     1       7.879   5.288  13.494  0.00  0.00    +0.000 C 
ATOM     33  C   UNL     1       6.514   4.833  14.050  0.00  0.00    +0.000 C 
ATOM     34  C   UNL     1       6.087   3.609  13.228  0.00  0.00    +0.000 C 
ENDBRANCH  26  33
ENDBRANCH  23  29
ENDBRANCH   1  23
TORSDOF 6
ENDMDL
MODEL 2
REMARK VINA RESULT:      -7.9      0.725      1.546
REMARK  Name = 
REMARK  8 active torsions:
REMARK  status: ('A' for Active; 'I' for Inactive)
REMARK    1  A    between atoms: C_1  and  C_2
REMARK    2  A    between atoms: C_2  and  C_3
REMARK    3  A    between atoms: C_2  and  N_4
REMARK    4  A    between atoms: N_7  and  S_8
REMARK    5  A    between atoms: S_8  and  C_11
REMARK    6  A    between atoms: C_14  and  N_15
REMARK    7  A    between atoms: C_16  and  C_18
REMARK    8  A    between atoms: C_21  and  C_22
REMARK                            x       y       z     vdW  Elec       q    Type
REMARK                         _______ _______ _______ _____ _____    ______ ____
ROOT
ATOM      1  C   UNL     1       3.363   6.299  18.966  0.00  0.00    +0.000 A 
ATOM      2  C   UNL     1       3.149   7.404  18.148  0.00  0.00    +0.000 A 
ATOM      3  C   UNL     1       2.237   8.377  18.542  0.00  0.00    +0.000 A 
ATOM      4  C   UNL     1       1.541   8.259  19.749  0.00  0.00    +0.000 A 
ATOM      5  C   UNL     1       1.770   7.150  20.570  0.00  0.00    +0.000 A 
ATOM      6  C   UNL     1       2.657   6.152  20.165  0.00  0.00    +0.000 A 
ENDROOT
BRANCH   4   7
ATOM      7  N   UNL     1       0.623   9.229  20.191  0.00  0.00    +0.000 N 
ATOM      8  C   UNL     1       0.667   9.860  21.423  0.00  0.00    +0.000 C 
ATOM      9  O   UNL     1       1.568   9.766  22.250  0.00  0.00    +0.000 OA
ATOM     10  H   UNL     1      -0.110   9.477  19.542  0.00  0.00    +0.000 HD
BRANCH   8  11
ATOM     11  C   UNL     1      -0.493  10.713  21.766  0.00  0.00    +0.000 A 
ATOM     12  C   UNL     1      -1.042  11.472  20.726  0.00  0.00    +0.000 A 
ATOM     13  C   UNL     1      -2.115  12.325  20.967  0.00  0.00    +0.000 A 
ATOM     14  C   UNL     1      -2.676  12.438  22.249  0.00  0.00    +0.000 A 
ATOM     15  C   UNL     1      -2.118  11.656  23.279  0.00  0.00    +0.000 A 
ATOM     16  C   UNL     1      -1.044  10.793  23.046  0.00  0.00    +0.000 A 
BRANCH  14  17
ATOM     17  C   UNL     1      -3.795  13.355  22.520  0.00  0.00    +0.000 A 
ATOM     18  C   UNL     1      -5.087  13.130  22.042  0.00  0.00    +0.000 A 
ATOM     19  C   UNL     1      -6.082  14.067  22.304  0.00  0.00    +0.000 A 
ATOM     20  C   UNL     1      -5.770  15.199  23.042  0.00  0.00    +0.000 A 
ATOM     21  C   UNL     1      -4.474  15.346  23.494  0.00  0.00    +0.000 A 
ATOM     22  N   UNL     1      -3.489  14.453  23.255  0.00  0.00    +0.000 NA
ENDBRANCH  14  17
ENDBRANCH   8  11
ENDBRANCH   4   7
BRANCH   1  23
ATOM     23  S   UNL     1       4.533   5.067  18.447  0.00  0.00    +0.000 S 
ATOM     24  O   UNL     1       3.998   3.774  18.812  0.00  0.00    +0.000 OA
ATOM     25  O   UNL     1       5.831   5.505  18.910  0.00  0.00    +0.000 OA
BRANCH  23  29
ATOM     26  N   UNL     1       6.839   4.488  15.159  0.00  0.00    +0.000 NA
ATOM     27  C   UNL     1       6.754   5.709  16.000  0.00  0.00    +0.000 C 
ATOM     28  C   UNL     1       5.322   6.269  16.154  0.00  0.00    +0.000 C 
ATOM     29  N   UNL     1       4.430   5.241  16.753  0.00  0.00    +0.000 NA
ATOM     30  C   UNL     1       4.446   3.992  15.937  0.00  0.00    +0.000 C 
ATOM     31  C   UNL     1       5.886   3.488  15.706  0.00  0.00    +0.000 C 
BRANCH  26  33
ATOM     32  C   UNL     1       8.064   5.307  13.177  0.00  0.00    +0.000 C 
ATOM     33  C   UNL     1       6.714   4.793  13.717  0.00  0.00    +0.000 C 
ATOM     34  C   UNL     1       6.322   3.586  12.855  0.00  0.00    +0.000 C 
ENDBRANCH  26  33
ENDBRANCH  23  29
ENDBRANCH   1  23
TORSDOF 6
ENDMDL
MODEL 3
REMARK VINA RESULT:      -7.6      0.637      1.064
REMARK  Name = 
REMARK  8 active torsions:
REMARK  status: ('A' for Active; 'I' for Inactive)
REMARK    1  A    between atoms: C_1  and  C_2
REMARK    2  A    between atoms: C_2  and  C_3
REMARK    3  A    between atoms: C_2  and  N_4
REMARK    4  A    between atoms: N_7  and  S_8
REMARK    5  A    between atoms: S_8  and  C_11
REMARK    6  A    between atoms: C_14  and  N_15
REMARK    7  A    between atoms: C_16  and  C_18
REMARK    8  A    between atoms: C_21  and  C_22
REMARK                            x       y       z     vdW  Elec       q    Type
REMARK                         _______ _______ _______ _____ _____    ______ ____
ROOT
ATOM      1  C   UNL     1       3.081   6.566  19.261  0.00  0.00    +0.000 A 
ATOM      2  C   UNL     1       2.402   6.397  20.463  0.00  0.00    +0.000 A 
ATOM      3  C   UNL     1       1.445   7.332  20.841  0.00  0.00    +0.000 A 
ATOM      4  C   UNL     1       1.156   8.432  20.027  0.00  0.00    +0.000 A 
ATOM      5  C   UNL     1       1.837   8.588  18.814  0.00  0.00    +0.000 A 
ATOM      6  C   UNL     1       2.824   7.673  18.445  0.00  0.00    +0.000 A 
ENDROOT
BRANCH   4   7
ATOM      7  N   UNL     1       0.184   9.390  20.365  0.00  0.00    +0.000 N 
ATOM      8  C   UNL     1       0.399  10.482  21.187  0.00  0.00    +0.000 C 
ATOM      9  O   UNL     1       1.481  10.847  21.635  0.00  0.00    +0.000 OA
ATOM     10  H   UNL     1      -0.731   9.258  19.959  0.00  0.00    +0.000 HD
BRANCH   8  11
ATOM     11  C   UNL     1      -0.798  11.268  21.564  0.00  0.00    +0.000 A 
ATOM     12  C   UNL     1      -1.358  12.074  20.567  0.00  0.00    +0.000 A 
ATOM     13  C   UNL     1      -2.466  12.870  20.843  0.00  0.00    +0.000 A 
ATOM     14  C   UNL     1      -3.053  12.874  22.118  0.00  0.00    +0.000 A 
ATOM     15  C   UNL     1      -2.484  12.045  23.105  0.00  0.00    +0.000 A 
ATOM     16  C   UNL     1      -1.374  11.241  22.835  0.00  0.00    +0.000 A 
BRANCH  14  17
ATOM     17  C   UNL     1      -4.211  13.729  22.428  0.00  0.00    +0.000 A 
ATOM     18  C   UNL     1      -4.711  13.880  23.723  0.00  0.00    +0.000 A 
ATOM     19  C   UNL     1      -5.837  14.671  23.930  0.00  0.00    +0.000 A 
ATOM     20  C   UNL     1      -6.432  15.299  22.845  0.00  0.00    +0.000 A 
ATOM     21  C   UNL     1      -5.872  15.114  21.597  0.00  0.00    +0.000 A 
ATOM     22  N   UNL     1      -4.781  14.353  21.368  0.00  0.00    +0.000 NA
ENDBRANCH  14  17
ENDBRANCH   8  11
ENDBRANCH   4   7
BRANCH   1  23
ATOM     23  S   UNL     1       4.300   5.359  18.792  0.00  0.00    +0.000 S 
ATOM     24  O   UNL     1       3.791   4.058  19.165  0.00  0.00    +0.000 OA
ATOM     25  O   UNL     1       5.571   5.842  19.281  0.00  0.00    +0.000 OA
BRANCH  23  29
ATOM     26  N   UNL     1       6.573   4.472  15.551  0.00  0.00    +0.000 NA
ATOM     27  C   UNL     1       6.604   5.714  16.364  0.00  0.00    +0.000 C 
ATOM     28  C   UNL     1       5.236   6.421  16.485  0.00  0.00    +0.000 C 
ATOM     29  N   UNL     1       4.236   5.504  17.093  0.00  0.00    +0.000 NA
ATOM     30  C   UNL     1       4.133   4.242  16.306  0.00  0.00    +0.000 C 
ATOM     31  C   UNL     1       5.516   3.587  16.106  0.00  0.00    +0.000 C 
BRANCH  26  33
ATOM     32  C   UNL     1       7.848   5.319  13.612  0.00  0.00    +0.000 C 
ATOM     33  C   UNL     1       6.498   4.755  14.101  0.00  0.00    +0.000 C 
ATOM     34  C   UNL     1       6.194   3.522  13.239  0.00  0.00    +0.000 C 
ENDBRANCH  26  33
ENDBRANCH  23  29
ENDBRANCH   1  23
TORSDOF 6
ENDMDL
MODEL 4
REMARK VINA RESULT:      -7.4      7.609     10.440
REMARK  Name = 
REMARK  8 active torsions:
REMARK  status: ('A' for Active; 'I' for Inactive)
REMARK    1  A    between atoms: C_1  and  C_2
REMARK    2  A    between atoms: C_2  and  C_3
REMARK    3  A    between atoms: C_2  and  N_4
REMARK    4  A    between atoms: N_7  and  S_8
REMARK    5  A    between atoms: S_8  and  C_11
REMARK    6  A    between atoms: C_14  and  N_15
REMARK    7  A    between atoms: C_16  and  C_18
REMARK    8  A    between atoms: C_21  and  C_22
REMARK                            x       y       z     vdW  Elec       q    Type
REMARK                         _______ _______ _______ _____ _____    ______ ____
ROOT
ATOM      1  C   UNL     1       6.704   6.198  17.677  0.00  0.00    +0.000 A 
ATOM      2  C   UNL     1       6.165   7.265  16.966  0.00  0.00    +0.000 A 
ATOM      3  C   UNL     1       6.780   8.510  17.035  0.00  0.00    +0.000 A 
ATOM      4  C   UNL     1       7.933   8.698  17.804  0.00  0.00    +0.000 A 
ATOM      5  C   UNL     1       8.474   7.616  18.508  0.00  0.00    +0.000 A 
ATOM      6  C   UNL     1       7.842   6.373  18.472  0.00  0.00    +0.000 A 
ENDROOT
BRANCH   4   7
ATOM      7  N   UNL     1       8.595   9.936  17.887  0.00  0.00    +0.000 N 
ATOM      8  C   UNL     1       9.134  10.472  19.043  0.00  0.00    +0.000 C 
ATOM      9  O   UNL     1       9.230   9.904  20.127  0.00  0.00    +0.000 OA
ATOM     10  H   UNL     1       8.680  10.453  17.024  0.00  0.00    +0.000 HD
BRANCH   8  11
ATOM     11  C   UNL     1       9.626  11.866  18.955  0.00  0.00    +0.000 A 
ATOM     12  C   UNL     1       9.271  12.723  20.003  0.00  0.00    +0.000 A 
ATOM     13  C   UNL     1       9.665  14.058  19.985  0.00  0.00    +0.000 A 
ATOM     14  C   UNL     1      10.431  14.572  18.927  0.00  0.00    +0.000 A 
ATOM     15  C   UNL     1      10.790  13.690  17.888  0.00  0.00    +0.000 A 
ATOM     16  C   UNL     1      10.402  12.347  17.900  0.00  0.00    +0.000 A 
BRANCH  14  17
ATOM     17  C   UNL     1      10.833  15.987  18.886  0.00  0.00    +0.000 A 
ATOM     18  C   UNL     1      10.670  16.849  19.972  0.00  0.00    +0.000 A 
ATOM     19  C   UNL     1      11.034  18.186  19.840  0.00  0.00    +0.000 A 
ATOM     20  C   UNL     1      11.557  18.630  18.635  0.00  0.00    +0.000 A 
ATOM     21  C   UNL     1      11.701  17.717  17.610  0.00  0.00    +0.000 A 
ATOM     22  N   UNL     1      11.357  16.415  17.710  0.00  0.00    +0.000 NA
ENDBRANCH  14  17
ENDBRANCH   8  11
ENDBRANCH   4   7
BRANCH   1  23
ATOM     23  S   UNL     1       5.905   4.613  17.576  0.00  0.00    +0.000 S 
ATOM     24  O   UNL     1       6.550   3.737  18.528  0.00  0.00    +0.000 OA
ATOM     25  O   UNL     1       5.828   4.277  16.172  0.00  0.00    +0.000 OA
BRANCH  23  29
ATOM     26  N   UNL     1       2.784   2.829  19.457  0.00  0.00    +0.000 NA
ATOM     27  C   UNL     1       3.027   2.917  17.994  0.00  0.00    +0.000 C 
ATOM     28  C   UNL     1       3.212   4.360  17.473  0.00  0.00    +0.000 C 
ATOM     29  N   UNL     1       4.355   5.014  18.165  0.00  0.00    +0.000 NA
ATOM     30  C   UNL     1       4.160   4.985  19.643  0.00  0.00    +0.000 C 
ATOM     31  C   UNL     1       3.882   3.554  20.148  0.00  0.00    +0.000 C 
BRANCH  26  33
ATOM     32  C   UNL     1       0.400   2.491  18.908  0.00  0.00    +0.000 C 
ATOM     33  C   UNL     1       1.406   3.224  19.819  0.00  0.00    +0.000 C 
ATOM     34  C   UNL     1       1.020   2.889  21.266  0.00  0.00    +0.000 C 
ENDBRANCH  26  33
ENDBRANCH  23  29
ENDBRANCH   1  23
TORSDOF 6
ENDMDL
MODEL 5
REMARK VINA RESULT:      -7.2      8.297     12.012
REMARK  Name = 
REMARK  8 active torsions:
REMARK  status: ('A' for Active; 'I' for Inactive)
REMARK    1  A    between atoms: C_1  and  C_2
REMARK    2  A    between atoms: C_2  and  C_3
REMARK    3  A    between atoms: C_2  and  N_4
REMARK    4  A    between atoms: N_7  and  S_8
REMARK    5  A    between atoms: S_8  and  C_11
REMARK    6  A    between atoms: C_14  and  N_15
REMARK    7  A    between atoms: C_16  and  C_18
REMARK    8  A    between atoms: C_21  and  C_22
REMARK                            x       y       z     vdW  Elec       q    Type
REMARK                         _______ _______ _______ _____ _____    ______ ____
ROOT
ATOM      1  C   UNL     1      10.001  12.590  17.992  0.00  0.00    +0.000 A 
ATOM      2  C   UNL     1       8.727  12.565  17.435  0.00  0.00    +0.000 A 
ATOM      3  C   UNL     1       7.961  11.409  17.536  0.00  0.00    +0.000 A 
ATOM      4  C   UNL     1       8.456  10.278  18.195  0.00  0.00    +0.000 A 
ATOM      5  C   UNL     1       9.734  10.316  18.762  0.00  0.00    +0.000 A 
ATOM      6  C   UNL     1      10.522  11.461  18.634  0.00  0.00    +0.000 A 
ENDROOT
BRANCH   4   7
ATOM      7  N   UNL     1       7.707   9.096  18.334  0.00  0.00    +0.000 N 
ATOM      8  C   UNL     1       7.774   8.009  17.479  0.00  0.00    +0.000 C 
ATOM      9  O   UNL     1       8.573   7.861  16.561  0.00  0.00    +0.000 OA
ATOM     10  H   UNL     1       7.087   9.053  19.130  0.00  0.00    +0.000 HD
BRANCH   8  11
ATOM     11  C   UNL     1       6.773   6.940  17.697  0.00  0.00    +0.000 A 
ATOM     12  C   UNL     1       5.485   7.178  17.206  0.00  0.00    +0.000 A 
ATOM     13  C   UNL     1       4.474   6.239  17.394  0.00  0.00    +0.000 A 
ATOM     14  C   UNL     1       4.724   5.033  18.067  0.00  0.00    +0.000 A 
ATOM     15  C   UNL     1       6.031   4.805  18.541  0.00  0.00    +0.000 A 
ATOM     16  C   UNL     1       7.052   5.740  18.354  0.00  0.00    +0.000 A 
BRANCH  14  17
ATOM     17  C   UNL     1       3.658   4.043  18.292  0.00  0.00    +0.000 A 
ATOM     18  C   UNL     1       2.326   4.279  17.946  0.00  0.00    +0.000 A 
ATOM     19  C   UNL     1       1.367   3.311  18.232  0.00  0.00    +0.000 A 
ATOM     20  C   UNL     1       1.759   2.131  18.847  0.00  0.00    +0.000 A 
ATOM     21  C   UNL     1       3.096   1.963  19.146  0.00  0.00    +0.000 A 
ATOM     22  N   UNL     1       4.047   2.885  18.880  0.00  0.00    +0.000 NA
ENDBRANCH  14  17
ENDBRANCH   8  11
ENDBRANCH   4   7
BRANCH   1  23
ATOM     23  S   UNL     1      10.965  14.078  17.855  0.00  0.00    +0.000 S 
ATOM     24  O   UNL     1      10.064  15.149  17.490  0.00  0.00    +0.000 OA
ATOM     25  O   UNL     1      12.118  13.752  17.047  0.00  0.00    +0.000 OA
BRANCH  23  29
ATOM     26  N   UNL     1      10.460  16.747  20.868  0.00  0.00    +0.000 NA
ATOM     27  C   UNL     1      11.515  16.753  19.823  0.00  0.00    +0.000 C 
ATOM     28  C   UNL     1      12.333  15.444  19.748  0.00  0.00    +0.000 C 
ATOM     29  N   UNL     1      11.433  14.290  19.482  0.00  0.00    +0.000 NA
ATOM     30  C   UNL     1      10.362  14.209  20.515  0.00  0.00    +0.000 C 
ATOM     31  C   UNL     1       9.609  15.548  20.654  0.00  0.00    +0.000 C 
BRANCH  26  33
ATOM     32  C   UNL     1      11.474  18.382  22.417  0.00  0.00    +0.000 C 
ATOM     33  C   UNL     1      11.018  16.921  22.227  0.00  0.00    +0.000 C 
ATOM     34  C   UNL     1      10.023  16.617  23.355  0.00  0.00    +0.000 C 
ENDBRANCH  26  33
ENDBRANCH  23  29
ENDBRANCH   1  23
TORSDOF 6
ENDMDL
MODEL 6
REMARK VINA RESULT:      -7.2      1.079      1.204
REMARK  Name = 
REMARK  8 active torsions:
REMARK  status: ('A' for Active; 'I' for Inactive)
REMARK    1  A    between atoms: C_1  and  C_2
REMARK    2  A    between atoms: C_2  and  C_3
REMARK    3  A    between atoms: C_2  and  N_4
REMARK    4  A    between atoms: N_7  and  S_8
REMARK    5  A    between atoms: S_8  and  C_11
REMARK    6  A    between atoms: C_14  and  N_15
REMARK    7  A    between atoms: C_16  and  C_18
REMARK    8  A    between atoms: C_21  and  C_22
REMARK                            x       y       z     vdW  Elec       q    Type
REMARK                         _______ _______ _______ _____ _____    ______ ____
ROOT
ATOM      1  C   UNL     1       3.425   6.188  19.056  0.00  0.00    +0.000 A 
ATOM      2  C   UNL     1       2.775   5.943  20.261  0.00  0.00    +0.000 A 
ATOM      3  C   UNL     1       1.842   6.861  20.732  0.00  0.00    +0.000 A 
ATOM      4  C   UNL     1       1.549   8.020  20.005  0.00  0.00    +0.000 A 
ATOM      5  C   UNL     1       2.200   8.253  18.789  0.00  0.00    +0.000 A 
ATOM      6  C   UNL     1       3.163   7.354  18.328  0.00  0.00    +0.000 A 
ENDROOT
BRANCH   4   7
ATOM      7  N   UNL     1       0.601   8.965  20.437  0.00  0.00    +0.000 N 
ATOM      8  C   UNL     1       0.086   9.986  19.658  0.00  0.00    +0.000 C 
ATOM      9  O   UNL     1       0.277  10.144  18.456  0.00  0.00    +0.000 OA
ATOM     10  H   UNL     1       0.277   8.867  21.389  0.00  0.00    +0.000 HD
BRANCH   8  11
ATOM     11  C   UNL     1      -0.761  10.981  20.354  0.00  0.00    +0.000 A 
ATOM     12  C   UNL     1      -0.583  11.097  21.737  0.00  0.00    +0.000 A 
ATOM     13  C   UNL     1      -1.360  11.985  22.475  0.00  0.00    +0.000 A 
ATOM     14  C   UNL     1      -2.328  12.789  21.853  0.00  0.00    +0.000 A 
ATOM     15  C   UNL     1      -2.482  12.668  20.458  0.00  0.00    +0.000 A 
ATOM     16  C   UNL     1      -1.705  11.781  19.708  0.00  0.00    +0.000 A 
BRANCH  14  17
ATOM     17  C   UNL     1      -3.172  13.715  22.626  0.00  0.00    +0.000 A 
ATOM     18  C   UNL     1      -2.760  14.279  23.835  0.00  0.00    +0.000 A 
ATOM     19  C   UNL     1      -3.633  15.110  24.530  0.00  0.00    +0.000 A 
ATOM     20  C   UNL     1      -4.889  15.367  24.002  0.00  0.00    +0.000 A 
ATOM     21  C   UNL     1      -5.220  14.785  22.795  0.00  0.00    +0.000 A 
ATOM     22  N   UNL     1      -4.394  13.975  22.099  0.00  0.00    +0.000 NA
ENDBRANCH  14  17
ENDBRANCH   8  11
ENDBRANCH   4   7
BRANCH   1  23
ATOM     23  S   UNL     1       4.612   5.002  18.470  0.00  0.00    +0.000 S 
ATOM     24  O   UNL     1       4.091   3.684  18.758  0.00  0.00    +0.000 OA
ATOM     25  O   UNL     1       5.902   5.429  18.962  0.00  0.00    +0.000 OA
BRANCH  23  29
ATOM     26  N   UNL     1       6.827   4.392  15.126  0.00  0.00    +0.000 NA
ATOM     27  C   UNL     1       6.861   5.570  16.030  0.00  0.00    +0.000 C 
ATOM     28  C   UNL     1       5.487   6.248  16.232  0.00  0.00    +0.000 C 
ATOM     29  N   UNL     1       4.511   5.274  16.788  0.00  0.00    +0.000 NA
ATOM     30  C   UNL     1       4.406   4.073  15.910  0.00  0.00    +0.000 C 
ATOM     31  C   UNL     1       5.792   3.454  15.633  0.00  0.00    +0.000 C 
BRANCH  26  33
ATOM     32  C   UNL     1       8.076   5.323  13.209  0.00  0.00    +0.000 C 
ATOM     33  C   UNL     1       6.718   4.783  13.704  0.00  0.00    +0.000 C 
ATOM     34  C   UNL     1       6.332   3.629  12.767  0.00  0.00    +0.000 C 
ENDBRANCH  26  33
ENDBRANCH  23  29
ENDBRANCH   1  23
TORSDOF 6
ENDMDL
MODEL 7
REMARK VINA RESULT:      -7.2      2.686     12.540
REMARK  Name = 
REMARK  8 active torsions:
REMARK  status: ('A' for Active; 'I' for Inactive)
REMARK    1  A    between atoms: C_1  and  C_2
REMARK    2  A    between atoms: C_2  and  C_3
REMARK    3  A    between atoms: C_2  and  N_4
REMARK    4  A    between atoms: N_7  and  S_8
REMARK    5  A    between atoms: S_8  and  C_11
REMARK    6  A    between atoms: C_14  and  N_15
REMARK    7  A    between atoms: C_16  and  C_18
REMARK    8  A    between atoms: C_21  and  C_22
REMARK                            x       y       z     vdW  Elec       q    Type
REMARK                         _______ _______ _______ _____ _____    ______ ____
ROOT
ATOM      1  C   UNL     1      -1.156  11.442  21.917  0.00  0.00    +0.000 A 
ATOM      2  C   UNL     1      -0.252  10.594  22.549  0.00  0.00    +0.000 A 
ATOM      3  C   UNL     1       0.525   9.733  21.782  0.00  0.00    +0.000 A 
ATOM      4  C   UNL     1       0.411   9.715  20.389  0.00  0.00    +0.000 A 
ATOM      5  C   UNL     1      -0.493  10.578  19.761  0.00  0.00    +0.000 A 
ATOM      6  C   UNL     1      -1.301  11.420  20.526  0.00  0.00    +0.000 A 
ENDROOT
BRANCH   4   7
ATOM      7  N   UNL     1       1.191   8.871  19.576  0.00  0.00    +0.000 N 
ATOM      8  C   UNL     1       1.655   7.621  19.946  0.00  0.00    +0.000 C 
ATOM      9  O   UNL     1       1.357   7.013  20.969  0.00  0.00    +0.000 OA
ATOM     10  H   UNL     1       1.409   9.219  18.654  0.00  0.00    +0.000 HD
BRANCH   8  11
ATOM     11  C   UNL     1       2.609   6.973  19.018  0.00  0.00    +0.000 A 
ATOM     12  C   UNL     1       3.226   7.802  18.074  0.00  0.00    +0.000 A 
ATOM     13  C   UNL     1       4.112   7.271  17.142  0.00  0.00    +0.000 A 
ATOM     14  C   UNL     1       4.417   5.900  17.133  0.00  0.00    +0.000 A 
ATOM     15  C   UNL     1       3.797   5.085  18.099  0.00  0.00    +0.000 A 
ATOM     16  C   UNL     1       2.907   5.610  19.041  0.00  0.00    +0.000 A 
BRANCH  14  17
ATOM     17  C   UNL     1       5.335   5.324  16.137  0.00  0.00    +0.000 A 
ATOM     18  C   UNL     1       6.712   5.552  16.160  0.00  0.00    +0.000 A 
ATOM     19  C   UNL     1       7.509   5.008  15.157  0.00  0.00    +0.000 A 
ATOM     20  C   UNL     1       6.918   4.243  14.162  0.00  0.00    +0.000 A 
ATOM     21  C   UNL     1       5.552   4.049  14.214  0.00  0.00    +0.000 A 
ATOM     22  N   UNL     1       4.755   4.564  15.174  0.00  0.00    +0.000 NA
ENDBRANCH  14  17
ENDBRANCH   8  11
ENDBRANCH   4   7
BRANCH   1  23
ATOM     23  S   UNL     1      -2.140  12.537  22.913  0.00  0.00    +0.000 S 
ATOM     24  O   UNL     1      -1.252  13.531  23.475  0.00  0.00    +0.000 OA
ATOM     25  O   UNL     1      -2.969  11.703  23.753  0.00  0.00    +0.000 OA
BRANCH  23  29
ATOM     26  N   UNL     1      -5.232  15.147  22.616  0.00  0.00    +0.000 NA
ATOM     27  C   UNL     1      -5.306  13.671  22.767  0.00  0.00    +0.000 C 
ATOM     28  C   UNL     1      -4.527  12.888  21.687  0.00  0.00    +0.000 C 
ATOM     29  N   UNL     1      -3.092  13.277  21.705  0.00  0.00    +0.000 NA
ATOM     30  C   UNL     1      -2.943  14.750  21.528  0.00  0.00    +0.000 C 
ATOM     31  C   UNL     1      -3.798  15.530  22.550  0.00  0.00    +0.000 C 
BRANCH  26  33
ATOM     32  C   UNL     1      -7.556  15.223  21.781  0.00  0.00    +0.000 C 
ATOM     33  C   UNL     1      -6.093  15.640  21.520  0.00  0.00    +0.000 C 
ATOM     34  C   UNL     1      -6.090  17.166  21.360  0.00  0.00    +0.000 C 
ENDBRANCH  26  33
ENDBRANCH  23  29
ENDBRANCH   1  23
TORSDOF 6
ENDMDL
MODEL 8
REMARK VINA RESULT:      -7.2      1.317      1.755
REMARK  Name = 
REMARK  8 active torsions:
REMARK  status: ('A' for Active; 'I' for Inactive)
REMARK    1  A    between atoms: C_1  and  C_2
REMARK    2  A    between atoms: C_2  and  C_3
REMARK    3  A    between atoms: C_2  and  N_4
REMARK    4  A    between atoms: N_7  and  S_8
REMARK    5  A    between atoms: S_8  and  C_11
REMARK    6  A    between atoms: C_14  and  N_15
REMARK    7  A    between atoms: C_16  and  C_18
REMARK    8  A    between atoms: C_21  and  C_22
REMARK                            x       y       z     vdW  Elec       q    Type
REMARK                         _______ _______ _______ _____ _____    ______ ____
ROOT
ATOM      1  C   UNL     1       3.395   6.307  18.942  0.00  0.00    +0.000 A 
ATOM      2  C   UNL     1       3.183   7.428  18.147  0.00  0.00    +0.000 A 
ATOM      3  C   UNL     1       2.268   8.392  18.557  0.00  0.00    +0.000 A 
ATOM      4  C   UNL     1       1.566   8.247  19.757  0.00  0.00    +0.000 A 
ATOM      5  C   UNL     1       1.793   7.121  20.556  0.00  0.00    +0.000 A 
ATOM      6  C   UNL     1       2.683   6.133  20.134  0.00  0.00    +0.000 A 
ENDROOT
BRANCH   4   7
ATOM      7  N   UNL     1       0.644   9.206  20.216  0.00  0.00    +0.000 N 
ATOM      8  C   UNL     1      -0.121  10.023  19.402  0.00  0.00    +0.000 C 
ATOM      9  O   UNL     1      -0.207   9.950  18.180  0.00  0.00    +0.000 OA
ATOM     10  H   UNL     1       0.542   9.281  21.218  0.00  0.00    +0.000 HD
BRANCH   8  11
ATOM     11  C   UNL     1      -0.893  11.089  20.081  0.00  0.00    +0.000 A 
ATOM     12  C   UNL     1      -0.757  11.172  21.471  0.00  0.00    +0.000 A 
ATOM     13  C   UNL     1      -1.471  12.125  22.193  0.00  0.00    +0.000 A 
ATOM     14  C   UNL     1      -2.331  13.027  21.547  0.00  0.00    +0.000 A 
ATOM     15  C   UNL     1      -2.443  12.936  20.145  0.00  0.00    +0.000 A 
ATOM     16  C   UNL     1      -1.728  11.985  19.412  0.00  0.00    +0.000 A 
BRANCH  14  17
ATOM     17  C   UNL     1      -3.109  14.022  22.302  0.00  0.00    +0.000 A 
ATOM     18  C   UNL     1      -3.947  13.676  23.364  0.00  0.00    +0.000 A 
ATOM     19  C   UNL     1      -4.685  14.670  24.000  0.00  0.00    +0.000 A 
ATOM     20  C   UNL     1      -4.564  15.983  23.570  0.00  0.00    +0.000 A 
ATOM     21  C   UNL     1      -3.705  16.251  22.524  0.00  0.00    +0.000 A 
ATOM     22  N   UNL     1      -2.977  15.307  21.889  0.00  0.00    +0.000 NA
ENDBRANCH  14  17
ENDBRANCH   8  11
ENDBRANCH   4   7
BRANCH   1  23
ATOM     23  S   UNL     1       4.571   5.087  18.403  0.00  0.00    +0.000 S 
ATOM     24  O   UNL     1       4.033   3.787  18.734  0.00  0.00    +0.000 OA
ATOM     25  O   UNL     1       5.864   5.515  18.887  0.00  0.00    +0.000 OA
BRANCH  23  29
ATOM     26  N   UNL     1       6.843   4.443  15.105  0.00  0.00    +0.000 NA
ATOM     27  C   UNL     1       6.829   5.649  15.971  0.00  0.00    +0.000 C 
ATOM     28  C   UNL     1       5.432   6.288  16.136  0.00  0.00    +0.000 C 
ATOM     29  N   UNL     1       4.480   5.301  16.713  0.00  0.00    +0.000 NA
ATOM     30  C   UNL     1       4.425   4.071  15.873  0.00  0.00    +0.000 C 
ATOM     31  C   UNL     1       5.833   3.488  15.631  0.00  0.00    +0.000 C 
BRANCH  26  33
ATOM     32  C   UNL     1       8.101   5.295  13.157  0.00  0.00    +0.000 C 
ATOM     33  C   UNL     1       6.739   4.784  13.670  0.00  0.00    +0.000 C 
ATOM     34  C   UNL     1       6.344   3.601  12.774  0.00  0.00    +0.000 C 
ENDBRANCH  26  33
ENDBRANCH  23  29
ENDBRANCH   1  23
TORSDOF 6
ENDMDL
MODEL 9
REMARK VINA RESULT:      -7.2      0.930      1.409
REMARK  Name = 
REMARK  8 active torsions:
REMARK  status: ('A' for Active; 'I' for Inactive)
REMARK    1  A    between atoms: C_1  and  C_2
REMARK    2  A    between atoms: C_2  and  C_3
REMARK    3  A    between atoms: C_2  and  N_4
REMARK    4  A    between atoms: N_7  and  S_8
REMARK    5  A    between atoms: S_8  and  C_11
REMARK    6  A    between atoms: C_14  and  N_15
REMARK    7  A    between atoms: C_16  and  C_18
REMARK    8  A    between atoms: C_21  and  C_22
REMARK                            x       y       z     vdW  Elec       q    Type
REMARK                         _______ _______ _______ _____ _____    ______ ____
ROOT
ATOM      1  C   UNL     1       3.296   6.192  19.235  0.00  0.00    +0.000 A 
ATOM      2  C   UNL     1       2.608   5.908  20.409  0.00  0.00    +0.000 A 
ATOM      3  C   UNL     1       1.646   6.801  20.869  0.00  0.00    +0.000 A 
ATOM      4  C   UNL     1       1.362   7.974  20.162  0.00  0.00    +0.000 A 
ATOM      5  C   UNL     1       2.052   8.247  18.976  0.00  0.00    +0.000 A 
ATOM      6  C   UNL     1       3.043   7.373  18.528  0.00  0.00    +0.000 A 
ENDROOT
BRANCH   4   7
ATOM      7  N   UNL     1       0.385   8.894  20.584  0.00  0.00    +0.000 N 
ATOM      8  C   UNL     1       0.369  10.239  20.257  0.00  0.00    +0.000 C 
ATOM      9  O   UNL     1       1.116  10.798  19.461  0.00  0.00    +0.000 OA
ATOM     10  H   UNL     1      -0.356   8.523  21.160  0.00  0.00    +0.000 HD
BRANCH   8  11
ATOM     11  C   UNL     1      -0.641  11.071  20.950  0.00  0.00    +0.000 A 
ATOM     12  C   UNL     1      -1.415  11.916  20.146  0.00  0.00    +0.000 A 
ATOM     13  C   UNL     1      -2.366  12.756  20.717  0.00  0.00    +0.000 A 
ATOM     14  C   UNL     1      -2.579  12.768  22.105  0.00  0.00    +0.000 A 
ATOM     15  C   UNL     1      -1.801  11.901  22.896  0.00  0.00    +0.000 A 
ATOM     16  C   UNL     1      -0.845  11.052  22.330  0.00  0.00    +0.000 A 
BRANCH  14  17
ATOM     17  C   UNL     1      -3.566  13.669  22.723  0.00  0.00    +0.000 A 
ATOM     18  C   UNL     1      -4.885  13.765  22.273  0.00  0.00    +0.000 A 
ATOM     19  C   UNL     1      -5.746  14.674  22.881  0.00  0.00    +0.000 A 
ATOM     20  C   UNL     1      -5.278  15.457  23.925  0.00  0.00    +0.000 A 
ATOM     21  C   UNL     1      -3.966  15.296  24.324  0.00  0.00    +0.000 A 
ATOM     22  N   UNL     1      -3.108  14.423  23.753  0.00  0.00    +0.000 NA
ENDBRANCH  14  17
ENDBRANCH   8  11
ENDBRANCH   4   7
BRANCH   1  23
ATOM     23  S   UNL     1       4.521   5.038  18.662  0.00  0.00    +0.000 S 
ATOM     24  O   UNL     1       4.043   3.708  18.966  0.00  0.00    +0.000 OA
ATOM     25  O   UNL     1       5.797   5.512  19.147  0.00  0.00    +0.000 OA
BRANCH  23  29
ATOM     26  N   UNL     1       6.744   4.441  15.321  0.00  0.00    +0.000 NA
ATOM     27  C   UNL     1       6.751   5.631  16.210  0.00  0.00    +0.000 C 
ATOM     28  C   UNL     1       5.361   6.277  16.406  0.00  0.00    +0.000 C 
ATOM     29  N   UNL     1       4.410   5.286  16.977  0.00  0.00    +0.000 NA
ATOM     30  C   UNL     1       4.333   4.073  16.114  0.00  0.00    +0.000 C 
ATOM     31  C   UNL     1       5.734   3.485  15.842  0.00  0.00    +0.000 C 
BRANCH  26  33
ATOM     32  C   UNL     1       7.980   5.332  13.376  0.00  0.00    +0.000 C 
ATOM     33  C   UNL     1       6.623   4.811  13.894  0.00  0.00    +0.000 C 
ATOM     34  C   UNL     1       6.217   3.647  12.980  0.00  0.00    +0.000 C 
ENDBRANCH  26  33
ENDBRANCH  23  29
ENDBRANCH   1  23
TORSDOF 6
ENDMDL
