MODEL 1
REMARK VINA RESULT:      -8.0      0.000      0.000
REMARK  Name = 
REMARK  7 active torsions:
REMARK  status: ('A' for Active; 'I' for Inactive)
REMARK    1  A    between atoms: C_1  and  C_2
REMARK    2  A    between atoms: C_2  and  C_4
REMARK    3  A    between atoms: C_5  and  O_6
REMARK    4  A    between atoms: O_6  and  C_7
REMARK    5  A    between atoms: C_7  and  C_9
REMARK    6  A    between atoms: C_12  and  C_13
REMARK    7  A    between atoms: N_22  and  C_23
REMARK                            x       y       z     vdW  Elec       q    Type
REMARK                         _______ _______ _______ _____ _____    ______ ____
ROOT
ATOM      1  C   UNL     1       3.455   3.989  19.156  0.00  0.00    +0.000 A 
ATOM      2  C   UNL     1       3.526   4.922  18.130  0.00  0.00    +0.000 A 
ATOM      3  C   UNL     1       2.945   6.152  18.567  0.00  0.00    +0.000 A 
ATOM      4  C   UNL     1       2.765   7.431  17.985  0.00  0.00    +0.000 A 
ATOM      5  C   UNL     1       2.130   8.444  18.700  0.00  0.00    +0.000 A 
ATOM      6  C   UNL     1       1.636   8.198  19.972  0.00  0.00    +0.000 A 
ATOM      7  C   UNL     1       1.774   6.939  20.563  0.00  0.00    +0.000 A 
ATOM      8  C   UNL     1       2.448   5.931  19.850  0.00  0.00    +0.000 A 
ATOM      9  N   UNL     1       2.742   4.619  20.178  0.00  0.00    +0.000 N 
ATOM     10  C   UNL     1       2.334   3.981  21.417  0.00  0.00    +0.000 C 
ENDROOT
BRANCH   1  12
ATOM     11  C   UNL     1       3.365   1.528  18.432  0.00  0.00    +0.000 C 
ATOM     12  C   UNL     1       3.976   2.627  19.262  0.00  0.00    +0.000 C 
ATOM     13  O   UNL     1       4.900   2.329  20.024  0.00  0.00    +0.000 OA
ENDBRANCH   1  12
BRANCH   2  14
ATOM     14  O   UNL     1       3.979   4.660  16.876  0.00  0.00    +0.000 OA
BRANCH  14  15
ATOM     15  C   UNL     1       5.294   4.325  16.764  0.00  0.00    +0.000 C 
ATOM     16  O   UNL     1       5.726   3.254  16.357  0.00  0.00    +0.000 OA
BRANCH  15  17
ATOM     17  C   UNL     1       6.184   5.413  17.273  0.00  0.00    +0.000 A 
ATOM     18  C   UNL     1       6.156   6.648  16.608  0.00  0.00    +0.000 A 
ATOM     19  C   UNL     1       6.968   7.705  17.033  0.00  0.00    +0.000 A 
ATOM     20  C   UNL     1       7.824   7.543  18.126  0.00  0.00    +0.000 A 
ATOM     21  C   UNL     1       8.630   8.697  18.650  0.00  0.00    +0.000 C 
ATOM     22  C   UNL     1       7.885   6.297  18.761  0.00  0.00    +0.000 A 
ATOM     23  C   UNL     1       7.074   5.235  18.337  0.00  0.00    +0.000 A 
ENDBRANCH  15  17
ENDBRANCH  14  15
ENDBRANCH   2  14
TORSDOF 4
ENDMDL
MODEL 2
REMARK VINA RESULT:      -7.9      0.078      1.008
REMARK  Name = 
REMARK  7 active torsions:
REMARK  status: ('A' for Active; 'I' for Inactive)
REMARK    1  A    between atoms: C_1  and  C_2
REMARK    2  A    between atoms: C_2  and  C_4
REMARK    3  A    between atoms: C_5  and  O_6
REMARK    4  A    between atoms: O_6  and  C_7
REMARK    5  A    between atoms: C_7  and  C_9
REMARK    6  A    between atoms: C_12  and  C_13
REMARK    7  A    between atoms: N_22  and  C_23
REMARK                            x       y       z     vdW  Elec       q    Type
REMARK                         _______ _______ _______ _____ _____    ______ ____
ROOT
ATOM      1  C   UNL     1       3.455   3.977  19.168  0.00  0.00    +0.000 A 
ATOM      2  C   UNL     1       3.502   4.903  18.134  0.00  0.00    +0.000 A 
ATOM      3  C   UNL     1       2.919   6.132  18.572  0.00  0.00    +0.000 A 
ATOM      4  C   UNL     1       2.719   7.404  17.984  0.00  0.00    +0.000 A 
ATOM      5  C   UNL     1       2.088   8.418  18.702  0.00  0.00    +0.000 A 
ATOM      6  C   UNL     1       1.618   8.178  19.984  0.00  0.00    +0.000 A 
ATOM      7  C   UNL     1       1.776   6.924  20.582  0.00  0.00    +0.000 A 
ATOM      8  C   UNL     1       2.446   5.916  19.865  0.00  0.00    +0.000 A 
ATOM      9  N   UNL     1       2.755   4.609  20.198  0.00  0.00    +0.000 N 
ATOM     10  C   UNL     1       2.374   3.977  21.448  0.00  0.00    +0.000 C 
ENDROOT
BRANCH   1  12
ATOM     11  C   UNL     1       3.380   1.512  18.453  0.00  0.00    +0.000 C 
ATOM     12  C   UNL     1       3.988   2.620  19.275  0.00  0.00    +0.000 C 
ATOM     13  O   UNL     1       4.921   2.332  20.031  0.00  0.00    +0.000 OA
ENDBRANCH   1  12
BRANCH   2  14
ATOM     14  O   UNL     1       3.935   4.634  16.874  0.00  0.00    +0.000 OA
BRANCH  14  15
ATOM     15  C   UNL     1       5.259   4.353  16.736  0.00  0.00    +0.000 C 
ATOM     16  O   UNL     1       5.727   3.291  16.349  0.00  0.00    +0.000 OA
BRANCH  15  17
ATOM     17  C   UNL     1       6.113   5.494  17.187  0.00  0.00    +0.000 A 
ATOM     18  C   UNL     1       6.997   5.270  18.253  0.00  0.00    +0.000 A 
ATOM     19  C   UNL     1       7.820   6.298  18.725  0.00  0.00    +0.000 A 
ATOM     20  C   UNL     1       7.770   7.568  18.143  0.00  0.00    +0.000 A 
ATOM     21  C   UNL     1       8.714   8.652  18.577  0.00  0.00    +0.000 C 
ATOM     22  C   UNL     1       6.855   7.804  17.108  0.00  0.00    +0.000 A 
ATOM     23  C   UNL     1       6.028   6.776  16.635  0.00  0.00    +0.000 A 
ENDBRANCH  15  17
ENDBRANCH  14  15
ENDBRANCH   2  14
TORSDOF 4
ENDMDL
MODEL 3
REMARK VINA RESULT:      -7.7      2.302      6.011
REMARK  Name = 
REMARK  7 active torsions:
REMARK  status: ('A' for Active; 'I' for Inactive)
REMARK    1  A    between atoms: C_1  and  C_2
REMARK    2  A    between atoms: C_2  and  C_4
REMARK    3  A    between atoms: C_5  and  O_6
REMARK    4  A    between atoms: O_6  and  C_7
REMARK    5  A    between atoms: C_7  and  C_9
REMARK    6  A    between atoms: C_12  and  C_13
REMARK    7  A    between atoms: N_22  and  C_23
REMARK                            x       y       z     vdW  Elec       q    Type
REMARK                         _______ _______ _______ _____ _____    ______ ____
ROOT
ATOM      1  C   UNL     1       4.215   5.692  17.720  0.00  0.00    +0.000 A 
ATOM      2  C   UNL     1       3.315   6.024  18.724  0.00  0.00    +0.000 A 
ATOM      3  C   UNL     1       2.502   4.889  19.028  0.00  0.00    +0.000 A 
ATOM      4  C   UNL     1       1.465   4.626  19.956  0.00  0.00    +0.000 A 
ATOM      5  C   UNL     1       0.853   3.374  19.988  0.00  0.00    +0.000 A 
ATOM      6  C   UNL     1       1.229   2.389  19.088  0.00  0.00    +0.000 A 
ATOM      7  C   UNL     1       2.231   2.627  18.143  0.00  0.00    +0.000 A 
ATOM      8  C   UNL     1       2.870   3.880  18.139  0.00  0.00    +0.000 A 
ATOM      9  N   UNL     1       3.883   4.388  17.345  0.00  0.00    +0.000 N 
ATOM     10  C   UNL     1       4.497   3.661  16.249  0.00  0.00    +0.000 C 
ENDROOT
BRANCH   1  12
ATOM     11  C   UNL     1       6.651   6.497  17.801  0.00  0.00    +0.000 C 
ATOM     12  C   UNL     1       5.310   6.447  17.115  0.00  0.00    +0.000 C 
ATOM     13  O   UNL     1       5.181   7.068  16.056  0.00  0.00    +0.000 OA
ENDBRANCH   1  12
BRANCH   2  14
ATOM     14  O   UNL     1       3.166   7.270  19.248  0.00  0.00    +0.000 OA
BRANCH  14  15
ATOM     15  C   UNL     1       2.196   8.048  18.694  0.00  0.00    +0.000 C 
ATOM     16  O   UNL     1       2.030   8.236  17.496  0.00  0.00    +0.000 OA
BRANCH  15  17
ATOM     17  C   UNL     1       1.372   8.728  19.739  0.00  0.00    +0.000 A 
ATOM     18  C   UNL     1       1.396   8.201  21.039  0.00  0.00    +0.000 A 
ATOM     19  C   UNL     1       0.643   8.789  22.061  0.00  0.00    +0.000 A 
ATOM     20  C   UNL     1      -0.149   9.910  21.800  0.00  0.00    +0.000 A 
ATOM     21  C   UNL     1      -0.887  10.606  22.907  0.00  0.00    +0.000 C 
ATOM     22  C   UNL     1      -0.208  10.409  20.492  0.00  0.00    +0.000 A 
ATOM     23  C   UNL     1       0.543   9.821  19.465  0.00  0.00    +0.000 A 
ENDBRANCH  15  17
ENDBRANCH  14  15
ENDBRANCH   2  14
TORSDOF 4
ENDMDL
MODEL 4
REMARK VINA RESULT:      -7.6      2.289      5.901
REMARK  Name = 
REMARK  7 active torsions:
REMARK  status: ('A' for Active; 'I' for Inactive)
REMARK    1  A    between atoms: C_1  and  C_2
REMARK    2  A    between atoms: C_2  and  C_4
REMARK    3  A    between atoms: C_5  and  O_6
REMARK    4  A    between atoms: O_6  and  C_7
REMARK    5  A    between atoms: C_7  and  C_9
REMARK    6  A    between atoms: C_12  and  C_13
REMARK    7  A    between atoms: N_22  and  C_23
REMARK                            x       y       z     vdW  Elec       q    Type
REMARK                         _______ _______ _______ _____ _____    ______ ____
ROOT
ATOM      1  C   UNL     1       4.312   5.640  17.675  0.00  0.00    +0.000 A 
ATOM      2  C   UNL     1       3.386   5.960  18.660  0.00  0.00    +0.000 A 
ATOM      3  C   UNL     1       2.558   4.825  18.918  0.00  0.00    +0.000 A 
ATOM      4  C   UNL     1       1.493   4.552  19.811  0.00  0.00    +0.000 A 
ATOM      5  C   UNL     1       0.872   3.304  19.803  0.00  0.00    +0.000 A 
ATOM      6  C   UNL     1       1.267   2.334  18.895  0.00  0.00    +0.000 A 
ATOM      7  C   UNL     1       2.297   2.582  17.983  0.00  0.00    +0.000 A 
ATOM      8  C   UNL     1       2.944   3.831  18.021  0.00  0.00    +0.000 A 
ATOM      9  N   UNL     1       3.982   4.346  17.266  0.00  0.00    +0.000 N 
ATOM     10  C   UNL     1       4.623   3.635  16.174  0.00  0.00    +0.000 C 
ENDROOT
BRANCH   1  12
ATOM     11  C   UNL     1       6.750   6.428  17.842  0.00  0.00    +0.000 C 
ATOM     12  C   UNL     1       5.430   6.398  17.116  0.00  0.00    +0.000 C 
ATOM     13  O   UNL     1       5.335   7.039  16.065  0.00  0.00    +0.000 OA
ENDBRANCH   1  12
BRANCH   2  14
ATOM     14  O   UNL     1       3.231   7.196  19.203  0.00  0.00    +0.000 OA
BRANCH  14  15
ATOM     15  C   UNL     1       2.214   7.953  18.706  0.00  0.00    +0.000 C 
ATOM     16  O   UNL     1       1.966   8.125  17.520  0.00  0.00    +0.000 OA
BRANCH  15  17
ATOM     17  C   UNL     1       1.449   8.630  19.797  0.00  0.00    +0.000 A 
ATOM     18  C   UNL     1       0.796   9.833  19.492  0.00  0.00    +0.000 A 
ATOM     19  C   UNL     1       0.067  10.517  20.470  0.00  0.00    +0.000 A 
ATOM     20  C   UNL     1      -0.018  10.013  21.771  0.00  0.00    +0.000 A 
ATOM     21  C   UNL     1      -0.874  10.687  22.804  0.00  0.00    +0.000 C 
ATOM     22  C   UNL     1       0.671   8.835  22.087  0.00  0.00    +0.000 A 
ATOM     23  C   UNL     1       1.405   8.148  21.110  0.00  0.00    +0.000 A 
ENDBRANCH  15  17
ENDBRANCH  14  15
ENDBRANCH   2  14
TORSDOF 4
ENDMDL
MODEL 5
REMARK VINA RESULT:      -7.6      2.513      5.782
REMARK  Name = 
REMARK  7 active torsions:
REMARK  status: ('A' for Active; 'I' for Inactive)
REMARK    1  A    between atoms: C_1  and  C_2
REMARK    2  A    between atoms: C_2  and  C_4
REMARK    3  A    between atoms: C_5  and  O_6
REMARK    4  A    between atoms: O_6  and  C_7
REMARK    5  A    between atoms: C_7  and  C_9
REMARK    6  A    between atoms: C_12  and  C_13
REMARK    7  A    between atoms: N_22  and  C_23
REMARK                            x       y       z     vdW  Elec       q    Type
REMARK                         _______ _______ _______ _____ _____    ______ ____
ROOT
ATOM      1  C   UNL     1       2.980   4.743  19.254  0.00  0.00    +0.000 A 
ATOM      2  C   UNL     1       3.352   5.978  18.737  0.00  0.00    +0.000 A 
ATOM      3  C   UNL     1       4.128   5.782  17.554  0.00  0.00    +0.000 A 
ATOM      4  C   UNL     1       4.738   6.643  16.610  0.00  0.00    +0.000 A 
ATOM      5  C   UNL     1       5.455   6.114  15.538  0.00  0.00    +0.000 A 
ATOM      6  C   UNL     1       5.609   4.742  15.409  0.00  0.00    +0.000 A 
ATOM      7  C   UNL     1       5.041   3.867  16.340  0.00  0.00    +0.000 A 
ATOM      8  C   UNL     1       4.288   4.406  17.399  0.00  0.00    +0.000 A 
ATOM      9  N   UNL     1       3.612   3.799  18.442  0.00  0.00    +0.000 N 
ATOM     10  C   UNL     1       3.591   2.365  18.671  0.00  0.00    +0.000 C 
ENDROOT
BRANCH   1  12
ATOM     11  C   UNL     1       0.722   3.884  20.124  0.00  0.00    +0.000 C 
ATOM     12  C   UNL     1       2.120   4.386  20.381  0.00  0.00    +0.000 C 
ATOM     13  O   UNL     1       2.487   4.493  21.554  0.00  0.00    +0.000 OA
ENDBRANCH   1  12
BRANCH   2  14
ATOM     14  O   UNL     1       3.105   7.173  19.336  0.00  0.00    +0.000 OA
BRANCH  14  15
ATOM     15  C   UNL     1       2.115   7.931  18.789  0.00  0.00    +0.000 C 
ATOM     16  O   UNL     1       1.911   8.083  17.592  0.00  0.00    +0.000 OA
BRANCH  15  17
ATOM     17  C   UNL     1       1.320   8.637  19.840  0.00  0.00    +0.000 A 
ATOM     18  C   UNL     1       1.259   8.059  21.116  0.00  0.00    +0.000 A 
ATOM     19  C   UNL     1       0.528   8.668  22.142  0.00  0.00    +0.000 A 
ATOM     20  C   UNL     1      -0.158   9.864  21.906  0.00  0.00    +0.000 A 
ATOM     21  C   UNL     1      -0.867  10.576  23.022  0.00  0.00    +0.000 C 
ATOM     22  C   UNL     1      -0.134  10.417  20.620  0.00  0.00    +0.000 A 
ATOM     23  C   UNL     1       0.596   9.807  19.590  0.00  0.00    +0.000 A 
ENDBRANCH  15  17
ENDBRANCH  14  15
ENDBRANCH   2  14
TORSDOF 4
ENDMDL
MODEL 6
REMARK VINA RESULT:      -7.6      2.589      5.753
REMARK  Name = 
REMARK  7 active torsions:
REMARK  status: ('A' for Active; 'I' for Inactive)
REMARK    1  A    between atoms: C_1  and  C_2
REMARK    2  A    between atoms: C_2  and  C_4
REMARK    3  A    between atoms: C_5  and  O_6
REMARK    4  A    between atoms: O_6  and  C_7
REMARK    5  A    between atoms: C_7  and  C_9
REMARK    6  A    between atoms: C_12  and  C_13
REMARK    7  A    between atoms: N_22  and  C_23
REMARK                            x       y       z     vdW  Elec       q    Type
REMARK                         _______ _______ _______ _____ _____    ______ ____
ROOT
ATOM      1  C   UNL     1       2.679   4.587  18.995  0.00  0.00    +0.000 A 
ATOM      2  C   UNL     1       3.151   5.854  18.676  0.00  0.00    +0.000 A 
ATOM      3  C   UNL     1       3.993   5.770  17.524  0.00  0.00    +0.000 A 
ATOM      4  C   UNL     1       4.710   6.710  16.745  0.00  0.00    +0.000 A 
ATOM      5  C   UNL     1       5.468   6.285  15.655  0.00  0.00    +0.000 A 
ATOM      6  C   UNL     1       5.556   4.935  15.349  0.00  0.00    +0.000 A 
ATOM      7  C   UNL     1       4.882   3.981  16.116  0.00  0.00    +0.000 A 
ATOM      8  C   UNL     1       4.089   4.420  17.192  0.00  0.00    +0.000 A 
ATOM      9  N   UNL     1       3.313   3.722  18.101  0.00  0.00    +0.000 N 
ATOM     10  C   UNL     1       3.200   2.275  18.129  0.00  0.00    +0.000 C 
ENDROOT
BRANCH   1  12
ATOM     11  C   UNL     1       2.165   4.036  21.449  0.00  0.00    +0.000 C 
ATOM     12  C   UNL     1       1.728   4.138  20.010  0.00  0.00    +0.000 C 
ATOM     13  O   UNL     1       0.568   3.819  19.735  0.00  0.00    +0.000 OA
ENDBRANCH   1  12
BRANCH   2  14
ATOM     14  O   UNL     1       2.929   6.972  19.417  0.00  0.00    +0.000 OA
BRANCH  14  15
ATOM     15  C   UNL     1       2.046   7.873  18.904  0.00  0.00    +0.000 C 
ATOM     16  O   UNL     1       1.888   8.121  17.716  0.00  0.00    +0.000 OA
BRANCH  15  17
ATOM     17  C   UNL     1       1.315   8.602  19.985  0.00  0.00    +0.000 A 
ATOM     18  C   UNL     1       0.615   9.766  19.634  0.00  0.00    +0.000 A 
ATOM     19  C   UNL     1      -0.085  10.496  20.599  0.00  0.00    +0.000 A 
ATOM     20  C   UNL     1      -0.094  10.078  21.933  0.00  0.00    +0.000 A 
ATOM     21  C   UNL     1      -0.919  10.798  22.961  0.00  0.00    +0.000 C 
ATOM     22  C   UNL     1       0.641   8.940  22.292  0.00  0.00    +0.000 A 
ATOM     23  C   UNL     1       1.346   8.208  21.327  0.00  0.00    +0.000 A 
ENDBRANCH  15  17
ENDBRANCH  14  15
ENDBRANCH   2  14
TORSDOF 4
ENDMDL
MODEL 7
REMARK VINA RESULT:      -7.5      1.966      2.964
REMARK  Name = 
REMARK  7 active torsions:
REMARK  status: ('A' for Active; 'I' for Inactive)
REMARK    1  A    between atoms: C_1  and  C_2
REMARK    2  A    between atoms: C_2  and  C_4
REMARK    3  A    between atoms: C_5  and  O_6
REMARK    4  A    between atoms: O_6  and  C_7
REMARK    5  A    between atoms: C_7  and  C_9
REMARK    6  A    between atoms: C_12  and  C_13
REMARK    7  A    between atoms: N_22  and  C_23
REMARK                            x       y       z     vdW  Elec       q    Type
REMARK                         _______ _______ _______ _____ _____    ______ ____
ROOT
ATOM      1  C   UNL     1       3.451   3.909  19.361  0.00  0.00    +0.000 A 
ATOM      2  C   UNL     1       3.560   4.906  18.401  0.00  0.00    +0.000 A 
ATOM      3  C   UNL     1       2.907   6.088  18.868  0.00  0.00    +0.000 A 
ATOM      4  C   UNL     1       2.723   7.394  18.352  0.00  0.00    +0.000 A 
ATOM      5  C   UNL     1       2.005   8.341  19.080  0.00  0.00    +0.000 A 
ATOM      6  C   UNL     1       1.434   8.001  20.297  0.00  0.00    +0.000 A 
ATOM      7  C   UNL     1       1.576   6.712  20.820  0.00  0.00    +0.000 A 
ATOM      8  C   UNL     1       2.332   5.771  20.098  0.00  0.00    +0.000 A 
ATOM      9  N   UNL     1       2.648   4.452  20.367  0.00  0.00    +0.000 N 
ATOM     10  C   UNL     1       2.180   3.726  21.533  0.00  0.00    +0.000 C 
ENDROOT
BRANCH   1  12
ATOM     11  C   UNL     1       3.478   1.489  18.505  0.00  0.00    +0.000 C 
ATOM     12  C   UNL     1       4.011   2.560  19.422  0.00  0.00    +0.000 C 
ATOM     13  O   UNL     1       4.906   2.249  20.213  0.00  0.00    +0.000 OA
ENDBRANCH   1  12
BRANCH   2  14
ATOM     14  O   UNL     1       4.106   4.736  17.167  0.00  0.00    +0.000 OA
BRANCH  14  15
ATOM     15  C   UNL     1       5.447   4.946  17.065  0.00  0.00    +0.000 C 
ATOM     16  O   UNL     1       6.182   5.323  17.968  0.00  0.00    +0.000 OA
BRANCH  15  17
ATOM     17  C   UNL     1       5.933   4.727  15.668  0.00  0.00    +0.000 A 
ATOM     18  C   UNL     1       5.155   3.924  14.821  0.00  0.00    +0.000 A 
ATOM     19  C   UNL     1       5.557   3.677  13.504  0.00  0.00    +0.000 A 
ATOM     20  C   UNL     1       6.745   4.226  13.013  0.00  0.00    +0.000 A 
ATOM     21  C   UNL     1       7.139   4.047  11.575  0.00  0.00    +0.000 C 
ATOM     22  C   UNL     1       7.544   4.991  13.873  0.00  0.00    +0.000 A 
ATOM     23  C   UNL     1       7.145   5.238  15.194  0.00  0.00    +0.000 A 
ENDBRANCH  15  17
ENDBRANCH  14  15
ENDBRANCH   2  14
TORSDOF 4
ENDMDL
MODEL 8
REMARK VINA RESULT:      -7.3      2.544      5.301
REMARK  Name = 
REMARK  7 active torsions:
REMARK  status: ('A' for Active; 'I' for Inactive)
REMARK    1  A    between atoms: C_1  and  C_2
REMARK    2  A    between atoms: C_2  and  C_4
REMARK    3  A    between atoms: C_5  and  O_6
REMARK    4  A    between atoms: O_6  and  C_7
REMARK    5  A    between atoms: C_7  and  C_9
REMARK    6  A    between atoms: C_12  and  C_13
REMARK    7  A    between atoms: N_22  and  C_23
REMARK                            x       y       z     vdW  Elec       q    Type
REMARK                         _______ _______ _______ _____ _____    ______ ____
ROOT
ATOM      1  C   UNL     1       2.416   3.586  18.265  0.00  0.00    +0.000 A 
ATOM      2  C   UNL     1       2.690   4.891  17.877  0.00  0.00    +0.000 A 
ATOM      3  C   UNL     1       3.901   4.915  17.118  0.00  0.00    +0.000 A 
ATOM      4  C   UNL     1       4.640   5.925  16.456  0.00  0.00    +0.000 A 
ATOM      5  C   UNL     1       5.825   5.608  15.794  0.00  0.00    +0.000 A 
ATOM      6  C   UNL     1       6.309   4.309  15.812  0.00  0.00    +0.000 A 
ATOM      7  C   UNL     1       5.616   3.295  16.481  0.00  0.00    +0.000 A 
ATOM      8  C   UNL     1       4.402   3.615  17.116  0.00  0.00    +0.000 A 
ATOM      9  N   UNL     1       3.510   2.835  17.829  0.00  0.00    +0.000 N 
ATOM     10  C   UNL     1       3.707   1.423  18.106  0.00  0.00    +0.000 C 
ENDROOT
BRANCH   1  12
ATOM     11  C   UNL     1       1.141   3.189  20.457  0.00  0.00    +0.000 C 
ATOM     12  C   UNL     1       1.272   3.006  18.967  0.00  0.00    +0.000 C 
ATOM     13  O   UNL     1       0.402   2.351  18.387  0.00  0.00    +0.000 OA
ENDBRANCH   1  12
BRANCH   2  14
ATOM     14  O   UNL     1       1.971   5.979  18.260  0.00  0.00    +0.000 OA
BRANCH  14  15
ATOM     15  C   UNL     1       2.411   6.636  19.368  0.00  0.00    +0.000 C 
ATOM     16  O   UNL     1       3.140   6.169  20.233  0.00  0.00    +0.000 OA
BRANCH  15  17
ATOM     17  C   UNL     1       1.834   8.012  19.457  0.00  0.00    +0.000 A 
ATOM     18  C   UNL     1       1.902   8.827  18.317  0.00  0.00    +0.000 A 
ATOM     19  C   UNL     1       1.384  10.126  18.337  0.00  0.00    +0.000 A 
ATOM     20  C   UNL     1       0.793  10.634  19.497  0.00  0.00    +0.000 A 
ATOM     21  C   UNL     1       0.149  11.990  19.503  0.00  0.00    +0.000 C 
ATOM     22  C   UNL     1       0.764   9.836  20.648  0.00  0.00    +0.000 A 
ATOM     23  C   UNL     1       1.285   8.535  20.632  0.00  0.00    +0.000 A 
ENDBRANCH  15  17
ENDBRANCH  14  15
ENDBRANCH   2  14
TORSDOF 4
ENDMDL
MODEL 9
REMARK VINA RESULT:      -7.3      2.547      5.243
REMARK  Name = 
REMARK  7 active torsions:
REMARK  status: ('A' for Active; 'I' for Inactive)
REMARK    1  A    between atoms: C_1  and  C_2
REMARK    2  A    between atoms: C_2  and  C_4
REMARK    3  A    between atoms: C_5  and  O_6
REMARK    4  A    between atoms: O_6  and  C_7
REMARK    5  A    between atoms: C_7  and  C_9
REMARK    6  A    between atoms: C_12  and  C_13
REMARK    7  A    between atoms: N_22  and  C_23
REMARK                            x       y       z     vdW  Elec       q    Type
REMARK                         _______ _______ _______ _____ _____    ______ ____
ROOT
ATOM      1  C   UNL     1       2.405   3.571  18.270  0.00  0.00    +0.000 A 
ATOM      2  C   UNL     1       2.659   4.872  17.857  0.00  0.00    +0.000 A 
ATOM      3  C   UNL     1       3.884   4.905  17.121  0.00  0.00    +0.000 A 
ATOM      4  C   UNL     1       4.614   5.915  16.449  0.00  0.00    +0.000 A 
ATOM      5  C   UNL     1       5.819   5.607  15.817  0.00  0.00    +0.000 A 
ATOM      6  C   UNL     1       6.329   4.320  15.876  0.00  0.00    +0.000 A 
ATOM      7  C   UNL     1       5.645   3.308  16.555  0.00  0.00    +0.000 A 
ATOM      8  C   UNL     1       4.412   3.616  17.159  0.00  0.00    +0.000 A 
ATOM      9  N   UNL     1       3.523   2.833  17.873  0.00  0.00    +0.000 N 
ATOM     10  C   UNL     1       3.744   1.433  18.187  0.00  0.00    +0.000 C 
ENDROOT
BRANCH   1  12
ATOM     11  C   UNL     1       1.134   3.137  20.458  0.00  0.00    +0.000 C 
ATOM     12  C   UNL     1       1.260   2.983  18.964  0.00  0.00    +0.000 C 
ATOM     13  O   UNL     1       0.385   2.344  18.374  0.00  0.00    +0.000 OA
ENDBRANCH   1  12
BRANCH   2  14
ATOM     14  O   UNL     1       1.910   5.953  18.200  0.00  0.00    +0.000 OA
BRANCH  14  15
ATOM     15  C   UNL     1       2.354   6.686  19.258  0.00  0.00    +0.000 C 
ATOM     16  O   UNL     1       2.949   6.245  20.233  0.00  0.00    +0.000 OA
BRANCH  15  17
ATOM     17  C   UNL     1       1.965   8.123  19.133  0.00  0.00    +0.000 A 
ATOM     18  C   UNL     1       1.263   8.708  20.198  0.00  0.00    +0.000 A 
ATOM     19  C   UNL     1       0.866  10.049  20.141  0.00  0.00    +0.000 A 
ATOM     20  C   UNL     1       1.160  10.825  19.016  0.00  0.00    +0.000 A 
ATOM     21  C   UNL     1       0.824  12.288  18.982  0.00  0.00    +0.000 C 
ATOM     22  C   UNL     1       1.821  10.229  17.934  0.00  0.00    +0.000 A 
ATOM     23  C   UNL     1       2.218   8.885  17.988  0.00  0.00    +0.000 A 
ENDBRANCH  15  17
ENDBRANCH  14  15
ENDBRANCH   2  14
TORSDOF 4
ENDMDL
