MODEL 1
REMARK VINA RESULT:      -7.7      0.000      0.000
REMARK  Name = 
REMARK  7 active torsions:
REMARK  status: ('A' for Active; 'I' for Inactive)
REMARK    1  A    between atoms: C_1  and  S_2
REMARK    2  A    between atoms: S_2  and  C_3
REMARK    3  A    between atoms: C_6  and  C_7
REMARK    4  A    between atoms: C_7  and  N_8
REMARK    5  A    between atoms: C_12  and  C_13
REMARK    6  A    between atoms: C_13  and  O_14
REMARK    7  A    between atoms: O_14  and  C_15
REMARK                            x       y       z     vdW  Elec       q    Type
REMARK                         _______ _______ _______ _____ _____    ______ ____
ROOT
ATOM      1  N   UNL     1       1.791   4.777  19.673  0.00  0.00    +0.000 NA
ATOM      2  C   UNL     1       1.658   4.029  20.936  0.00  0.00    +0.000 C 
ATOM      3  C   UNL     1       2.662   2.879  21.160  0.00  0.00    +0.000 C 
ATOM      4  O   UNL     1       3.740   2.822  20.229  0.00  0.00    +0.000 OA
ATOM      5  C   UNL     1       3.373   2.939  18.836  0.00  0.00    +0.000 C 
ATOM      6  C   UNL     1       2.095   3.793  18.620  0.00  0.00    +0.000 C 
ENDROOT
BRANCH   1   7
ATOM      7  C   UNL     1       2.806   5.844  19.765  0.00  0.00    +0.000 C 
BRANCH   7  11
ATOM      8  C   UNL     1       0.960   9.707  19.130  0.00  0.00    +0.000 A 
ATOM      9  C   UNL     1       0.941   9.118  20.396  0.00  0.00    +0.000 A 
ATOM     10  C   UNL     1       1.585   7.894  20.610  0.00  0.00    +0.000 A 
ATOM     11  C   UNL     1       2.241   7.239  19.557  0.00  0.00    +0.000 A 
ATOM     12  C   UNL     1       2.337   7.882  18.318  0.00  0.00    +0.000 A 
ATOM     13  C   UNL     1       1.689   9.103  18.104  0.00  0.00    +0.000 A 
BRANCH   8  15
ATOM     14  C   UNL     1      -0.782  11.407  20.407  0.00  0.00    +0.000 C 
ATOM     15  S   UNL     1      -0.060  11.127  18.776  0.00  0.00    +0.000 S 
ENDBRANCH   8  15
ENDBRANCH   7  11
ENDBRANCH   1   7
BRANCH   5  16
ATOM     16  C   UNL     1       4.566   3.583  18.101  0.00  0.00    +0.000 C 
BRANCH  16  17
ATOM     17  O   UNL     1       5.598   4.001  19.006  0.00  0.00    +0.000 OA
BRANCH  17  18
ATOM     18  C   UNL     1       6.272   5.126  18.587  0.00  0.00    +0.000 A 
ATOM     19  C   UNL     1       5.666   5.855  17.559  0.00  0.00    +0.000 A 
ATOM     20  C   UNL     1       6.271   7.015  17.069  0.00  0.00    +0.000 A 
ATOM     21  C   UNL     1       7.477   7.459  17.612  0.00  0.00    +0.000 A 
ATOM     22  C   UNL     1       8.075   6.743  18.648  0.00  0.00    +0.000 A 
ATOM     23  C   UNL     1       7.469   5.587  19.138  0.00  0.00    +0.000 A 
ENDBRANCH  17  18
ENDBRANCH  16  17
ENDBRANCH   5  16
TORSDOF 6
ENDMDL
MODEL 2
REMARK VINA RESULT:      -7.6      1.605      4.406
REMARK  Name = 
REMARK  7 active torsions:
REMARK  status: ('A' for Active; 'I' for Inactive)
REMARK    1  A    between atoms: C_1  and  S_2
REMARK    2  A    between atoms: S_2  and  C_3
REMARK    3  A    between atoms: C_6  and  C_7
REMARK    4  A    between atoms: C_7  and  N_8
REMARK    5  A    between atoms: C_12  and  C_13
REMARK    6  A    between atoms: C_13  and  O_14
REMARK    7  A    between atoms: O_14  and  C_15
REMARK                            x       y       z     vdW  Elec       q    Type
REMARK                         _______ _______ _______ _____ _____    ______ ____
ROOT
ATOM      1  N   UNL     1       4.878   6.685  17.037  0.00  0.00    +0.000 NA
ATOM      2  C   UNL     1       5.248   6.229  15.686  0.00  0.00    +0.000 C 
ATOM      3  C   UNL     1       5.833   4.805  15.580  0.00  0.00    +0.000 C 
ATOM      4  O   UNL     1       5.736   4.016  16.764  0.00  0.00    +0.000 OA
ATOM      5  C   UNL     1       6.148   4.668  17.986  0.00  0.00    +0.000 C 
ATOM      6  C   UNL     1       5.924   6.203  17.956  0.00  0.00    +0.000 C 
ENDROOT
BRANCH   1   7
ATOM      7  C   UNL     1       3.529   6.232  17.425  0.00  0.00    +0.000 C 
BRANCH   7  11
ATOM      8  C   UNL     1       1.172   8.942  19.840  0.00  0.00    +0.000 A 
ATOM      9  C   UNL     1       1.669   7.760  20.393  0.00  0.00    +0.000 A 
ATOM     10  C   UNL     1       2.477   6.913  19.625  0.00  0.00    +0.000 A 
ATOM     11  C   UNL     1       2.779   7.230  18.293  0.00  0.00    +0.000 A 
ATOM     12  C   UNL     1       2.357   8.461  17.780  0.00  0.00    +0.000 A 
ATOM     13  C   UNL     1       1.547   9.305  18.546  0.00  0.00    +0.000 A 
BRANCH   8  15
ATOM     14  C   UNL     1      -0.682  10.913  19.351  0.00  0.00    +0.000 C 
ATOM     15  S   UNL     1      -0.054   9.902  20.710  0.00  0.00    +0.000 S 
ENDBRANCH   8  15
ENDBRANCH   7  11
ENDBRANCH   1   7
BRANCH   5  16
ATOM     16  C   UNL     1       5.332   4.041  19.135  0.00  0.00    +0.000 C 
BRANCH  16  17
ATOM     17  O   UNL     1       4.500   2.963  18.683  0.00  0.00    +0.000 OA
BRANCH  17  18
ATOM     18  C   UNL     1       3.205   3.039  19.146  0.00  0.00    +0.000 A 
ATOM     19  C   UNL     1       3.056   3.360  20.499  0.00  0.00    +0.000 A 
ATOM     20  C   UNL     1       1.782   3.466  21.060  0.00  0.00    +0.000 A 
ATOM     21  C   UNL     1       0.649   3.263  20.270  0.00  0.00    +0.000 A 
ATOM     22  C   UNL     1       0.794   2.958  18.918  0.00  0.00    +0.000 A 
ATOM     23  C   UNL     1       2.067   2.856  18.358  0.00  0.00    +0.000 A 
ENDBRANCH  17  18
ENDBRANCH  16  17
ENDBRANCH   5  16
TORSDOF 6
ENDMDL
MODEL 3
REMARK VINA RESULT:      -7.6      1.705      4.409
REMARK  Name = 
REMARK  7 active torsions:
REMARK  status: ('A' for Active; 'I' for Inactive)
REMARK    1  A    between atoms: C_1  and  S_2
REMARK    2  A    between atoms: S_2  and  C_3
REMARK    3  A    between atoms: C_6  and  C_7
REMARK    4  A    between atoms: C_7  and  N_8
REMARK    5  A    between atoms: C_12  and  C_13
REMARK    6  A    between atoms: C_13  and  O_14
REMARK    7  A    between atoms: O_14  and  C_15
REMARK                            x       y       z     vdW  Elec       q    Type
REMARK                         _______ _______ _______ _____ _____    ______ ____
ROOT
ATOM      1  N   UNL     1       4.860   6.707  17.017  0.00  0.00    +0.000 NA
ATOM      2  C   UNL     1       5.204   6.300  15.643  0.00  0.00    +0.000 C 
ATOM      3  C   UNL     1       5.796   4.885  15.476  0.00  0.00    +0.000 C 
ATOM      4  O   UNL     1       5.729   4.056  16.634  0.00  0.00    +0.000 OA
ATOM      5  C   UNL     1       6.163   4.667  17.869  0.00  0.00    +0.000 C 
ATOM      6  C   UNL     1       5.928   6.202  17.896  0.00  0.00    +0.000 C 
ENDROOT
BRANCH   1   7
ATOM      7  C   UNL     1       3.523   6.233  17.418  0.00  0.00    +0.000 C 
BRANCH   7  11
ATOM      8  C   UNL     1       1.196   8.850  19.960  0.00  0.00    +0.000 A 
ATOM      9  C   UNL     1       1.695   7.646  20.461  0.00  0.00    +0.000 A 
ATOM     10  C   UNL     1       2.493   6.828  19.653  0.00  0.00    +0.000 A 
ATOM     11  C   UNL     1       2.784   7.197  18.331  0.00  0.00    +0.000 A 
ATOM     12  C   UNL     1       2.360   8.448  17.871  0.00  0.00    +0.000 A 
ATOM     13  C   UNL     1       1.560   9.263  18.678  0.00  0.00    +0.000 A 
BRANCH   8  15
ATOM     14  C   UNL     1       0.498   9.386  22.565  0.00  0.00    +0.000 C 
ATOM     15  S   UNL     1      -0.020   9.777  20.879  0.00  0.00    +0.000 S 
ENDBRANCH   8  15
ENDBRANCH   7  11
ENDBRANCH   1   7
BRANCH   5  16
ATOM     16  C   UNL     1       5.375   3.996  19.012  0.00  0.00    +0.000 C 
BRANCH  16  17
ATOM     17  O   UNL     1       4.328   3.145  18.523  0.00  0.00    +0.000 OA
BRANCH  17  18
ATOM     18  C   UNL     1       3.235   3.084  19.359  0.00  0.00    +0.000 A 
ATOM     19  C   UNL     1       1.984   3.158  18.737  0.00  0.00    +0.000 A 
ATOM     20  C   UNL     1       0.816   3.099  19.500  0.00  0.00    +0.000 A 
ATOM     21  C   UNL     1       0.891   2.954  20.886  0.00  0.00    +0.000 A 
ATOM     22  C   UNL     1       2.136   2.864  21.506  0.00  0.00    +0.000 A 
ATOM     23  C   UNL     1       3.302   2.920  20.743  0.00  0.00    +0.000 A 
ENDBRANCH  17  18
ENDBRANCH  16  17
ENDBRANCH   5  16
TORSDOF 6
ENDMDL
MODEL 4
REMARK VINA RESULT:      -7.6      0.526      1.515
REMARK  Name = 
REMARK  7 active torsions:
REMARK  status: ('A' for Active; 'I' for Inactive)
REMARK    1  A    between atoms: C_1  and  S_2
REMARK    2  A    between atoms: S_2  and  C_3
REMARK    3  A    between atoms: C_6  and  C_7
REMARK    4  A    between atoms: C_7  and  N_8
REMARK    5  A    between atoms: C_12  and  C_13
REMARK    6  A    between atoms: C_13  and  O_14
REMARK    7  A    between atoms: O_14  and  C_15
REMARK                            x       y       z     vdW  Elec       q    Type
REMARK                         _______ _______ _______ _____ _____    ______ ____
ROOT
ATOM      1  N   UNL     1       1.812   4.536  19.970  0.00  0.00    +0.000 NA
ATOM      2  C   UNL     1       1.818   3.773  21.230  0.00  0.00    +0.000 C 
ATOM      3  C   UNL     1       2.876   2.656  21.350  0.00  0.00    +0.000 C 
ATOM      4  O   UNL     1       3.867   2.643  20.325  0.00  0.00    +0.000 OA
ATOM      5  C   UNL     1       3.372   2.759  18.972  0.00  0.00    +0.000 C 
ATOM      6  C   UNL     1       2.052   3.572  18.882  0.00  0.00    +0.000 C 
ENDROOT
BRANCH   1   7
ATOM      7  C   UNL     1       2.795   5.635  19.982  0.00  0.00    +0.000 C 
BRANCH   7  11
ATOM      8  C   UNL     1       1.309   9.613  19.144  0.00  0.00    +0.000 A 
ATOM      9  C   UNL     1       1.940   8.872  18.142  0.00  0.00    +0.000 A 
ATOM     10  C   UNL     1       2.370   7.566  18.400  0.00  0.00    +0.000 A 
ATOM     11  C   UNL     1       2.190   6.994  19.669  0.00  0.00    +0.000 A 
ATOM     12  C   UNL     1       1.473   7.707  20.635  0.00  0.00    +0.000 A 
ATOM     13  C   UNL     1       1.047   9.014  20.377  0.00  0.00    +0.000 A 
BRANCH   8  15
ATOM     14  C   UNL     1       1.080  11.916  20.628  0.00  0.00    +0.000 C 
ATOM     15  S   UNL     1       0.983  11.352  18.915  0.00  0.00    +0.000 S 
ENDBRANCH   8  15
ENDBRANCH   7  11
ENDBRANCH   1   7
BRANCH   5  16
ATOM     16  C   UNL     1       4.472   3.450  18.141  0.00  0.00    +0.000 C 
BRANCH  16  17
ATOM     17  O   UNL     1       5.550   3.926  18.959  0.00  0.00    +0.000 OA
BRANCH  17  18
ATOM     18  C   UNL     1       6.127   5.083  18.486  0.00  0.00    +0.000 A 
ATOM     19  C   UNL     1       7.331   5.458  19.090  0.00  0.00    +0.000 A 
ATOM     20  C   UNL     1       7.995   6.615  18.675  0.00  0.00    +0.000 A 
ATOM     21  C   UNL     1       7.466   7.396  17.647  0.00  0.00    +0.000 A 
ATOM     22  C   UNL     1       6.275   7.016  17.032  0.00  0.00    +0.000 A 
ATOM     23  C   UNL     1       5.614   5.860  17.446  0.00  0.00    +0.000 A 
ENDBRANCH  17  18
ENDBRANCH  16  17
ENDBRANCH   5  16
TORSDOF 6
ENDMDL
MODEL 5
REMARK VINA RESULT:      -7.6      1.670      4.430
REMARK  Name = 
REMARK  7 active torsions:
REMARK  status: ('A' for Active; 'I' for Inactive)
REMARK    1  A    between atoms: C_1  and  S_2
REMARK    2  A    between atoms: S_2  and  C_3
REMARK    3  A    between atoms: C_6  and  C_7
REMARK    4  A    between atoms: C_7  and  N_8
REMARK    5  A    between atoms: C_12  and  C_13
REMARK    6  A    between atoms: C_13  and  O_14
REMARK    7  A    between atoms: O_14  and  C_15
REMARK                            x       y       z     vdW  Elec       q    Type
REMARK                         _______ _______ _______ _____ _____    ______ ____
ROOT
ATOM      1  N   UNL     1       4.737   6.757  17.259  0.00  0.00    +0.000 NA
ATOM      2  C   UNL     1       5.094   6.426  15.868  0.00  0.00    +0.000 C 
ATOM      3  C   UNL     1       5.743   5.045  15.637  0.00  0.00    +0.000 C 
ATOM      4  O   UNL     1       5.713   4.163  16.757  0.00  0.00    +0.000 OA
ATOM      5  C   UNL     1       6.124   4.736  18.018  0.00  0.00    +0.000 C 
ATOM      6  C   UNL     1       5.828   6.257  18.114  0.00  0.00    +0.000 C 
ENDROOT
BRANCH   1   7
ATOM      7  C   UNL     1       3.421   6.210  17.639  0.00  0.00    +0.000 C 
BRANCH   7  11
ATOM      8  C   UNL     1       1.221   9.106  19.985  0.00  0.00    +0.000 A 
ATOM      9  C   UNL     1       1.443   9.327  18.624  0.00  0.00    +0.000 A 
ATOM     10  C   UNL     1       2.107   8.363  17.857  0.00  0.00    +0.000 A 
ATOM     11  C   UNL     1       2.572   7.178  18.446  0.00  0.00    +0.000 A 
ATOM     12  C   UNL     1       2.260   6.924  19.786  0.00  0.00    +0.000 A 
ATOM     13  C   UNL     1       1.600   7.889  20.553  0.00  0.00    +0.000 A 
BRANCH   8  15
ATOM     14  C   UNL     1       0.330   9.499  22.556  0.00  0.00    +0.000 C 
ATOM     15  S   UNL     1       0.607  10.418  21.027  0.00  0.00    +0.000 S 
ENDBRANCH   8  15
ENDBRANCH   7  11
ENDBRANCH   1   7
BRANCH   5  16
ATOM     16  C   UNL     1       5.368   3.983  19.131  0.00  0.00    +0.000 C 
BRANCH  16  17
ATOM     17  O   UNL     1       4.483   2.983  18.604  0.00  0.00    +0.000 OA
BRANCH  17  18
ATOM     18  C   UNL     1       3.216   3.036  19.139  0.00  0.00    +0.000 A 
ATOM     19  C   UNL     1       2.172   2.686  18.276  0.00  0.00    +0.000 A 
ATOM     20  C   UNL     1       0.851   2.703  18.728  0.00  0.00    +0.000 A 
ATOM     21  C   UNL     1       0.566   3.059  20.047  0.00  0.00    +0.000 A 
ATOM     22  C   UNL     1       1.605   3.394  20.913  0.00  0.00    +0.000 A 
ATOM     23  C   UNL     1       2.924   3.374  20.462  0.00  0.00    +0.000 A 
ENDBRANCH  17  18
ENDBRANCH  16  17
ENDBRANCH   5  16
TORSDOF 6
ENDMDL
MODEL 6
REMARK VINA RESULT:      -7.5      1.561      4.444
REMARK  Name = 
REMARK  7 active torsions:
REMARK  status: ('A' for Active; 'I' for Inactive)
REMARK    1  A    between atoms: C_1  and  S_2
REMARK    2  A    between atoms: S_2  and  C_3
REMARK    3  A    between atoms: C_6  and  C_7
REMARK    4  A    between atoms: C_7  and  N_8
REMARK    5  A    between atoms: C_12  and  C_13
REMARK    6  A    between atoms: C_13  and  O_14
REMARK    7  A    between atoms: O_14  and  C_15
REMARK                            x       y       z     vdW  Elec       q    Type
REMARK                         _______ _______ _______ _____ _____    ______ ____
ROOT
ATOM      1  N   UNL     1       4.778   6.792  17.351  0.00  0.00    +0.000 NA
ATOM      2  C   UNL     1       5.070   6.520  15.933  0.00  0.00    +0.000 C 
ATOM      3  C   UNL     1       5.634   5.122  15.605  0.00  0.00    +0.000 C 
ATOM      4  O   UNL     1       5.591   4.181  16.676  0.00  0.00    +0.000 OA
ATOM      5  C   UNL     1       6.075   4.660  17.951  0.00  0.00    +0.000 C 
ATOM      6  C   UNL     1       5.866   6.187  18.139  0.00  0.00    +0.000 C 
ENDROOT
BRANCH   1   7
ATOM      7  C   UNL     1       3.447   6.296  17.748  0.00  0.00    +0.000 C 
BRANCH   7  11
ATOM      8  C   UNL     1       1.202   9.435  19.708  0.00  0.00    +0.000 A 
ATOM      9  C   UNL     1       1.509   9.534  18.349  0.00  0.00    +0.000 A 
ATOM     10  C   UNL     1       2.187   8.492  17.706  0.00  0.00    +0.000 A 
ATOM     11  C   UNL     1       2.581   7.350  18.419  0.00  0.00    +0.000 A 
ATOM     12  C   UNL     1       2.185   7.218  19.754  0.00  0.00    +0.000 A 
ATOM     13  C   UNL     1       1.511   8.261  20.397  0.00  0.00    +0.000 A 
BRANCH   8  15
ATOM     14  C   UNL     1      -1.053  11.004  19.819  0.00  0.00    +0.000 C 
ATOM     15  S   UNL     1       0.569  10.845  20.598  0.00  0.00    +0.000 S 
ENDBRANCH   8  15
ENDBRANCH   7  11
ENDBRANCH   1   7
BRANCH   5  16
ATOM     16  C   UNL     1       5.314   3.887  19.047  0.00  0.00    +0.000 C 
BRANCH  16  17
ATOM     17  O   UNL     1       4.419   2.909  18.499  0.00  0.00    +0.000 OA
BRANCH  17  18
ATOM     18  C   UNL     1       3.145   2.980  19.016  0.00  0.00    +0.000 A 
ATOM     19  C   UNL     1       3.024   3.602  20.263  0.00  0.00    +0.000 A 
ATOM     20  C   UNL     1       1.771   3.728  20.867  0.00  0.00    +0.000 A 
ATOM     21  C   UNL     1       0.632   3.243  20.224  0.00  0.00    +0.000 A 
ATOM     22  C   UNL     1       0.747   2.636  18.975  0.00  0.00    +0.000 A 
ATOM     23  C   UNL     1       1.998   2.514  18.371  0.00  0.00    +0.000 A 
ENDBRANCH  17  18
ENDBRANCH  16  17
ENDBRANCH   5  16
TORSDOF 6
ENDMDL
MODEL 7
REMARK VINA RESULT:      -7.5      0.865      1.036
REMARK  Name = 
REMARK  7 active torsions:
REMARK  status: ('A' for Active; 'I' for Inactive)
REMARK    1  A    between atoms: C_1  and  S_2
REMARK    2  A    between atoms: S_2  and  C_3
REMARK    3  A    between atoms: C_6  and  C_7
REMARK    4  A    between atoms: C_7  and  N_8
REMARK    5  A    between atoms: C_12  and  C_13
REMARK    6  A    between atoms: C_13  and  O_14
REMARK    7  A    between atoms: O_14  and  C_15
REMARK                            x       y       z     vdW  Elec       q    Type
REMARK                         _______ _______ _______ _____ _____    ______ ____
ROOT
ATOM      1  N   UNL     1       1.716   4.769  20.265  0.00  0.00    +0.000 NA
ATOM      2  C   UNL     1       2.175   3.903  21.365  0.00  0.00    +0.000 C 
ATOM      3  C   UNL     1       2.963   2.640  20.959  0.00  0.00    +0.000 C 
ATOM      4  O   UNL     1       3.351   2.578  19.588  0.00  0.00    +0.000 OA
ATOM      5  C   UNL     1       2.315   2.885  18.629  0.00  0.00    +0.000 C 
ATOM      6  C   UNL     1       1.261   3.883  19.179  0.00  0.00    +0.000 C 
ENDROOT
BRANCH   1   7
ATOM      7  C   UNL     1       2.763   5.711  19.827  0.00  0.00    +0.000 C 
BRANCH   7  11
ATOM      8  C   UNL     1       1.076   9.642  19.164  0.00  0.00    +0.000 A 
ATOM      9  C   UNL     1       0.998   9.047  20.425  0.00  0.00    +0.000 A 
ATOM     10  C   UNL     1       1.592   7.800  20.650  0.00  0.00    +0.000 A 
ATOM     11  C   UNL     1       2.254   7.128  19.612  0.00  0.00    +0.000 A 
ATOM     12  C   UNL     1       2.410   7.774  18.381  0.00  0.00    +0.000 A 
ATOM     13  C   UNL     1       1.813   9.018  18.156  0.00  0.00    +0.000 A 
BRANCH   8  15
ATOM     14  C   UNL     1      -0.645  11.394  20.401  0.00  0.00    +0.000 C 
ATOM     15  S   UNL     1       0.118  11.100  18.791  0.00  0.00    +0.000 S 
ENDBRANCH   8  15
ENDBRANCH   7  11
ENDBRANCH   1   7
BRANCH   5  16
ATOM     16  C   UNL     1       3.005   3.484  17.386  0.00  0.00    +0.000 C 
BRANCH  16  17
ATOM     17  O   UNL     1       4.425   3.277  17.403  0.00  0.00    +0.000 OA
BRANCH  17  18
ATOM     18  C   UNL     1       5.150   4.448  17.409  0.00  0.00    +0.000 A 
ATOM     19  C   UNL     1       4.717   5.440  16.522  0.00  0.00    +0.000 A 
ATOM     20  C   UNL     1       5.385   6.665  16.459  0.00  0.00    +0.000 A 
ATOM     21  C   UNL     1       6.480   6.910  17.288  0.00  0.00    +0.000 A 
ATOM     22  C   UNL     1       6.903   5.929  18.184  0.00  0.00    +0.000 A 
ATOM     23  C   UNL     1       6.234   4.707  18.248  0.00  0.00    +0.000 A 
ENDBRANCH  17  18
ENDBRANCH  16  17
ENDBRANCH   5  16
TORSDOF 6
ENDMDL
MODEL 8
REMARK VINA RESULT:      -7.5      0.433      1.095
REMARK  Name = 
REMARK  7 active torsions:
REMARK  status: ('A' for Active; 'I' for Inactive)
REMARK    1  A    between atoms: C_1  and  S_2
REMARK    2  A    between atoms: S_2  and  C_3
REMARK    3  A    between atoms: C_6  and  C_7
REMARK    4  A    between atoms: C_7  and  N_8
REMARK    5  A    between atoms: C_12  and  C_13
REMARK    6  A    between atoms: C_13  and  O_14
REMARK    7  A    between atoms: O_14  and  C_15
REMARK                            x       y       z     vdW  Elec       q    Type
REMARK                         _______ _______ _______ _____ _____    ______ ____
ROOT
ATOM      1  N   UNL     1       1.899   4.843  19.346  0.00  0.00    +0.000 NA
ATOM      2  C   UNL     1       1.732   4.096  20.605  0.00  0.00    +0.000 C 
ATOM      3  C   UNL     1       2.775   2.995  20.891  0.00  0.00    +0.000 C 
ATOM      4  O   UNL     1       3.903   2.983  20.020  0.00  0.00    +0.000 OA
ATOM      5  C   UNL     1       3.607   3.076  18.609  0.00  0.00    +0.000 C 
ATOM      6  C   UNL     1       2.305   3.870  18.318  0.00  0.00    +0.000 C 
ENDROOT
BRANCH   1   7
ATOM      7  C   UNL     1       2.857   5.956  19.485  0.00  0.00    +0.000 C 
BRANCH   7  11
ATOM      8  C   UNL     1       1.299   9.965  19.005  0.00  0.00    +0.000 A 
ATOM      9  C   UNL     1       1.906   9.314  17.930  0.00  0.00    +0.000 A 
ATOM     10  C   UNL     1       2.359   7.998  18.072  0.00  0.00    +0.000 A 
ATOM     11  C   UNL     1       2.227   7.326  19.297  0.00  0.00    +0.000 A 
ATOM     12  C   UNL     1       1.532   7.953  20.338  0.00  0.00    +0.000 A 
ATOM     13  C   UNL     1       1.083   9.269  20.195  0.00  0.00    +0.000 A 
BRANCH   8  15
ATOM     14  C   UNL     1      -0.064  11.897  20.409  0.00  0.00    +0.000 C 
ATOM     15  S   UNL     1       0.946  11.712  18.923  0.00  0.00    +0.000 S 
ENDBRANCH   8  15
ENDBRANCH   7  11
ENDBRANCH   1   7
BRANCH   5  16
ATOM     16  C   UNL     1       4.807   3.772  17.935  0.00  0.00    +0.000 C 
BRANCH  16  17
ATOM     17  O   UNL     1       5.804   4.175  18.885  0.00  0.00    +0.000 OA
BRANCH  17  18
ATOM     18  C   UNL     1       6.469   5.327  18.527  0.00  0.00    +0.000 A 
ATOM     19  C   UNL     1       5.883   6.079  17.504  0.00  0.00    +0.000 A 
ATOM     20  C   UNL     1       6.480   7.266  17.075  0.00  0.00    +0.000 A 
ATOM     21  C   UNL     1       7.659   7.714  17.673  0.00  0.00    +0.000 A 
ATOM     22  C   UNL     1       8.237   6.974  18.703  0.00  0.00    +0.000 A 
ATOM     23  C   UNL     1       7.638   5.790  19.133  0.00  0.00    +0.000 A 
ENDBRANCH  17  18
ENDBRANCH  16  17
ENDBRANCH   5  16
TORSDOF 6
ENDMDL
MODEL 9
REMARK VINA RESULT:      -7.4      1.696      4.506
REMARK  Name = 
REMARK  7 active torsions:
REMARK  status: ('A' for Active; 'I' for Inactive)
REMARK    1  A    between atoms: C_1  and  S_2
REMARK    2  A    between atoms: S_2  and  C_3
REMARK    3  A    between atoms: C_6  and  C_7
REMARK    4  A    between atoms: C_7  and  N_8
REMARK    5  A    between atoms: C_12  and  C_13
REMARK    6  A    between atoms: C_13  and  O_14
REMARK    7  A    between atoms: O_14  and  C_15
REMARK                            x       y       z     vdW  Elec       q    Type
REMARK                         _______ _______ _______ _____ _____    ______ ____
ROOT
ATOM      1  N   UNL     1       4.925   6.367  18.102  0.00  0.00    +0.000 NA
ATOM      2  C   UNL     1       5.970   6.819  17.167  0.00  0.00    +0.000 C 
ATOM      3  C   UNL     1       6.441   5.791  16.117  0.00  0.00    +0.000 C 
ATOM      4  O   UNL     1       5.655   4.606  16.029  0.00  0.00    +0.000 OA
ATOM      5  C   UNL     1       5.337   3.969  17.287  0.00  0.00    +0.000 C 
ATOM      6  C   UNL     1       5.245   4.975  18.465  0.00  0.00    +0.000 C 
ENDROOT
BRANCH   1   7
ATOM      7  C   UNL     1       3.572   6.508  17.533  0.00  0.00    +0.000 C 
BRANCH   7  11
ATOM      8  C   UNL     1       1.143   9.119  19.986  0.00  0.00    +0.000 A 
ATOM      9  C   UNL     1       1.354   9.416  18.638  0.00  0.00    +0.000 A 
ATOM     10  C   UNL     1       2.094   8.542  17.835  0.00  0.00    +0.000 A 
ATOM     11  C   UNL     1       2.646   7.371  18.375  0.00  0.00    +0.000 A 
ATOM     12  C   UNL     1       2.348   7.034  19.700  0.00  0.00    +0.000 A 
ATOM     13  C   UNL     1       1.612   7.910  20.503  0.00  0.00    +0.000 A 
BRANCH   8  15
ATOM     14  C   UNL     1       0.387   9.384  22.616  0.00  0.00    +0.000 C 
ATOM     15  S   UNL     1       0.425  10.332  21.079  0.00  0.00    +0.000 S 
ENDBRANCH   8  15
ENDBRANCH   7  11
ENDBRANCH   1   7
BRANCH   5  16
ATOM     16  C   UNL     1       3.985   3.249  17.105  0.00  0.00    +0.000 C 
BRANCH  16  17
ATOM     17  O   UNL     1       3.764   2.249  18.111  0.00  0.00    +0.000 OA
BRANCH  17  18
ATOM     18  C   UNL     1       2.897   2.651  19.102  0.00  0.00    +0.000 A 
ATOM     19  C   UNL     1       3.324   2.430  20.415  0.00  0.00    +0.000 A 
ATOM     20  C   UNL     1       2.516   2.809  21.490  0.00  0.00    +0.000 A 
ATOM     21  C   UNL     1       1.284   3.420  21.259  0.00  0.00    +0.000 A 
ATOM     22  C   UNL     1       0.862   3.656  19.952  0.00  0.00    +0.000 A 
ATOM     23  C   UNL     1       1.671   3.280  18.879  0.00  0.00    +0.000 A 
ENDBRANCH  17  18
ENDBRANCH  16  17
ENDBRANCH   5  16
TORSDOF 6
ENDMDL
