MODEL 1
REMARK VINA RESULT:      -6.3      0.000      0.000
REMARK  Name = 
REMARK  3 active torsions:
REMARK  status: ('A' for Active; 'I' for Inactive)
REMARK    1  A    between atoms: C_2  and  C_10
REMARK    2  A    between atoms: N_3  and  C_4
REMARK    3  A    between atoms: C_4  and  C_5
REMARK                            x       y       z     vdW  Elec       q    Type
REMARK                         _______ _______ _______ _____ _____    ______ ____
ROOT
ATOM      1  O   UNL     1       4.847   5.014  19.444  0.00  0.00    +0.000 OA
ATOM      2  C   UNL     1       5.131   4.100  18.674  0.00  0.00    +0.000 C 
ATOM      3  N   UNL     1       4.963   2.782  19.043  0.00  0.00    +0.000 N 
ATOM      4  H   UNL     1       5.076   2.058  18.346  0.00  0.00    +0.000 HD
ENDROOT
BRANCH   2   5
ATOM      5  C   UNL     1       5.657   4.353  17.339  0.00  0.00    +0.000 A 
ATOM      6  C   UNL     1       4.922   4.345  16.165  0.00  0.00    +0.000 A 
ATOM      7  C   UNL     1       5.712   4.620  15.014  0.00  0.00    +0.000 A 
ATOM      8  C   UNL     1       7.034   4.825  15.341  0.00  0.00    +0.000 A 
ATOM      9  S   UNL     1       7.307   4.693  17.027  0.00  0.00    +0.000 S 
ENDBRANCH   2   5
BRANCH   3  10
ATOM     10  C   UNL     1       4.305   2.454  20.285  0.00  0.00    +0.000 C 
BRANCH  10  11
ATOM     11  C   UNL     1       2.847   2.691  20.171  0.00  0.00    +0.000 A 
ATOM     12  C   UNL     1       1.954   3.418  20.933  0.00  0.00    +0.000 A 
ATOM     13  C   UNL     1       0.705   3.334  20.275  0.00  0.00    +0.000 A 
ATOM     14  C   UNL     1       0.909   2.549  19.164  0.00  0.00    +0.000 A 
ATOM     15  O   UNL     1       2.206   2.149  19.094  0.00  0.00    +0.000 OA
ENDBRANCH  10  11
ENDBRANCH   3  10
TORSDOF 3
ENDMDL
MODEL 2
REMARK VINA RESULT:      -6.2      1.829      2.163
REMARK  Name = 
REMARK  3 active torsions:
REMARK  status: ('A' for Active; 'I' for Inactive)
REMARK    1  A    between atoms: C_2  and  C_10
REMARK    2  A    between atoms: N_3  and  C_4
REMARK    3  A    between atoms: C_4  and  C_5
REMARK                            x       y       z     vdW  Elec       q    Type
REMARK                         _______ _______ _______ _____ _____    ______ ____
ROOT
ATOM      1  O   UNL     1       4.551   3.774  17.237  0.00  0.00    +0.000 OA
ATOM      2  C   UNL     1       5.242   4.129  18.189  0.00  0.00    +0.000 C 
ATOM      3  N   UNL     1       5.180   3.467  19.397  0.00  0.00    +0.000 N 
ATOM      4  H   UNL     1       5.854   3.692  20.116  0.00  0.00    +0.000 HD
ENDROOT
BRANCH   2   5
ATOM      5  C   UNL     1       6.158   5.258  18.098  0.00  0.00    +0.000 A 
ATOM      6  C   UNL     1       7.254   5.479  18.914  0.00  0.00    +0.000 A 
ATOM      7  C   UNL     1       7.957   6.672  18.589  0.00  0.00    +0.000 A 
ATOM      8  C   UNL     1       7.372   7.336  17.535  0.00  0.00    +0.000 A 
ATOM      9  S   UNL     1       5.992   6.513  16.943  0.00  0.00    +0.000 S 
ENDBRANCH   2   5
BRANCH   3  10
ATOM     10  C   UNL     1       4.416   2.249  19.519  0.00  0.00    +0.000 C 
BRANCH  10  11
ATOM     11  C   UNL     1       3.072   2.539  20.070  0.00  0.00    +0.000 A 
ATOM     12  C   UNL     1       2.625   2.833  21.343  0.00  0.00    +0.000 A 
ATOM     13  C   UNL     1       1.241   3.095  21.230  0.00  0.00    +0.000 A 
ATOM     14  C   UNL     1       0.925   2.929  19.902  0.00  0.00    +0.000 A 
ATOM     15  O   UNL     1       2.030   2.586  19.189  0.00  0.00    +0.000 OA
ENDBRANCH  10  11
ENDBRANCH   3  10
TORSDOF 3
ENDMDL
MODEL 3
REMARK VINA RESULT:      -6.1      1.831      2.018
REMARK  Name = 
REMARK  3 active torsions:
REMARK  status: ('A' for Active; 'I' for Inactive)
REMARK    1  A    between atoms: C_2  and  C_10
REMARK    2  A    between atoms: N_3  and  C_4
REMARK    3  A    between atoms: C_4  and  C_5
REMARK                            x       y       z     vdW  Elec       q    Type
REMARK                         _______ _______ _______ _____ _____    ______ ____
ROOT
ATOM      1  O   UNL     1       4.689   3.820  17.193  0.00  0.00    +0.000 OA
ATOM      2  C   UNL     1       5.320   4.197  18.178  0.00  0.00    +0.000 C 
ATOM      3  N   UNL     1       5.192   3.553  19.391  0.00  0.00    +0.000 N 
ATOM      4  H   UNL     1       5.821   3.797  20.145  0.00  0.00    +0.000 HD
ENDROOT
BRANCH   2   5
ATOM      5  C   UNL     1       6.229   5.333  18.122  0.00  0.00    +0.000 A 
ATOM      6  C   UNL     1       6.198   6.350  17.182  0.00  0.00    +0.000 A 
ATOM      7  C   UNL     1       7.219   7.321  17.380  0.00  0.00    +0.000 A 
ATOM      8  C   UNL     1       8.010   7.013  18.464  0.00  0.00    +0.000 A 
ATOM      9  S   UNL     1       7.509   5.569  19.236  0.00  0.00    +0.000 S 
ENDBRANCH   2   5
BRANCH   3  10
ATOM     10  C   UNL     1       4.433   2.330  19.488  0.00  0.00    +0.000 C 
BRANCH  10  11
ATOM     11  C   UNL     1       3.097   2.600  20.067  0.00  0.00    +0.000 A 
ATOM     12  C   UNL     1       2.657   2.778  21.364  0.00  0.00    +0.000 A 
ATOM     13  C   UNL     1       1.280   3.087  21.281  0.00  0.00    +0.000 A 
ATOM     14  C   UNL     1       0.961   3.063  19.943  0.00  0.00    +0.000 A 
ATOM     15  O   UNL     1       2.057   2.763  19.197  0.00  0.00    +0.000 OA
ENDBRANCH  10  11
ENDBRANCH   3  10
TORSDOF 3
ENDMDL
MODEL 4
REMARK VINA RESULT:      -6.1      2.253      5.705
REMARK  Name = 
REMARK  3 active torsions:
REMARK  status: ('A' for Active; 'I' for Inactive)
REMARK    1  A    between atoms: C_2  and  C_10
REMARK    2  A    between atoms: N_3  and  C_4
REMARK    3  A    between atoms: C_4  and  C_5
REMARK                            x       y       z     vdW  Elec       q    Type
REMARK                         _______ _______ _______ _____ _____    ______ ____
ROOT
ATOM      1  O   UNL     1       4.604   5.942  19.102  0.00  0.00    +0.000 OA
ATOM      2  C   UNL     1       4.412   4.729  19.085  0.00  0.00    +0.000 C 
ATOM      3  N   UNL     1       5.278   3.882  18.426  0.00  0.00    +0.000 N 
ATOM      4  H   UNL     1       5.173   2.883  18.541  0.00  0.00    +0.000 HD
ENDROOT
BRANCH   2   5
ATOM      5  C   UNL     1       3.270   4.119  19.754  0.00  0.00    +0.000 A 
ATOM      6  C   UNL     1       2.011   4.683  19.880  0.00  0.00    +0.000 A 
ATOM      7  C   UNL     1       1.101   3.853  20.593  0.00  0.00    +0.000 A 
ATOM      8  C   UNL     1       1.694   2.679  20.999  0.00  0.00    +0.000 A 
ATOM      9  S   UNL     1       3.333   2.584  20.511  0.00  0.00    +0.000 S 
ENDBRANCH   2   5
BRANCH   3  10
ATOM     10  C   UNL     1       6.510   4.390  17.873  0.00  0.00    +0.000 C 
BRANCH  10  11
ATOM     11  C   UNL     1       6.454   4.375  16.393  0.00  0.00    +0.000 A 
ATOM     12  C   UNL     1       5.508   3.918  15.497  0.00  0.00    +0.000 A 
ATOM     13  C   UNL     1       5.981   4.256  14.208  0.00  0.00    +0.000 A 
ATOM     14  C   UNL     1       7.192   4.883  14.396  0.00  0.00    +0.000 A 
ATOM     15  O   UNL     1       7.490   4.956  15.720  0.00  0.00    +0.000 OA
ENDBRANCH  10  11
ENDBRANCH   3  10
TORSDOF 3
ENDMDL
MODEL 5
REMARK VINA RESULT:      -6.1      2.413      5.776
REMARK  Name = 
REMARK  3 active torsions:
REMARK  status: ('A' for Active; 'I' for Inactive)
REMARK    1  A    between atoms: C_2  and  C_10
REMARK    2  A    between atoms: N_3  and  C_4
REMARK    3  A    between atoms: C_4  and  C_5
REMARK                            x       y       z     vdW  Elec       q    Type
REMARK                         _______ _______ _______ _____ _____    ______ ____
ROOT
ATOM      1  O   UNL     1       5.969   4.641  19.578  0.00  0.00    +0.000 OA
ATOM      2  C   UNL     1       4.878   4.983  19.129  0.00  0.00    +0.000 C 
ATOM      3  N   UNL     1       4.790   5.846  18.057  0.00  0.00    +0.000 N 
ATOM      4  H   UNL     1       3.889   6.002  17.624  0.00  0.00    +0.000 HD
ENDROOT
BRANCH   2   5
ATOM      5  C   UNL     1       3.625   4.501  19.697  0.00  0.00    +0.000 A 
ATOM      6  C   UNL     1       2.543   5.288  20.054  0.00  0.00    +0.000 A 
ATOM      7  C   UNL     1       1.462   4.535  20.590  0.00  0.00    +0.000 A 
ATOM      8  C   UNL     1       1.752   3.190  20.635  0.00  0.00    +0.000 A 
ATOM      9  S   UNL     1       3.315   2.849  20.024  0.00  0.00    +0.000 S 
ENDBRANCH   2   5
BRANCH   3  10
ATOM     10  C   UNL     1       5.980   6.243  17.344  0.00  0.00    +0.000 C 
BRANCH  10  11
ATOM     11  C   UNL     1       6.130   5.438  16.109  0.00  0.00    +0.000 A 
ATOM     12  C   UNL     1       5.297   4.545  15.466  0.00  0.00    +0.000 A 
ATOM     13  C   UNL     1       5.963   4.158  14.281  0.00  0.00    +0.000 A 
ATOM     14  C   UNL     1       7.167   4.824  14.282  0.00  0.00    +0.000 A 
ATOM     15  O   UNL     1       7.280   5.602  15.391  0.00  0.00    +0.000 OA
ENDBRANCH  10  11
ENDBRANCH   3  10
TORSDOF 3
ENDMDL
MODEL 6
REMARK VINA RESULT:      -6.0      2.244      5.798
REMARK  Name = 
REMARK  3 active torsions:
REMARK  status: ('A' for Active; 'I' for Inactive)
REMARK    1  A    between atoms: C_2  and  C_10
REMARK    2  A    between atoms: N_3  and  C_4
REMARK    3  A    between atoms: C_4  and  C_5
REMARK                            x       y       z     vdW  Elec       q    Type
REMARK                         _______ _______ _______ _____ _____    ______ ____
ROOT
ATOM      1  O   UNL     1       5.491   3.700  19.551  0.00  0.00    +0.000 OA
ATOM      2  C   UNL     1       4.498   4.122  18.966  0.00  0.00    +0.000 C 
ATOM      3  N   UNL     1       4.605   5.102  18.001  0.00  0.00    +0.000 N 
ATOM      4  H   UNL     1       3.795   5.333  17.442  0.00  0.00    +0.000 HD
ENDROOT
BRANCH   2   5
ATOM      5  C   UNL     1       3.161   3.619  19.253  0.00  0.00    +0.000 A 
ATOM      6  C   UNL     1       2.623   3.426  20.515  0.00  0.00    +0.000 A 
ATOM      7  C   UNL     1       1.296   2.915  20.480  0.00  0.00    +0.000 A 
ATOM      8  C   UNL     1       0.859   2.723  19.188  0.00  0.00    +0.000 A 
ATOM      9  S   UNL     1       2.044   3.169  18.035  0.00  0.00    +0.000 S 
ENDBRANCH   2   5
BRANCH   3  10
ATOM     10  C   UNL     1       5.905   5.539  17.551  0.00  0.00    +0.000 C 
BRANCH  10  11
ATOM     11  C   UNL     1       6.157   5.066  16.170  0.00  0.00    +0.000 A 
ATOM     12  C   UNL     1       5.450   4.237  15.322  0.00  0.00    +0.000 A 
ATOM     13  C   UNL     1       6.155   4.225  14.096  0.00  0.00    +0.000 A 
ATOM     14  C   UNL     1       7.255   5.032  14.277  0.00  0.00    +0.000 A 
ATOM     15  O   UNL     1       7.267   5.544  15.536  0.00  0.00    +0.000 OA
ENDBRANCH  10  11
ENDBRANCH   3  10
TORSDOF 3
ENDMDL
MODEL 7
REMARK VINA RESULT:      -6.0      1.919      2.379
REMARK  Name = 
REMARK  3 active torsions:
REMARK  status: ('A' for Active; 'I' for Inactive)
REMARK    1  A    between atoms: C_2  and  C_10
REMARK    2  A    between atoms: N_3  and  C_4
REMARK    3  A    between atoms: C_4  and  C_5
REMARK                            x       y       z     vdW  Elec       q    Type
REMARK                         _______ _______ _______ _____ _____    ______ ____
ROOT
ATOM      1  O   UNL     1       3.867   4.600  17.536  0.00  0.00    +0.000 OA
ATOM      2  C   UNL     1       4.893   4.448  18.195  0.00  0.00    +0.000 C 
ATOM      3  N   UNL     1       5.057   3.347  19.009  0.00  0.00    +0.000 N 
ATOM      4  H   UNL     1       5.960   3.178  19.433  0.00  0.00    +0.000 HD
ENDROOT
BRANCH   2   5
ATOM      5  C   UNL     1       5.984   5.412  18.156  0.00  0.00    +0.000 A 
ATOM      6  C   UNL     1       7.057   5.457  19.031  0.00  0.00    +0.000 A 
ATOM      7  C   UNL     1       7.962   6.517  18.746  0.00  0.00    +0.000 A 
ATOM      8  C   UNL     1       7.551   7.259  17.662  0.00  0.00    +0.000 A 
ATOM      9  S   UNL     1       6.089   6.667  16.995  0.00  0.00    +0.000 S 
ENDBRANCH   2   5
BRANCH   3  10
ATOM     10  C   UNL     1       4.092   2.275  18.984  0.00  0.00    +0.000 C 
BRANCH  10  11
ATOM     11  C   UNL     1       2.932   2.608  19.843  0.00  0.00    +0.000 A 
ATOM     12  C   UNL     1       1.596   2.822  19.569  0.00  0.00    +0.000 A 
ATOM     13  C   UNL     1       0.958   3.022  20.815  0.00  0.00    +0.000 A 
ATOM     14  C   UNL     1       1.946   2.934  21.769  0.00  0.00    +0.000 A 
ATOM     15  O   UNL     1       3.149   2.687  21.188  0.00  0.00    +0.000 OA
ENDBRANCH  10  11
ENDBRANCH   3  10
TORSDOF 3
ENDMDL
MODEL 8
REMARK VINA RESULT:      -6.0      2.383      5.780
REMARK  Name = 
REMARK  3 active torsions:
REMARK  status: ('A' for Active; 'I' for Inactive)
REMARK    1  A    between atoms: C_2  and  C_10
REMARK    2  A    between atoms: N_3  and  C_4
REMARK    3  A    between atoms: C_4  and  C_5
REMARK                            x       y       z     vdW  Elec       q    Type
REMARK                         _______ _______ _______ _____ _____    ______ ____
ROOT
ATOM      1  O   UNL     1       3.870   5.661  17.523  0.00  0.00    +0.000 OA
ATOM      2  C   UNL     1       4.019   4.534  17.989  0.00  0.00    +0.000 C 
ATOM      3  N   UNL     1       5.241   3.898  17.930  0.00  0.00    +0.000 N 
ATOM      4  H   UNL     1       5.371   3.033  18.438  0.00  0.00    +0.000 HD
ENDROOT
BRANCH   2   5
ATOM      5  C   UNL     1       2.925   3.812  18.625  0.00  0.00    +0.000 A 
ATOM      6  C   UNL     1       1.922   3.120  17.967  0.00  0.00    +0.000 A 
ATOM      7  C   UNL     1       0.987   2.520  18.856  0.00  0.00    +0.000 A 
ATOM      8  C   UNL     1       1.299   2.777  20.172  0.00  0.00    +0.000 A 
ATOM      9  S   UNL     1       2.716   3.727  20.323  0.00  0.00    +0.000 S 
ENDBRANCH   2   5
BRANCH   3  10
ATOM     10  C   UNL     1       6.407   4.605  17.457  0.00  0.00    +0.000 C 
BRANCH  10  11
ATOM     11  C   UNL     1       6.530   4.466  15.988  0.00  0.00    +0.000 A 
ATOM     12  C   UNL     1       5.903   3.649  15.068  0.00  0.00    +0.000 A 
ATOM     13  C   UNL     1       6.382   4.037  13.796  0.00  0.00    +0.000 A 
ATOM     14  C   UNL     1       7.282   5.053  14.018  0.00  0.00    +0.000 A 
ATOM     15  O   UNL     1       7.383   5.319  15.347  0.00  0.00    +0.000 OA
ENDBRANCH  10  11
ENDBRANCH   3  10
TORSDOF 3
ENDMDL
MODEL 9
REMARK VINA RESULT:      -6.0      1.344      1.445
REMARK  Name = 
REMARK  3 active torsions:
REMARK  status: ('A' for Active; 'I' for Inactive)
REMARK    1  A    between atoms: C_2  and  C_10
REMARK    2  A    between atoms: N_3  and  C_4
REMARK    3  A    between atoms: C_4  and  C_5
REMARK                            x       y       z     vdW  Elec       q    Type
REMARK                         _______ _______ _______ _____ _____    ______ ____
ROOT
ATOM      1  O   UNL     1       5.682   4.027  19.269  0.00  0.00    +0.000 OA
ATOM      2  C   UNL     1       5.109   4.582  18.335  0.00  0.00    +0.000 C 
ATOM      3  N   UNL     1       3.928   5.267  18.531  0.00  0.00    +0.000 N 
ATOM      4  H   UNL     1       3.552   5.825  17.777  0.00  0.00    +0.000 HD
ENDROOT
BRANCH   2   5
ATOM      5  C   UNL     1       5.639   4.549  16.978  0.00  0.00    +0.000 A 
ATOM      6  C   UNL     1       4.910   4.282  15.831  0.00  0.00    +0.000 A 
ATOM      7  C   UNL     1       5.703   4.313  14.650  0.00  0.00    +0.000 A 
ATOM      8  C   UNL     1       7.020   4.598  14.929  0.00  0.00    +0.000 A 
ATOM      9  S   UNL     1       7.286   4.833  16.604  0.00  0.00    +0.000 S 
ENDBRANCH   2   5
BRANCH   3  10
ATOM     10  C   UNL     1       3.423   5.475  19.866  0.00  0.00    +0.000 C 
BRANCH  10  11
ATOM     11  C   UNL     1       2.489   4.387  20.238  0.00  0.00    +0.000 A 
ATOM     12  C   UNL     1       2.213   3.759  21.436  0.00  0.00    +0.000 A 
ATOM     13  C   UNL     1       1.162   2.849  21.178  0.00  0.00    +0.000 A 
ATOM     14  C   UNL     1       0.874   2.965  19.837  0.00  0.00    +0.000 A 
ATOM     15  O   UNL     1       1.679   3.894  19.256  0.00  0.00    +0.000 OA
ENDBRANCH  10  11
ENDBRANCH   3  10
TORSDOF 3
ENDMDL
