MODEL 1
REMARK VINA RESULT:      -8.1      0.000      0.000
REMARK  Name = 
REMARK  5 active torsions:
REMARK  status: ('A' for Active; 'I' for Inactive)
REMARK    1  A    between atoms: C_2  and  C_3
REMARK    2  A    between atoms: C_3  and  S_4
REMARK    3  A    between atoms: S_4  and  C_5
REMARK    4  A    between atoms: N_23  and  C_24
REMARK    5  A    between atoms: C_27  and  N_28
REMARK                            x       y       z     vdW  Elec       q    Type
REMARK                         _______ _______ _______ _____ _____    ______ ____
ROOT
ATOM      1  C   UNL     1       4.024   6.780  17.438  0.00  0.00    +0.000 A 
ATOM      2  N   UNL     1       3.971   5.656  18.145  0.00  0.00    +0.000 NA
ATOM      3  C   UNL     1       3.117   5.667  19.153  0.00  0.00    +0.000 A 
ATOM      4  N   UNL     1       2.978   4.543  19.925  0.00  0.00    +0.000 N 
ATOM      5  C   UNL     1       3.731   3.322  19.665  0.00  0.00    +0.000 C 
ATOM      6  C   UNL     1       2.772   2.149  19.404  0.00  0.00    +0.000 C 
ATOM      7  O   UNL     1       1.784   2.022  20.440  0.00  0.00    +0.000 OA
ATOM      8  C   UNL     1       1.004   3.226  20.530  0.00  0.00    +0.000 C 
ATOM      9  C   UNL     1       1.881   4.434  20.887  0.00  0.00    +0.000 C 
ATOM     10  N   UNL     1       2.404   6.735  19.479  0.00  0.00    +0.000 NA
ATOM     11  C   UNL     1       2.538   7.835  18.745  0.00  0.00    +0.000 A 
ATOM     12  N   UNL     1       1.819   8.937  19.120  0.00  0.00    +0.000 N 
ATOM     13  C   UNL     1       1.035   8.974  20.353  0.00  0.00    +0.000 C 
ATOM     14  C   UNL     1      -0.380   9.485  20.035  0.00  0.00    +0.000 C 
ATOM     15  O   UNL     1      -0.341  10.750  19.352  0.00  0.00    +0.000 OA
ATOM     16  C   UNL     1       0.387  10.632  18.116  0.00  0.00    +0.000 C 
ATOM     17  C   UNL     1       1.837  10.176  18.351  0.00  0.00    +0.000 C 
ATOM     18  N   UNL     1       3.335   7.891  17.692  0.00  0.00    +0.000 NA
ENDROOT
BRANCH   1  19
ATOM     19  S   UNL     1       5.231   6.863  16.122  0.00  0.00    +0.000 S 
BRANCH  19  20
ATOM     20  C   UNL     1       6.654   6.052  16.941  0.00  0.00    +0.000 C 
BRANCH  20  22
ATOM     21  O   UNL     1       8.137   6.664  18.750  0.00  0.00    +0.000 OA
ATOM     22  C   UNL     1       7.464   7.034  17.784  0.00  0.00    +0.000 C 
ATOM     23  N   UNL     1       7.362   8.360  17.387  0.00  0.00    +0.000 N 
ATOM     24  H   UNL     1       6.686   8.602  16.672  0.00  0.00    +0.000 HD
BRANCH  23  25
ATOM     25  C   UNL     1       8.099   9.437  17.958  0.00  0.00    +0.000 A 
ATOM     26  C   UNL     1       8.947   9.270  19.062  0.00  0.00    +0.000 A 
ATOM     27  C   UNL     1       9.714  10.328  19.561  0.00  0.00    +0.000 A 
ATOM     28  C   UNL     1       9.632  11.582  18.956  0.00  0.00    +0.000 A 
ATOM     29  C   UNL     1       8.760  11.784  17.877  0.00  0.00    +0.000 A 
ATOM     30  C   UNL     1       8.002  10.711  17.382  0.00  0.00    +0.000 A 
BRANCH  28  31
ATOM     31  N   UNL     1      10.479  12.680  19.442  0.00  0.00    +0.000 N 
ATOM     32  O   UNL     1      11.419  12.396  20.196  0.00  0.00    +0.000 OA
ATOM     33  O   UNL     1      10.208  13.827  19.057  0.00  0.00    +0.000 OA
ENDBRANCH  28  31
ENDBRANCH  23  25
ENDBRANCH  20  22
ENDBRANCH  19  20
ENDBRANCH   1  19
TORSDOF 5
ENDMDL
MODEL 2
REMARK VINA RESULT:      -8.1      4.568      8.673
REMARK  Name = 
REMARK  5 active torsions:
REMARK  status: ('A' for Active; 'I' for Inactive)
REMARK    1  A    between atoms: C_2  and  C_3
REMARK    2  A    between atoms: C_3  and  S_4
REMARK    3  A    between atoms: S_4  and  C_5
REMARK    4  A    between atoms: N_23  and  C_24
REMARK    5  A    between atoms: C_27  and  N_28
REMARK                            x       y       z     vdW  Elec       q    Type
REMARK                         _______ _______ _______ _____ _____    ______ ____
ROOT
ATOM      1  C   UNL     1       0.075  11.711  19.568  0.00  0.00    +0.000 A 
ATOM      2  N   UNL     1      -0.591  11.680  20.718  0.00  0.00    +0.000 NA
ATOM      3  C   UNL     1      -0.384  12.714  21.515  0.00  0.00    +0.000 A 
ATOM      4  N   UNL     1      -1.045  12.779  22.714  0.00  0.00    +0.000 N 
ATOM      5  C   UNL     1      -1.986  11.750  23.140  0.00  0.00    +0.000 C 
ATOM      6  C   UNL     1      -3.374  12.365  23.384  0.00  0.00    +0.000 C 
ATOM      7  O   UNL     1      -3.311  13.504  24.258  0.00  0.00    +0.000 OA
ATOM      8  C   UNL     1      -2.466  14.518  23.689  0.00  0.00    +0.000 C 
ATOM      9  C   UNL     1      -1.030  14.010  23.504  0.00  0.00    +0.000 C 
ATOM     10  N   UNL     1       0.467  13.686  21.222  0.00  0.00    +0.000 NA
ATOM     11  C   UNL     1       1.123  13.629  20.068  0.00  0.00    +0.000 A 
ATOM     12  N   UNL     1       2.022  14.626  19.802  0.00  0.00    +0.000 N 
ATOM     13  C   UNL     1       2.370  15.646  20.788  0.00  0.00    +0.000 C 
ATOM     14  C   UNL     1       2.264  17.034  20.135  0.00  0.00    +0.000 C 
ATOM     15  O   UNL     1       3.056  17.114  18.937  0.00  0.00    +0.000 OA
ATOM     16  C   UNL     1       2.622  16.128  17.981  0.00  0.00    +0.000 C 
ATOM     17  C   UNL     1       2.749  14.700  18.539  0.00  0.00    +0.000 C 
ATOM     18  N   UNL     1       0.937  12.654  19.195  0.00  0.00    +0.000 NA
ENDROOT
BRANCH   1  19
ATOM     19  S   UNL     1      -0.086  10.293  18.491  0.00  0.00    +0.000 S 
BRANCH  19  20
ATOM     20  C   UNL     1       1.681   9.910  18.200  0.00  0.00    +0.000 C 
BRANCH  20  22
ATOM     21  O   UNL     1       1.819   8.227  19.931  0.00  0.00    +0.000 OA
ATOM     22  C   UNL     1       2.071   8.547  18.767  0.00  0.00    +0.000 C 
ATOM     23  N   UNL     1       2.742   7.720  17.876  0.00  0.00    +0.000 N 
ATOM     24  H   UNL     1       3.031   8.101  16.983  0.00  0.00    +0.000 HD
BRANCH  23  25
ATOM     25  C   UNL     1       3.118   6.373  18.145  0.00  0.00    +0.000 A 
ATOM     26  C   UNL     1       4.417   6.014  18.531  0.00  0.00    +0.000 A 
ATOM     27  C   UNL     1       4.744   4.694  18.858  0.00  0.00    +0.000 A 
ATOM     28  C   UNL     1       3.763   3.706  18.794  0.00  0.00    +0.000 A 
ATOM     29  C   UNL     1       2.466   4.033  18.370  0.00  0.00    +0.000 A 
ATOM     30  C   UNL     1       2.150   5.363  18.052  0.00  0.00    +0.000 A 
BRANCH  28  31
ATOM     31  N   UNL     1       4.089   2.330  19.191  0.00  0.00    +0.000 N 
ATOM     32  O   UNL     1       4.778   2.169  20.207  0.00  0.00    +0.000 OA
ATOM     33  O   UNL     1       3.645   1.409  18.489  0.00  0.00    +0.000 OA
ENDBRANCH  28  31
ENDBRANCH  23  25
ENDBRANCH  20  22
ENDBRANCH  19  20
ENDBRANCH   1  19
TORSDOF 5
ENDMDL
MODEL 3
REMARK VINA RESULT:      -8.0      0.294      1.009
REMARK  Name = 
REMARK  5 active torsions:
REMARK  status: ('A' for Active; 'I' for Inactive)
REMARK    1  A    between atoms: C_2  and  C_3
REMARK    2  A    between atoms: C_3  and  S_4
REMARK    3  A    between atoms: S_4  and  C_5
REMARK    4  A    between atoms: N_23  and  C_24
REMARK    5  A    between atoms: C_27  and  N_28
REMARK                            x       y       z     vdW  Elec       q    Type
REMARK                         _______ _______ _______ _____ _____    ______ ____
ROOT
ATOM      1  C   UNL     1       3.995   6.765  17.503  0.00  0.00    +0.000 A 
ATOM      2  N   UNL     1       3.979   5.656  18.235  0.00  0.00    +0.000 NA
ATOM      3  C   UNL     1       3.145   5.672  19.260  0.00  0.00    +0.000 A 
ATOM      4  N   UNL     1       3.045   4.563  20.060  0.00  0.00    +0.000 N 
ATOM      5  C   UNL     1       3.818   3.352  19.812  0.00  0.00    +0.000 C 
ATOM      6  C   UNL     1       2.879   2.154  19.596  0.00  0.00    +0.000 C 
ATOM      7  O   UNL     1       1.914   2.031  20.654  0.00  0.00    +0.000 OA
ATOM      8  C   UNL     1       1.111   3.220  20.734  0.00  0.00    +0.000 C 
ATOM      9  C   UNL     1       1.970   4.454  21.046  0.00  0.00    +0.000 C 
ATOM     10  N   UNL     1       2.417   6.733  19.577  0.00  0.00    +0.000 NA
ATOM     11  C   UNL     1       2.514   7.818  18.816  0.00  0.00    +0.000 A 
ATOM     12  N   UNL     1       1.779   8.914  19.181  0.00  0.00    +0.000 N 
ATOM     13  C   UNL     1       1.020   8.963  20.428  0.00  0.00    +0.000 C 
ATOM     14  C   UNL     1      -0.411   9.438  20.128  0.00  0.00    +0.000 C 
ATOM     15  O   UNL     1      -0.413  10.687  19.417  0.00  0.00    +0.000 OA
ATOM     16  C   UNL     1       0.293  10.556  18.169  0.00  0.00    +0.000 C 
ATOM     17  C   UNL     1       1.757  10.135  18.384  0.00  0.00    +0.000 C 
ATOM     18  N   UNL     1       3.288   7.866  17.746  0.00  0.00    +0.000 NA
ENDROOT
BRANCH   1  19
ATOM     19  S   UNL     1       5.174   6.842  16.161  0.00  0.00    +0.000 S 
BRANCH  19  20
ATOM     20  C   UNL     1       6.617   6.042  16.955  0.00  0.00    +0.000 C 
BRANCH  20  22
ATOM     21  O   UNL     1       8.089   6.676  18.766  0.00  0.00    +0.000 OA
ATOM     22  C   UNL     1       7.436   7.031  17.781  0.00  0.00    +0.000 C 
ATOM     23  N   UNL     1       7.366   8.348  17.345  0.00  0.00    +0.000 N 
ATOM     24  H   UNL     1       6.704   8.583  16.615  0.00  0.00    +0.000 HD
BRANCH  23  25
ATOM     25  C   UNL     1       8.117   9.425  17.895  0.00  0.00    +0.000 A 
ATOM     26  C   UNL     1       8.080  10.721  17.361  0.00  0.00    +0.000 A 
ATOM     27  C   UNL     1       8.773  11.779  17.961  0.00  0.00    +0.000 A 
ATOM     28  C   UNL     1       9.524  11.544  19.112  0.00  0.00    +0.000 A 
ATOM     29  C   UNL     1       9.610  10.248  19.640  0.00  0.00    +0.000 A 
ATOM     30  C   UNL     1       8.904   9.197  19.033  0.00  0.00    +0.000 A 
BRANCH  28  31
ATOM     31  N   UNL     1      10.206  12.663  19.776  0.00  0.00    +0.000 N 
ATOM     32  O   UNL     1      10.609  13.596  19.070  0.00  0.00    +0.000 OA
ATOM     33  O   UNL     1      10.327  12.611  21.009  0.00  0.00    +0.000 OA
ENDBRANCH  28  31
ENDBRANCH  23  25
ENDBRANCH  20  22
ENDBRANCH  19  20
ENDBRANCH   1  19
TORSDOF 5
ENDMDL
MODEL 4
REMARK VINA RESULT:      -7.8      5.381      8.946
REMARK  Name = 
REMARK  5 active torsions:
REMARK  status: ('A' for Active; 'I' for Inactive)
REMARK    1  A    between atoms: C_2  and  C_3
REMARK    2  A    between atoms: C_3  and  S_4
REMARK    3  A    between atoms: S_4  and  C_5
REMARK    4  A    between atoms: N_23  and  C_24
REMARK    5  A    between atoms: C_27  and  N_28
REMARK                            x       y       z     vdW  Elec       q    Type
REMARK                         _______ _______ _______ _____ _____    ______ ____
ROOT
ATOM      1  C   UNL     1      -0.437  11.812  20.162  0.00  0.00    +0.000 A 
ATOM      2  N   UNL     1      -1.053  11.153  19.187  0.00  0.00    +0.000 NA
ATOM      3  C   UNL     1      -2.355  11.365  19.102  0.00  0.00    +0.000 A 
ATOM      4  N   UNL     1      -3.072  10.744  18.112  0.00  0.00    +0.000 N 
ATOM      5  C   UNL     1      -2.445   9.864  17.132  0.00  0.00    +0.000 C 
ATOM      6  C   UNL     1      -2.683  10.395  15.710  0.00  0.00    +0.000 C 
ATOM      7  O   UNL     1      -4.074  10.658  15.460  0.00  0.00    +0.000 OA
ATOM      8  C   UNL     1      -4.568  11.636  16.391  0.00  0.00    +0.000 C 
ATOM      9  C   UNL     1      -4.454  11.137  17.838  0.00  0.00    +0.000 C 
ATOM     10  N   UNL     1      -3.015  12.130  19.958  0.00  0.00    +0.000 NA
ATOM     11  C   UNL     1      -2.334  12.729  20.929  0.00  0.00    +0.000 A 
ATOM     12  N   UNL     1      -3.040  13.487  21.823  0.00  0.00    +0.000 N 
ATOM     13  C   UNL     1      -4.501  13.541  21.817  0.00  0.00    +0.000 C 
ATOM     14  C   UNL     1      -4.950  15.011  21.850  0.00  0.00    +0.000 C 
ATOM     15  O   UNL     1      -4.364  15.716  22.958  0.00  0.00    +0.000 OA
ATOM     16  C   UNL     1      -2.927  15.682  22.871  0.00  0.00    +0.000 C 
ATOM     17  C   UNL     1      -2.389  14.242  22.888  0.00  0.00    +0.000 C 
ATOM     18  N   UNL     1      -1.024  12.607  21.054  0.00  0.00    +0.000 NA
ENDROOT
BRANCH   1  19
ATOM     19  S   UNL     1       1.307  11.493  20.391  0.00  0.00    +0.000 S 
BRANCH  19  20
ATOM     20  C   UNL     1       1.225   9.904  21.297  0.00  0.00    +0.000 C 
BRANCH  20  22
ATOM     21  O   UNL     1       1.367   8.812  19.145  0.00  0.00    +0.000 OA
ATOM     22  C   UNL     1       1.426   8.706  20.372  0.00  0.00    +0.000 C 
ATOM     23  N   UNL     1       1.658   7.503  21.025  0.00  0.00    +0.000 N 
ATOM     24  H   UNL     1       1.559   7.470  22.033  0.00  0.00    +0.000 HD
BRANCH  23  25
ATOM     25  C   UNL     1       1.970   6.274  20.374  0.00  0.00    +0.000 A 
ATOM     26  C   UNL     1       1.250   5.093  20.607  0.00  0.00    +0.000 A 
ATOM     27  C   UNL     1       1.531   3.916  19.904  0.00  0.00    +0.000 A 
ATOM     28  C   UNL     1       2.551   3.909  18.955  0.00  0.00    +0.000 A 
ATOM     29  C   UNL     1       3.312   5.067  18.734  0.00  0.00    +0.000 A 
ATOM     30  C   UNL     1       3.015   6.242  19.441  0.00  0.00    +0.000 A 
BRANCH  28  31
ATOM     31  N   UNL     1       2.810   2.691  18.175  0.00  0.00    +0.000 N 
ATOM     32  O   UNL     1       2.221   2.560  17.094  0.00  0.00    +0.000 OA
ATOM     33  O   UNL     1       3.614   1.870  18.642  0.00  0.00    +0.000 OA
ENDBRANCH  28  31
ENDBRANCH  23  25
ENDBRANCH  20  22
ENDBRANCH  19  20
ENDBRANCH   1  19
TORSDOF 5
ENDMDL
MODEL 5
REMARK VINA RESULT:      -7.8      4.958      9.067
REMARK  Name = 
REMARK  5 active torsions:
REMARK  status: ('A' for Active; 'I' for Inactive)
REMARK    1  A    between atoms: C_2  and  C_3
REMARK    2  A    between atoms: C_3  and  S_4
REMARK    3  A    between atoms: S_4  and  C_5
REMARK    4  A    between atoms: N_23  and  C_24
REMARK    5  A    between atoms: C_27  and  N_28
REMARK                            x       y       z     vdW  Elec       q    Type
REMARK                         _______ _______ _______ _____ _____    ______ ____
ROOT
ATOM      1  C   UNL     1       0.536  12.050  19.841  0.00  0.00    +0.000 A 
ATOM      2  N   UNL     1      -0.218  11.978  20.932  0.00  0.00    +0.000 NA
ATOM      3  C   UNL     1      -0.246  13.074  21.670  0.00  0.00    +0.000 A 
ATOM      4  N   UNL     1      -1.015  13.100  22.804  0.00  0.00    +0.000 N 
ATOM      5  C   UNL     1      -1.822  11.961  23.223  0.00  0.00    +0.000 C 
ATOM      6  C   UNL     1      -3.304  12.360  23.311  0.00  0.00    +0.000 C 
ATOM      7  O   UNL     1      -3.495  13.542  24.107  0.00  0.00    +0.000 OA
ATOM      8  C   UNL     1      -2.767  14.644  23.540  0.00  0.00    +0.000 C 
ATOM      9  C   UNL     1      -1.259  14.360  23.507  0.00  0.00    +0.000 C 
ATOM     10  N   UNL     1       0.470  14.152  21.381  0.00  0.00    +0.000 NA
ATOM     11  C   UNL     1       1.228  14.135  20.290  0.00  0.00    +0.000 A 
ATOM     12  N   UNL     1       1.985  15.245  20.030  0.00  0.00    +0.000 N 
ATOM     13  C   UNL     1       2.082  16.361  20.968  0.00  0.00    +0.000 C 
ATOM     14  C   UNL     1       1.825  17.676  20.214  0.00  0.00    +0.000 C 
ATOM     15  O   UNL     1       2.700  17.814  19.082  0.00  0.00    +0.000 OA
ATOM     16  C   UNL     1       2.511  16.721  18.165  0.00  0.00    +0.000 C 
ATOM     17  C   UNL     1       2.803  15.364  18.828  0.00  0.00    +0.000 C 
ATOM     18  N   UNL     1       1.274  13.096  19.474  0.00  0.00    +0.000 NA
ENDROOT
BRANCH   1  19
ATOM     19  S   UNL     1       0.692  10.568  18.854  0.00  0.00    +0.000 S 
BRANCH  19  20
ATOM     20  C   UNL     1       1.216   9.378  20.144  0.00  0.00    +0.000 C 
BRANCH  20  22
ATOM     21  O   UNL     1       1.924   7.941  18.334  0.00  0.00    +0.000 OA
ATOM     22  C   UNL     1       1.723   8.070  19.544  0.00  0.00    +0.000 C 
ATOM     23  N   UNL     1       1.916   7.047  20.463  0.00  0.00    +0.000 N 
ATOM     24  H   UNL     1       1.602   7.186  21.417  0.00  0.00    +0.000 HD
BRANCH  23  25
ATOM     25  C   UNL     1       2.473   5.773  20.154  0.00  0.00    +0.000 A 
ATOM     26  C   UNL     1       3.729   5.625  19.549  0.00  0.00    +0.000 A 
ATOM     27  C   UNL     1       4.285   4.361  19.320  0.00  0.00    +0.000 A 
ATOM     28  C   UNL     1       3.576   3.220  19.692  0.00  0.00    +0.000 A 
ATOM     29  C   UNL     1       2.300   3.342  20.262  0.00  0.00    +0.000 A 
ATOM     30  C   UNL     1       1.758   4.616  20.493  0.00  0.00    +0.000 A 
BRANCH  28  31
ATOM     31  N   UNL     1       4.182   1.895  19.505  0.00  0.00    +0.000 N 
ATOM     32  O   UNL     1       5.116   1.575  20.252  0.00  0.00    +0.000 OA
ATOM     33  O   UNL     1       3.712   1.170  18.615  0.00  0.00    +0.000 OA
ENDBRANCH  28  31
ENDBRANCH  23  25
ENDBRANCH  20  22
ENDBRANCH  19  20
ENDBRANCH   1  19
TORSDOF 5
ENDMDL
MODEL 6
REMARK VINA RESULT:      -7.7      4.426      8.629
REMARK  Name = 
REMARK  5 active torsions:
REMARK  status: ('A' for Active; 'I' for Inactive)
REMARK    1  A    between atoms: C_2  and  C_3
REMARK    2  A    between atoms: C_3  and  S_4
REMARK    3  A    between atoms: S_4  and  C_5
REMARK    4  A    between atoms: N_23  and  C_24
REMARK    5  A    between atoms: C_27  and  N_28
REMARK                            x       y       z     vdW  Elec       q    Type
REMARK                         _______ _______ _______ _____ _____    ______ ____
ROOT
ATOM      1  C   UNL     1       0.446  11.389  19.793  0.00  0.00    +0.000 A 
ATOM      2  N   UNL     1      -0.348  11.462  20.856  0.00  0.00    +0.000 NA
ATOM      3  C   UNL     1      -0.161  12.520  21.626  0.00  0.00    +0.000 A 
ATOM      4  N   UNL     1      -0.950  12.690  22.734  0.00  0.00    +0.000 N 
ATOM      5  C   UNL     1      -2.006  11.750  23.090  0.00  0.00    +0.000 C 
ATOM      6  C   UNL     1      -3.364  12.467  23.141  0.00  0.00    +0.000 C 
ATOM      7  O   UNL     1      -3.320  13.644  23.965  0.00  0.00    +0.000 OA
ATOM      8  C   UNL     1      -2.345  14.569  23.457  0.00  0.00    +0.000 C 
ATOM      9  C   UNL     1      -0.937  13.957  23.466  0.00  0.00    +0.000 C 
ATOM     10  N   UNL     1       0.786  13.417  21.395  0.00  0.00    +0.000 NA
ATOM     11  C   UNL     1       1.564  13.257  20.330  0.00  0.00    +0.000 A 
ATOM     12  N   UNL     1       2.558  14.176  20.129  0.00  0.00    +0.000 N 
ATOM     13  C   UNL     1       2.862  15.221  21.104  0.00  0.00    +0.000 C 
ATOM     14  C   UNL     1       2.933  16.577  20.383  0.00  0.00    +0.000 C 
ATOM     15  O   UNL     1       3.862  16.543  19.286  0.00  0.00    +0.000 OA
ATOM     16  C   UNL     1       3.471  15.540  18.329  0.00  0.00    +0.000 C 
ATOM     17  C   UNL     1       3.429  14.137  18.959  0.00  0.00    +0.000 C 
ATOM     18  N   UNL     1       1.411  12.253  19.484  0.00  0.00    +0.000 NA
ENDROOT
BRANCH   1  19
ATOM     19  S   UNL     1       0.308   9.932  18.767  0.00  0.00    +0.000 S 
BRANCH  19  20
ATOM     20  C   UNL     1       2.022   9.827  18.128  0.00  0.00    +0.000 C 
BRANCH  20  22
ATOM     21  O   UNL     1       3.042   7.956  16.987  0.00  0.00    +0.000 OA
ATOM     22  C   UNL     1       2.501   8.383  18.010  0.00  0.00    +0.000 C 
ATOM     23  N   UNL     1       2.259   7.599  19.131  0.00  0.00    +0.000 N 
ATOM     24  H   UNL     1       1.691   7.982  19.878  0.00  0.00    +0.000 HD
BRANCH  23  25
ATOM     25  C   UNL     1       2.701   6.254  19.291  0.00  0.00    +0.000 A 
ATOM     26  C   UNL     1       1.813   5.187  19.487  0.00  0.00    +0.000 A 
ATOM     27  C   UNL     1       2.267   3.866  19.571  0.00  0.00    +0.000 A 
ATOM     28  C   UNL     1       3.631   3.599  19.466  0.00  0.00    +0.000 A 
ATOM     29  C   UNL     1       4.542   4.654  19.310  0.00  0.00    +0.000 A 
ATOM     30  C   UNL     1       4.073   5.974  19.220  0.00  0.00    +0.000 A 
BRANCH  28  31
ATOM     31  N   UNL     1       4.105   2.209  19.497  0.00  0.00    +0.000 N 
ATOM     32  O   UNL     1       4.917   1.894  20.376  0.00  0.00    +0.000 OA
ATOM     33  O   UNL     1       3.653   1.429  18.645  0.00  0.00    +0.000 OA
ENDBRANCH  28  31
ENDBRANCH  23  25
ENDBRANCH  20  22
ENDBRANCH  19  20
ENDBRANCH   1  19
TORSDOF 5
ENDMDL
MODEL 7
REMARK VINA RESULT:      -7.7      4.331      8.944
REMARK  Name = 
REMARK  5 active torsions:
REMARK  status: ('A' for Active; 'I' for Inactive)
REMARK    1  A    between atoms: C_2  and  C_3
REMARK    2  A    between atoms: C_3  and  S_4
REMARK    3  A    between atoms: S_4  and  C_5
REMARK    4  A    between atoms: N_23  and  C_24
REMARK    5  A    between atoms: C_27  and  N_28
REMARK                            x       y       z     vdW  Elec       q    Type
REMARK                         _______ _______ _______ _____ _____    ______ ____
ROOT
ATOM      1  C   UNL     1      -0.194  11.647  19.302  0.00  0.00    +0.000 A 
ATOM      2  N   UNL     1       0.726  12.525  18.919  0.00  0.00    +0.000 NA
ATOM      3  C   UNL     1       0.677  13.694  19.533  0.00  0.00    +0.000 A 
ATOM      4  N   UNL     1       1.601  14.657  19.218  0.00  0.00    +0.000 N 
ATOM      5  C   UNL     1       2.653  14.432  18.234  0.00  0.00    +0.000 C 
ATOM      6  C   UNL     1       4.036  14.615  18.880  0.00  0.00    +0.000 C 
ATOM      7  O   UNL     1       4.141  15.866  19.580  0.00  0.00    +0.000 OA
ATOM      8  C   UNL     1       3.149  15.938  20.618  0.00  0.00    +0.000 C 
ATOM      9  C   UNL     1       1.729  15.860  20.040  0.00  0.00    +0.000 C 
ATOM     10  N   UNL     1      -0.254  13.998  20.426  0.00  0.00    +0.000 NA
ATOM     11  C   UNL     1      -1.162  13.078  20.732  0.00  0.00    +0.000 A 
ATOM     12  N   UNL     1      -2.135  13.423  21.631  0.00  0.00    +0.000 N 
ATOM     13  C   UNL     1      -2.275  14.785  22.142  0.00  0.00    +0.000 C 
ATOM     14  C   UNL     1      -2.378  14.738  23.676  0.00  0.00    +0.000 C 
ATOM     15  O   UNL     1      -3.434  13.862  24.106  0.00  0.00    +0.000 OA
ATOM     16  C   UNL     1      -3.204  12.524  23.625  0.00  0.00    +0.000 C 
ATOM     17  C   UNL     1      -3.143  12.474  22.090  0.00  0.00    +0.000 C 
ATOM     18  N   UNL     1      -1.154  11.868  20.198  0.00  0.00    +0.000 NA
ENDROOT
BRANCH   1  19
ATOM     19  S   UNL     1      -0.243  10.082  18.439  0.00  0.00    +0.000 S 
BRANCH  19  20
ATOM     20  C   UNL     1       1.551   9.783  18.218  0.00  0.00    +0.000 C 
BRANCH  20  22
ATOM     21  O   UNL     1       1.783   8.135  19.972  0.00  0.00    +0.000 OA
ATOM     22  C   UNL     1       1.981   8.436  18.792  0.00  0.00    +0.000 C 
ATOM     23  N   UNL     1       2.622   7.599  17.888  0.00  0.00    +0.000 N 
ATOM     24  H   UNL     1       2.868   7.967  16.977  0.00  0.00    +0.000 HD
BRANCH  23  25
ATOM     25  C   UNL     1       3.025   6.262  18.166  0.00  0.00    +0.000 A 
ATOM     26  C   UNL     1       4.304   5.943  18.645  0.00  0.00    +0.000 A 
ATOM     27  C   UNL     1       4.653   4.629  18.976  0.00  0.00    +0.000 A 
ATOM     28  C   UNL     1       3.716   3.609  18.823  0.00  0.00    +0.000 A 
ATOM     29  C   UNL     1       2.444   3.897  18.307  0.00  0.00    +0.000 A 
ATOM     30  C   UNL     1       2.104   5.220  17.986  0.00  0.00    +0.000 A 
BRANCH  28  31
ATOM     31  N   UNL     1       4.060   2.238  19.224  0.00  0.00    +0.000 N 
ATOM     32  O   UNL     1       3.581   1.305  18.567  0.00  0.00    +0.000 OA
ATOM     33  O   UNL     1       4.821   2.097  20.194  0.00  0.00    +0.000 OA
ENDBRANCH  28  31
ENDBRANCH  23  25
ENDBRANCH  20  22
ENDBRANCH  19  20
ENDBRANCH   1  19
TORSDOF 5
ENDMDL
MODEL 8
REMARK VINA RESULT:      -7.7      0.760      4.475
REMARK  Name = 
REMARK  5 active torsions:
REMARK  status: ('A' for Active; 'I' for Inactive)
REMARK    1  A    between atoms: C_2  and  C_3
REMARK    2  A    between atoms: C_3  and  S_4
REMARK    3  A    between atoms: S_4  and  C_5
REMARK    4  A    between atoms: N_23  and  C_24
REMARK    5  A    between atoms: C_27  and  N_28
REMARK                            x       y       z     vdW  Elec       q    Type
REMARK                         _______ _______ _______ _____ _____    ______ ____
ROOT
ATOM      1  C   UNL     1       4.181   6.689  17.378  0.00  0.00    +0.000 A 
ATOM      2  N   UNL     1       3.400   7.749  17.557  0.00  0.00    +0.000 NA
ATOM      3  C   UNL     1       2.470   7.609  18.486  0.00  0.00    +0.000 A 
ATOM      4  N   UNL     1       1.629   8.658  18.756  0.00  0.00    +0.000 N 
ATOM      5  C   UNL     1       1.733   9.937  18.064  0.00  0.00    +0.000 C 
ATOM      6  C   UNL     1       1.985  11.070  19.072  0.00  0.00    +0.000 C 
ATOM      7  O   UNL     1       1.029  11.057  20.145  0.00  0.00    +0.000 OA
ATOM      8  C   UNL     1       1.094   9.807  20.851  0.00  0.00    +0.000 C 
ATOM      9  C   UNL     1       0.757   8.626  19.930  0.00  0.00    +0.000 C 
ATOM     10  N   UNL     1       2.285   6.479  19.153  0.00  0.00    +0.000 NA
ATOM     11  C   UNL     1       3.085   5.451  18.892  0.00  0.00    +0.000 A 
ATOM     12  N   UNL     1       2.856   4.283  19.567  0.00  0.00    +0.000 N 
ATOM     13  C   UNL     1       1.699   4.102  20.441  0.00  0.00    +0.000 C 
ATOM     14  C   UNL     1       2.171   3.538  21.791  0.00  0.00    +0.000 C 
ATOM     15  O   UNL     1       2.941   2.336  21.619  0.00  0.00    +0.000 OA
ATOM     16  C   UNL     1       4.100   2.594  20.804  0.00  0.00    +0.000 C 
ATOM     17  C   UNL     1       3.711   3.112  19.409  0.00  0.00    +0.000 C 
ATOM     18  N   UNL     1       4.070   5.525  18.013  0.00  0.00    +0.000 NA
ENDROOT
BRANCH   1  19
ATOM     19  S   UNL     1       5.395   6.781  16.068  0.00  0.00    +0.000 S 
BRANCH  19  20
ATOM     20  C   UNL     1       6.843   6.054  16.922  0.00  0.00    +0.000 C 
BRANCH  20  22
ATOM     21  O   UNL     1       8.100   6.744  18.869  0.00  0.00    +0.000 OA
ATOM     22  C   UNL     1       7.551   7.071  17.814  0.00  0.00    +0.000 C 
ATOM     23  N   UNL     1       7.504   8.379  17.351  0.00  0.00    +0.000 N 
ATOM     24  H   UNL     1       6.921   8.590  16.550  0.00  0.00    +0.000 HD
BRANCH  23  25
ATOM     25  C   UNL     1       8.173   9.479  17.960  0.00  0.00    +0.000 A 
ATOM     26  C   UNL     1       8.976   9.337  19.101  0.00  0.00    +0.000 A 
ATOM     27  C   UNL     1       9.678  10.421  19.639  0.00  0.00    +0.000 A 
ATOM     28  C   UNL     1       9.577  11.674  19.037  0.00  0.00    +0.000 A 
ATOM     29  C   UNL     1       8.747  11.850  17.920  0.00  0.00    +0.000 A 
ATOM     30  C   UNL     1       8.054  10.753  17.385  0.00  0.00    +0.000 A 
BRANCH  28  31
ATOM     31  N   UNL     1      10.358  12.800  19.566  0.00  0.00    +0.000 N 
ATOM     32  O   UNL     1      11.513  12.950  19.147  0.00  0.00    +0.000 OA
ATOM     33  O   UNL     1       9.808  13.542  20.394  0.00  0.00    +0.000 OA
ENDBRANCH  28  31
ENDBRANCH  23  25
ENDBRANCH  20  22
ENDBRANCH  19  20
ENDBRANCH   1  19
TORSDOF 5
ENDMDL
MODEL 9
REMARK VINA RESULT:      -7.6      4.464      8.886
REMARK  Name = 
REMARK  5 active torsions:
REMARK  status: ('A' for Active; 'I' for Inactive)
REMARK    1  A    between atoms: C_2  and  C_3
REMARK    2  A    between atoms: C_3  and  S_4
REMARK    3  A    between atoms: S_4  and  C_5
REMARK    4  A    between atoms: N_23  and  C_24
REMARK    5  A    between atoms: C_27  and  N_28
REMARK                            x       y       z     vdW  Elec       q    Type
REMARK                         _______ _______ _______ _____ _____    ______ ____
ROOT
ATOM      1  C   UNL     1      -0.185  11.488  20.244  0.00  0.00    +0.000 A 
ATOM      2  N   UNL     1      -1.009  11.640  21.275  0.00  0.00    +0.000 NA
ATOM      3  C   UNL     1      -0.728  12.654  22.074  0.00  0.00    +0.000 A 
ATOM      4  N   UNL     1      -1.536  12.901  23.154  0.00  0.00    +0.000 N 
ATOM      5  C   UNL     1      -2.712  12.091  23.447  0.00  0.00    +0.000 C 
ATOM      6  C   UNL     1      -3.974  12.968  23.459  0.00  0.00    +0.000 C 
ATOM      7  O   UNL     1      -3.823  14.116  24.310  0.00  0.00    +0.000 OA
ATOM      8  C   UNL     1      -2.722  14.924  23.861  0.00  0.00    +0.000 C 
ATOM      9  C   UNL     1      -1.400  14.145  23.913  0.00  0.00    +0.000 C 
ATOM     10  N   UNL     1       0.330  13.433  21.901  0.00  0.00    +0.000 NA
ATOM     11  C   UNL     1       1.128  13.197  20.864  0.00  0.00    +0.000 A 
ATOM     12  N   UNL     1       2.234  13.990  20.723  0.00  0.00    +0.000 N 
ATOM     13  C   UNL     1       2.621  14.974  21.732  0.00  0.00    +0.000 C 
ATOM     14  C   UNL     1       2.886  16.323  21.044  0.00  0.00    +0.000 C 
ATOM     15  O   UNL     1       3.849  16.193  19.984  0.00  0.00    +0.000 OA
ATOM     16  C   UNL     1       3.380  15.262  18.991  0.00  0.00    +0.000 C 
ATOM     17  C   UNL     1       3.142  13.865  19.589  0.00  0.00    +0.000 C 
ATOM     18  N   UNL     1       0.890  12.232  19.992  0.00  0.00    +0.000 NA
ENDROOT
BRANCH   1  19
ATOM     19  S   UNL     1      -0.455  10.076  19.182  0.00  0.00    +0.000 S 
BRANCH  19  20
ATOM     20  C   UNL     1       1.267   9.730  18.665  0.00  0.00    +0.000 C 
BRANCH  20  22
ATOM     21  O   UNL     1       1.776   8.241  20.501  0.00  0.00    +0.000 OA
ATOM     22  C   UNL     1       1.802   8.441  19.285  0.00  0.00    +0.000 C 
ATOM     23  N   UNL     1       2.332   7.537  18.374  0.00  0.00    +0.000 N 
ATOM     24  H   UNL     1       2.442   7.827  17.409  0.00  0.00    +0.000 HD
BRANCH  23  25
ATOM     25  C   UNL     1       2.799   6.232  18.703  0.00  0.00    +0.000 A 
ATOM     26  C   UNL     1       2.090   5.368  19.550  0.00  0.00    +0.000 A 
ATOM     27  C   UNL     1       2.535   4.066  19.803  0.00  0.00    +0.000 A 
ATOM     28  C   UNL     1       3.712   3.613  19.209  0.00  0.00    +0.000 A 
ATOM     29  C   UNL     1       4.460   4.473  18.391  0.00  0.00    +0.000 A 
ATOM     30  C   UNL     1       3.998   5.775  18.140  0.00  0.00    +0.000 A 
BRANCH  28  31
ATOM     31  N   UNL     1       4.151   2.229  19.427  0.00  0.00    +0.000 N 
ATOM     32  O   UNL     1       3.735   1.360  18.649  0.00  0.00    +0.000 OA
ATOM     33  O   UNL     1       4.923   2.013  20.374  0.00  0.00    +0.000 OA
ENDBRANCH  28  31
ENDBRANCH  23  25
ENDBRANCH  20  22
ENDBRANCH  19  20
ENDBRANCH   1  19
TORSDOF 5
ENDMDL
