MODEL 1
REMARK VINA RESULT:      -6.0      0.000      0.000
REMARK  Name = 
REMARK  7 active torsions:
REMARK  status: ('A' for Active; 'I' for Inactive)
REMARK    1  A    between atoms: C_1  and  C_2
REMARK    2  A    between atoms: C_2  and  C_3
REMARK    3  A    between atoms: C_3  and  C_4
REMARK    4  A    between atoms: C_4  and  C_5
REMARK    5  A    between atoms: C_5  and  O_6
REMARK    6  A    between atoms: O_6  and  C_7
REMARK    7  A    between atoms: C_10  and  C_11
REMARK                            x       y       z     vdW  Elec       q    Type
REMARK                         _______ _______ _______ _____ _____    ______ ____
ROOT
ATOM      1  C   UNL     1       3.401   5.518  18.917  0.00  0.00    +0.000 A 
ATOM      2  C   UNL     1       4.585   5.354  19.642  0.00  0.00    +0.000 A 
ATOM      3  C   UNL     1       5.783   5.057  18.992  0.00  0.00    +0.000 A 
ATOM      4  C   UNL     1       5.812   4.916  17.605  0.00  0.00    +0.000 A 
ATOM      5  C   UNL     1       4.632   5.074  16.868  0.00  0.00    +0.000 A 
ATOM      6  C   UNL     1       3.431   5.372  17.527  0.00  0.00    +0.000 A 
ENDROOT
BRANCH   4   7
ATOM      7  C   UNL     1       7.113   4.618  16.949  0.00  0.00    +0.000 C 
ATOM      8  N   UNL     1       7.309   4.753  15.674  0.00  0.00    +0.000 NA
ATOM      9  N   UNL     1       8.169   4.178  17.688  0.00  0.00    +0.000 N 
ATOM     10  H   UNL     1       6.451   5.036  15.194  0.00  0.00    +0.000 HD
ATOM     11  H   UNL     1       8.263   4.578  18.613  0.00  0.00    +0.000 HD
ATOM     12  H   UNL     1       9.031   4.215  17.153  0.00  0.00    +0.000 HD
ENDBRANCH   4   7
BRANCH   1  13
ATOM     13  O   UNL     1       2.177   5.818  19.464  0.00  0.00    +0.000 OA
BRANCH  13  14
ATOM     14  C   UNL     1       1.839   5.052  20.622  0.00  0.00    +0.000 C 
BRANCH  14  15
ATOM     15  C   UNL     1       0.913   3.894  20.264  0.00  0.00    +0.000 C 
BRANCH  15  16
ATOM     16  C   UNL     1       1.696   2.580  20.325  0.00  0.00    +0.000 C 
BRANCH  16  18
ATOM     17  C   UNL     1       3.375   1.759  18.645  0.00  0.00    +0.000 C 
ATOM     18  C   UNL     1       1.898   1.964  18.945  0.00  0.00    +0.000 C 
ENDBRANCH  16  18
ENDBRANCH  15  16
ENDBRANCH  14  15
ENDBRANCH  13  14
ENDBRANCH   1  13
TORSDOF 6
ENDMDL
MODEL 2
REMARK VINA RESULT:      -6.0      1.665      2.054
REMARK  Name = 
REMARK  7 active torsions:
REMARK  status: ('A' for Active; 'I' for Inactive)
REMARK    1  A    between atoms: C_1  and  C_2
REMARK    2  A    between atoms: C_2  and  C_3
REMARK    3  A    between atoms: C_3  and  C_4
REMARK    4  A    between atoms: C_4  and  C_5
REMARK    5  A    between atoms: C_5  and  O_6
REMARK    6  A    between atoms: O_6  and  C_7
REMARK    7  A    between atoms: C_10  and  C_11
REMARK                            x       y       z     vdW  Elec       q    Type
REMARK                         _______ _______ _______ _____ _____    ______ ____
ROOT
ATOM      1  C   UNL     1       3.511   5.492  17.766  0.00  0.00    +0.000 A 
ATOM      2  C   UNL     1       3.767   4.190  17.327  0.00  0.00    +0.000 A 
ATOM      3  C   UNL     1       4.732   3.943  16.351  0.00  0.00    +0.000 A 
ATOM      4  C   UNL     1       5.455   5.000  15.798  0.00  0.00    +0.000 A 
ATOM      5  C   UNL     1       5.205   6.310  16.226  0.00  0.00    +0.000 A 
ATOM      6  C   UNL     1       4.233   6.551  17.206  0.00  0.00    +0.000 A 
ENDROOT
BRANCH   4   7
ATOM      7  C   UNL     1       6.489   4.693  14.774  0.00  0.00    +0.000 C 
ATOM      8  N   UNL     1       7.572   5.392  14.632  0.00  0.00    +0.000 NA
ATOM      9  N   UNL     1       6.324   3.639  13.927  0.00  0.00    +0.000 N 
ATOM     10  H   UNL     1       7.586   6.191  15.272  0.00  0.00    +0.000 HD
ATOM     11  H   UNL     1       5.885   2.816  14.320  0.00  0.00    +0.000 HD
ATOM     12  H   UNL     1       7.186   3.428  13.433  0.00  0.00    +0.000 HD
ENDBRANCH   4   7
BRANCH   1  13
ATOM     13  O   UNL     1       2.588   5.834  18.724  0.00  0.00    +0.000 OA
BRANCH  13  14
ATOM     14  C   UNL     1       2.757   5.168  19.978  0.00  0.00    +0.000 C 
BRANCH  14  15
ATOM     15  C   UNL     1       1.410   4.826  20.605  0.00  0.00    +0.000 C 
BRANCH  15  16
ATOM     16  C   UNL     1       1.409   3.358  21.039  0.00  0.00    +0.000 C 
BRANCH  16  18
ATOM     17  C   UNL     1       0.751   2.413  18.805  0.00  0.00    +0.000 C 
ATOM     18  C   UNL     1       1.803   2.420  19.904  0.00  0.00    +0.000 C 
ENDBRANCH  16  18
ENDBRANCH  15  16
ENDBRANCH  14  15
ENDBRANCH  13  14
ENDBRANCH   1  13
TORSDOF 6
ENDMDL
MODEL 3
REMARK VINA RESULT:      -5.9      0.674      1.076
REMARK  Name = 
REMARK  7 active torsions:
REMARK  status: ('A' for Active; 'I' for Inactive)
REMARK    1  A    between atoms: C_1  and  C_2
REMARK    2  A    between atoms: C_2  and  C_3
REMARK    3  A    between atoms: C_3  and  C_4
REMARK    4  A    between atoms: C_4  and  C_5
REMARK    5  A    between atoms: C_5  and  O_6
REMARK    6  A    between atoms: O_6  and  C_7
REMARK    7  A    between atoms: C_10  and  C_11
REMARK                            x       y       z     vdW  Elec       q    Type
REMARK                         _______ _______ _______ _____ _____    ______ ____
ROOT
ATOM      1  C   UNL     1       3.538   5.864  19.119  0.00  0.00    +0.000 A 
ATOM      2  C   UNL     1       4.597   5.118  19.643  0.00  0.00    +0.000 A 
ATOM      3  C   UNL     1       5.723   4.838  18.868  0.00  0.00    +0.000 A 
ATOM      4  C   UNL     1       5.803   5.300  17.555  0.00  0.00    +0.000 A 
ATOM      5  C   UNL     1       4.747   6.046  17.017  0.00  0.00    +0.000 A 
ATOM      6  C   UNL     1       3.618   6.323  17.801  0.00  0.00    +0.000 A 
ENDROOT
BRANCH   4   7
ATOM      7  C   UNL     1       7.029   4.997  16.769  0.00  0.00    +0.000 C 
ATOM      8  N   UNL     1       7.982   4.237  17.212  0.00  0.00    +0.000 NA
ATOM      9  N   UNL     1       7.194   5.525  15.524  0.00  0.00    +0.000 N 
ATOM     10  H   UNL     1       7.796   3.929  18.170  0.00  0.00    +0.000 HD
ATOM     11  H   UNL     1       6.359   5.604  14.959  0.00  0.00    +0.000 HD
ATOM     12  H   UNL     1       7.962   5.075  15.035  0.00  0.00    +0.000 HD
ENDBRANCH   4   7
BRANCH   1  13
ATOM     13  O   UNL     1       2.394   6.197  19.803  0.00  0.00    +0.000 OA
BRANCH  13  14
ATOM     14  C   UNL     1       1.972   5.227  20.765  0.00  0.00    +0.000 C 
BRANCH  14  15
ATOM     15  C   UNL     1       0.977   4.246  20.156  0.00  0.00    +0.000 C 
BRANCH  15  16
ATOM     16  C   UNL     1       1.391   2.816  20.511  0.00  0.00    +0.000 C 
BRANCH  16  18
ATOM     17  C   UNL     1       2.029   2.633  18.087  0.00  0.00    +0.000 C 
ATOM     18  C   UNL     1       2.388   2.239  19.512  0.00  0.00    +0.000 C 
ENDBRANCH  16  18
ENDBRANCH  15  16
ENDBRANCH  14  15
ENDBRANCH  13  14
ENDBRANCH   1  13
TORSDOF 6
ENDMDL
MODEL 4
REMARK VINA RESULT:      -5.9      0.801      1.583
REMARK  Name = 
REMARK  7 active torsions:
REMARK  status: ('A' for Active; 'I' for Inactive)
REMARK    1  A    between atoms: C_1  and  C_2
REMARK    2  A    between atoms: C_2  and  C_3
REMARK    3  A    between atoms: C_3  and  C_4
REMARK    4  A    between atoms: C_4  and  C_5
REMARK    5  A    between atoms: C_5  and  O_6
REMARK    6  A    between atoms: O_6  and  C_7
REMARK    7  A    between atoms: C_10  and  C_11
REMARK                            x       y       z     vdW  Elec       q    Type
REMARK                         _______ _______ _______ _____ _____    ______ ____
ROOT
ATOM      1  C   UNL     1       3.429   5.958  18.937  0.00  0.00    +0.000 A 
ATOM      2  C   UNL     1       3.762   6.601  17.741  0.00  0.00    +0.000 A 
ATOM      3  C   UNL     1       4.949   6.296  17.074  0.00  0.00    +0.000 A 
ATOM      4  C   UNL     1       5.823   5.343  17.599  0.00  0.00    +0.000 A 
ATOM      5  C   UNL     1       5.502   4.696  18.798  0.00  0.00    +0.000 A 
ATOM      6  C   UNL     1       4.308   5.007  19.463  0.00  0.00    +0.000 A 
ENDROOT
BRANCH   4   7
ATOM      7  C   UNL     1       7.068   5.033  16.848  0.00  0.00    +0.000 C 
ATOM      8  N   UNL     1       7.968   4.208  17.282  0.00  0.00    +0.000 NA
ATOM      9  N   UNL     1       7.310   5.627  15.645  0.00  0.00    +0.000 N 
ATOM     10  H   UNL     1       7.729   3.852  18.212  0.00  0.00    +0.000 HD
ATOM     11  H   UNL     1       6.504   5.776  15.052  0.00  0.00    +0.000 HD
ATOM     12  H   UNL     1       8.079   5.173  15.162  0.00  0.00    +0.000 HD
ENDBRANCH   4   7
BRANCH   1  13
ATOM     13  O   UNL     1       2.283   6.184  19.661  0.00  0.00    +0.000 OA
BRANCH  13  14
ATOM     14  C   UNL     1       2.051   5.248  20.715  0.00  0.00    +0.000 C 
BRANCH  14  15
ATOM     15  C   UNL     1       0.893   4.316  20.378  0.00  0.00    +0.000 C 
BRANCH  15  16
ATOM     16  C   UNL     1       1.278   2.877  20.732  0.00  0.00    +0.000 C 
BRANCH  16  18
ATOM     17  C   UNL     1       1.594   2.744  18.242  0.00  0.00    +0.000 C 
ATOM     18  C   UNL     1       2.010   2.178  19.591  0.00  0.00    +0.000 C 
ENDBRANCH  16  18
ENDBRANCH  15  16
ENDBRANCH  14  15
ENDBRANCH  13  14
ENDBRANCH   1  13
TORSDOF 6
ENDMDL
MODEL 5
REMARK VINA RESULT:      -5.8      1.678      2.869
REMARK  Name = 
REMARK  7 active torsions:
REMARK  status: ('A' for Active; 'I' for Inactive)
REMARK    1  A    between atoms: C_1  and  C_2
REMARK    2  A    between atoms: C_2  and  C_3
REMARK    3  A    between atoms: C_3  and  C_4
REMARK    4  A    between atoms: C_4  and  C_5
REMARK    5  A    between atoms: C_5  and  O_6
REMARK    6  A    between atoms: O_6  and  C_7
REMARK    7  A    between atoms: C_10  and  C_11
REMARK                            x       y       z     vdW  Elec       q    Type
REMARK                         _______ _______ _______ _____ _____    ______ ____
ROOT
ATOM      1  C   UNL     1       3.883   2.938  18.593  0.00  0.00    +0.000 A 
ATOM      2  C   UNL     1       3.509   3.268  17.287  0.00  0.00    +0.000 A 
ATOM      3  C   UNL     1       4.191   4.258  16.580  0.00  0.00    +0.000 A 
ATOM      4  C   UNL     1       5.257   4.934  17.172  0.00  0.00    +0.000 A 
ATOM      5  C   UNL     1       5.639   4.615  18.481  0.00  0.00    +0.000 A 
ATOM      6  C   UNL     1       4.949   3.620  19.186  0.00  0.00    +0.000 A 
ENDROOT
BRANCH   4   7
ATOM      7  C   UNL     1       5.970   5.970  16.377  0.00  0.00    +0.000 C 
ATOM      8  N   UNL     1       5.374   6.734  15.517  0.00  0.00    +0.000 NA
ATOM      9  N   UNL     1       7.312   6.150  16.531  0.00  0.00    +0.000 N 
ATOM     10  H   UNL     1       4.383   6.494  15.429  0.00  0.00    +0.000 HD
ATOM     11  H   UNL     1       7.671   6.040  17.471  0.00  0.00    +0.000 HD
ATOM     12  H   UNL     1       7.619   7.010  16.088  0.00  0.00    +0.000 HD
ENDBRANCH   4   7
BRANCH   1  13
ATOM     13  O   UNL     1       3.279   1.975  19.366  0.00  0.00    +0.000 OA
BRANCH  13  14
ATOM     14  C   UNL     1       1.856   2.081  19.445  0.00  0.00    +0.000 C 
BRANCH  14  15
ATOM     15  C   UNL     1       1.429   2.823  20.706  0.00  0.00    +0.000 C 
BRANCH  15  16
ATOM     16  C   UNL     1       0.936   4.222  20.330  0.00  0.00    +0.000 C 
BRANCH  16  18
ATOM     17  C   UNL     1       2.324   6.168  19.551  0.00  0.00    +0.000 C 
ATOM     18  C   UNL     1       1.920   5.312  20.742  0.00  0.00    +0.000 C 
ENDBRANCH  16  18
ENDBRANCH  15  16
ENDBRANCH  14  15
ENDBRANCH  13  14
ENDBRANCH   1  13
TORSDOF 6
ENDMDL
MODEL 6
REMARK VINA RESULT:      -5.8      1.297      1.880
REMARK  Name = 
REMARK  7 active torsions:
REMARK  status: ('A' for Active; 'I' for Inactive)
REMARK    1  A    between atoms: C_1  and  C_2
REMARK    2  A    between atoms: C_2  and  C_3
REMARK    3  A    between atoms: C_3  and  C_4
REMARK    4  A    between atoms: C_4  and  C_5
REMARK    5  A    between atoms: C_5  and  O_6
REMARK    6  A    between atoms: O_6  and  C_7
REMARK    7  A    between atoms: C_10  and  C_11
REMARK                            x       y       z     vdW  Elec       q    Type
REMARK                         _______ _______ _______ _____ _____    ______ ____
ROOT
ATOM      1  C   UNL     1       2.864   4.744  17.703  0.00  0.00    +0.000 A 
ATOM      2  C   UNL     1       3.488   3.688  17.031  0.00  0.00    +0.000 A 
ATOM      3  C   UNL     1       4.841   3.754  16.700  0.00  0.00    +0.000 A 
ATOM      4  C   UNL     1       5.591   4.882  17.035  0.00  0.00    +0.000 A 
ATOM      5  C   UNL     1       4.976   5.947  17.705  0.00  0.00    +0.000 A 
ATOM      6  C   UNL     1       3.616   5.875  18.033  0.00  0.00    +0.000 A 
ENDROOT
BRANCH   4   7
ATOM      7  C   UNL     1       7.035   4.905  16.682  0.00  0.00    +0.000 C 
ATOM      8  N   UNL     1       7.928   4.208  17.312  0.00  0.00    +0.000 NA
ATOM      9  N   UNL     1       7.478   5.684  15.655  0.00  0.00    +0.000 N 
ATOM     10  H   UNL     1       7.514   3.697  18.097  0.00  0.00    +0.000 HD
ATOM     11  H   UNL     1       6.862   5.759  14.855  0.00  0.00    +0.000 HD
ATOM     12  H   UNL     1       8.431   5.445  15.400  0.00  0.00    +0.000 HD
ENDBRANCH   4   7
BRANCH   1  13
ATOM     13  O   UNL     1       1.543   4.768  18.077  0.00  0.00    +0.000 OA
BRANCH  13  14
ATOM     14  C   UNL     1       1.171   3.759  19.018  0.00  0.00    +0.000 C 
BRANCH  14  15
ATOM     15  C   UNL     1       1.175   4.305  20.441  0.00  0.00    +0.000 C 
BRANCH  15  16
ATOM     16  C   UNL     1       2.371   3.730  21.203  0.00  0.00    +0.000 C 
BRANCH  16  18
ATOM     17  C   UNL     1       4.342   2.420  20.357  0.00  0.00    +0.000 C 
ATOM     18  C   UNL     1       2.844   2.403  20.620  0.00  0.00    +0.000 C 
ENDBRANCH  16  18
ENDBRANCH  15  16
ENDBRANCH  14  15
ENDBRANCH  13  14
ENDBRANCH   1  13
TORSDOF 6
ENDMDL
MODEL 7
REMARK VINA RESULT:      -5.8      1.220      1.364
REMARK  Name = 
REMARK  7 active torsions:
REMARK  status: ('A' for Active; 'I' for Inactive)
REMARK    1  A    between atoms: C_1  and  C_2
REMARK    2  A    between atoms: C_2  and  C_3
REMARK    3  A    between atoms: C_3  and  C_4
REMARK    4  A    between atoms: C_4  and  C_5
REMARK    5  A    between atoms: C_5  and  O_6
REMARK    6  A    between atoms: O_6  and  C_7
REMARK    7  A    between atoms: C_10  and  C_11
REMARK                            x       y       z     vdW  Elec       q    Type
REMARK                         _______ _______ _______ _____ _____    ______ ____
ROOT
ATOM      1  C   UNL     1       3.312   5.908  19.136  0.00  0.00    +0.000 A 
ATOM      2  C   UNL     1       4.493   5.242  19.478  0.00  0.00    +0.000 A 
ATOM      3  C   UNL     1       5.643   5.387  18.702  0.00  0.00    +0.000 A 
ATOM      4  C   UNL     1       5.626   6.199  17.568  0.00  0.00    +0.000 A 
ATOM      5  C   UNL     1       4.448   6.867  17.212  0.00  0.00    +0.000 A 
ATOM      6  C   UNL     1       3.296   6.717  17.996  0.00  0.00    +0.000 A 
ENDROOT
BRANCH   4   7
ATOM      7  C   UNL     1       6.878   6.341  16.778  0.00  0.00    +0.000 C 
ATOM      8  N   UNL     1       7.722   7.308  16.960  0.00  0.00    +0.000 NA
ATOM      9  N   UNL     1       7.184   5.434  15.808  0.00  0.00    +0.000 N 
ATOM     10  H   UNL     1       7.386   7.967  17.668  0.00  0.00    +0.000 HD
ATOM     11  H   UNL     1       6.933   4.473  16.001  0.00  0.00    +0.000 HD
ATOM     12  H   UNL     1       8.147   5.537  15.502  0.00  0.00    +0.000 HD
ENDBRANCH   4   7
BRANCH   1  13
ATOM     13  O   UNL     1       2.135   5.834  19.839  0.00  0.00    +0.000 OA
BRANCH  13  14
ATOM     14  C   UNL     1       2.096   4.807  20.832  0.00  0.00    +0.000 C 
BRANCH  14  15
ATOM     15  C   UNL     1       1.007   3.785  20.524  0.00  0.00    +0.000 C 
BRANCH  15  16
ATOM     16  C   UNL     1       1.635   2.557  19.859  0.00  0.00    +0.000 C 
BRANCH  16  18
ATOM     17  C   UNL     1       2.971   2.343  17.741  0.00  0.00    +0.000 C 
ATOM     18  C   UNL     1       1.604   2.646  18.337  0.00  0.00    +0.000 C 
ENDBRANCH  16  18
ENDBRANCH  15  16
ENDBRANCH  14  15
ENDBRANCH  13  14
ENDBRANCH   1  13
TORSDOF 6
ENDMDL
MODEL 8
REMARK VINA RESULT:      -5.8      1.666      2.605
REMARK  Name = 
REMARK  7 active torsions:
REMARK  status: ('A' for Active; 'I' for Inactive)
REMARK    1  A    between atoms: C_1  and  C_2
REMARK    2  A    between atoms: C_2  and  C_3
REMARK    3  A    between atoms: C_3  and  C_4
REMARK    4  A    between atoms: C_4  and  C_5
REMARK    5  A    between atoms: C_5  and  O_6
REMARK    6  A    between atoms: O_6  and  C_7
REMARK    7  A    between atoms: C_10  and  C_11
REMARK                            x       y       z     vdW  Elec       q    Type
REMARK                         _______ _______ _______ _____ _____    ______ ____
ROOT
ATOM      1  C   UNL     1       4.053   2.936  18.712  0.00  0.00    +0.000 A 
ATOM      2  C   UNL     1       5.059   3.750  19.241  0.00  0.00    +0.000 A 
ATOM      3  C   UNL     1       5.683   4.716  18.452  0.00  0.00    +0.000 A 
ATOM      4  C   UNL     1       5.310   4.879  17.117  0.00  0.00    +0.000 A 
ATOM      5  C   UNL     1       4.307   4.067  16.575  0.00  0.00    +0.000 A 
ATOM      6  C   UNL     1       3.684   3.098  17.373  0.00  0.00    +0.000 A 
ENDROOT
BRANCH   4   7
ATOM      7  C   UNL     1       5.987   5.933  16.315  0.00  0.00    +0.000 C 
ATOM      8  N   UNL     1       5.351   6.723  15.508  0.00  0.00    +0.000 NA
ATOM      9  N   UNL     1       7.335   6.103  16.405  0.00  0.00    +0.000 N 
ATOM     10  H   UNL     1       4.356   6.489  15.465  0.00  0.00    +0.000 HD
ATOM     11  H   UNL     1       7.742   5.967  17.322  0.00  0.00    +0.000 HD
ATOM     12  H   UNL     1       7.623   6.975  15.971  0.00  0.00    +0.000 HD
ENDBRANCH   4   7
BRANCH   1  13
ATOM     13  O   UNL     1       3.376   1.965  19.410  0.00  0.00    +0.000 OA
BRANCH  13  14
ATOM     14  C   UNL     1       1.959   2.142  19.453  0.00  0.00    +0.000 C 
BRANCH  14  15
ATOM     15  C   UNL     1       1.535   2.880  20.718  0.00  0.00    +0.000 C 
BRANCH  15  16
ATOM     16  C   UNL     1       0.903   4.221  20.337  0.00  0.00    +0.000 C 
BRANCH  16  18
ATOM     17  C   UNL     1       2.277   6.141  19.475  0.00  0.00    +0.000 C 
ATOM     18  C   UNL     1       1.788   5.404  20.713  0.00  0.00    +0.000 C 
ENDBRANCH  16  18
ENDBRANCH  15  16
ENDBRANCH  14  15
ENDBRANCH  13  14
ENDBRANCH   1  13
TORSDOF 6
ENDMDL
MODEL 9
REMARK VINA RESULT:      -5.7      1.400      2.321
REMARK  Name = 
REMARK  7 active torsions:
REMARK  status: ('A' for Active; 'I' for Inactive)
REMARK    1  A    between atoms: C_1  and  C_2
REMARK    2  A    between atoms: C_2  and  C_3
REMARK    3  A    between atoms: C_3  and  C_4
REMARK    4  A    between atoms: C_4  and  C_5
REMARK    5  A    between atoms: C_5  and  O_6
REMARK    6  A    between atoms: O_6  and  C_7
REMARK    7  A    between atoms: C_10  and  C_11
REMARK                            x       y       z     vdW  Elec       q    Type
REMARK                         _______ _______ _______ _____ _____    ______ ____
ROOT
ATOM      1  C   UNL     1       2.800   4.258  17.483  0.00  0.00    +0.000 A 
ATOM      2  C   UNL     1       3.703   3.262  17.100  0.00  0.00    +0.000 A 
ATOM      3  C   UNL     1       5.054   3.557  16.920  0.00  0.00    +0.000 A 
ATOM      4  C   UNL     1       5.521   4.856  17.120  0.00  0.00    +0.000 A 
ATOM      5  C   UNL     1       4.626   5.863  17.500  0.00  0.00    +0.000 A 
ATOM      6  C   UNL     1       3.268   5.561  17.677  0.00  0.00    +0.000 A 
ENDROOT
BRANCH   4   7
ATOM      7  C   UNL     1       6.973   5.124  16.938  0.00  0.00    +0.000 C 
ATOM      8  N   UNL     1       7.891   4.244  17.188  0.00  0.00    +0.000 NA
ATOM      9  N   UNL     1       7.395   6.340  16.491  0.00  0.00    +0.000 N 
ATOM     10  H   UNL     1       7.487   3.383  17.567  0.00  0.00    +0.000 HD
ATOM     11  H   UNL     1       6.808   6.789  15.798  0.00  0.00    +0.000 HD
ATOM     12  H   UNL     1       8.373   6.311  16.221  0.00  0.00    +0.000 HD
ENDBRANCH   4   7
BRANCH   1  13
ATOM     13  O   UNL     1       1.455   4.065  17.691  0.00  0.00    +0.000 OA
BRANCH  13  14
ATOM     14  C   UNL     1       1.125   2.843  18.353  0.00  0.00    +0.000 C 
BRANCH  14  15
ATOM     15  C   UNL     1       0.653   3.101  19.780  0.00  0.00    +0.000 C 
BRANCH  15  16
ATOM     16  C   UNL     1       1.682   2.543  20.765  0.00  0.00    +0.000 C 
BRANCH  16  18
ATOM     17  C   UNL     1       2.040   5.013  21.060  0.00  0.00    +0.000 C 
ATOM     18  C   UNL     1       2.291   3.630  21.643  0.00  0.00    +0.000 C 
ENDBRANCH  16  18
ENDBRANCH  15  16
ENDBRANCH  14  15
ENDBRANCH  13  14
ENDBRANCH   1  13
TORSDOF 6
ENDMDL
