MODEL 1
REMARK VINA RESULT:      -9.1      0.000      0.000
REMARK  Name = 
REMARK  2 active torsions:
REMARK  status: ('A' for Active; 'I' for Inactive)
REMARK    1  A    between atoms: C_2  and  C_3
REMARK    2  A    between atoms: C_6  and  N_7
REMARK                            x       y       z     vdW  Elec       q    Type
REMARK                         _______ _______ _______ _____ _____    ______ ____
ROOT
ATOM      1  N   UNL     1       2.314   6.642  20.298  0.00  0.00    +0.000 N 
ATOM      2  C   UNL     1       3.054   5.956  19.356  0.00  0.00    +0.000 A 
ATOM      3  N   UNL     1       3.577   6.536  18.306  0.00  0.00    +0.000 NA
ATOM      4  C   UNL     1       4.321   5.812  17.357  0.00  0.00    +0.000 A 
ATOM      5  C   UNL     1       4.832   6.493  16.256  0.00  0.00    +0.000 A 
ATOM      6  C   UNL     1       5.581   5.811  15.296  0.00  0.00    +0.000 A 
ATOM      7  C   UNL     1       5.822   4.440  15.433  0.00  0.00    +0.000 A 
ATOM      8  C   UNL     1       5.310   3.736  16.525  0.00  0.00    +0.000 A 
ATOM      9  C   UNL     1       4.565   4.437  17.469  0.00  0.00    +0.000 A 
ATOM     10  N   UNL     1       3.994   3.839  18.589  0.00  0.00    +0.000 N 
ATOM     11  N   UNL     1       4.026   2.545  18.941  0.00  0.00    +0.000 NA
ATOM     12  N   UNL     1       3.308   2.478  20.061  0.00  0.00    +0.000 NA
ATOM     13  N   UNL     1       2.829   3.721  20.430  0.00  0.00    +0.000 NA
ATOM     14  C   UNL     1       3.267   4.542  19.503  0.00  0.00    +0.000 A 
ATOM     15  H   UNL     1       1.947   6.069  21.051  0.00  0.00    +0.000 HD
ENDROOT
BRANCH   1  19
ATOM     16  C   UNL     1       0.430  10.425  20.138  0.00  0.00    +0.000 A 
ATOM     17  C   UNL     1       0.649   9.773  21.351  0.00  0.00    +0.000 A 
ATOM     18  C   UNL     1       1.262   8.519  21.376  0.00  0.00    +0.000 A 
ATOM     19  C   UNL     1       1.752   7.927  20.204  0.00  0.00    +0.000 A 
ATOM     20  C   UNL     1       1.651   8.665  19.017  0.00  0.00    +0.000 A 
ATOM     21  C   UNL     1       0.984   9.893  18.975  0.00  0.00    +0.000 A 
BRANCH  16  23
ATOM     22  O   UNL     1      -1.570  11.600  20.000  0.00  0.00    +0.000 OA
ATOM     23  C   UNL     1      -0.343  11.689  20.041  0.00  0.00    +0.000 C 
ATOM     24  N   UNL     1       0.320  12.912  20.005  0.00  0.00    +0.000 N 
ATOM     25  C   UNL     1      -0.468  14.139  19.873  0.00  0.00    +0.000 C 
ATOM     26  C   UNL     1       0.206  15.117  18.901  0.00  0.00    +0.000 C 
ATOM     27  O   UNL     1       1.591  15.341  19.222  0.00  0.00    +0.000 OA
ATOM     28  C   UNL     1       2.316  14.101  19.257  0.00  0.00    +0.000 C 
ATOM     29  C   UNL     1       1.727  13.184  20.332  0.00  0.00    +0.000 C 
ENDBRANCH  16  23
ENDBRANCH   1  19
TORSDOF 2
ENDMDL
MODEL 2
REMARK VINA RESULT:      -9.0      1.747      2.625
REMARK  Name = 
REMARK  2 active torsions:
REMARK  status: ('A' for Active; 'I' for Inactive)
REMARK    1  A    between atoms: C_2  and  C_3
REMARK    2  A    between atoms: C_6  and  N_7
REMARK                            x       y       z     vdW  Elec       q    Type
REMARK                         _______ _______ _______ _____ _____    ______ ____
ROOT
ATOM      1  N   UNL     1       2.540   6.371  20.229  0.00  0.00    +0.000 N 
ATOM      2  C   UNL     1       3.304   5.727  19.277  0.00  0.00    +0.000 A 
ATOM      3  N   UNL     1       3.718   6.314  18.184  0.00  0.00    +0.000 NA
ATOM      4  C   UNL     1       4.491   5.631  17.227  0.00  0.00    +0.000 A 
ATOM      5  C   UNL     1       4.880   6.316  16.079  0.00  0.00    +0.000 A 
ATOM      6  C   UNL     1       5.653   5.675  15.110  0.00  0.00    +0.000 A 
ATOM      7  C   UNL     1       6.039   4.342  15.284  0.00  0.00    +0.000 A 
ATOM      8  C   UNL     1       5.651   3.634  16.422  0.00  0.00    +0.000 A 
ATOM      9  C   UNL     1       4.879   4.293  17.376  0.00  0.00    +0.000 A 
ATOM     10  N   UNL     1       4.422   3.686  18.542  0.00  0.00    +0.000 N 
ATOM     11  N   UNL     1       4.602   2.418  18.937  0.00  0.00    +0.000 NA
ATOM     12  N   UNL     1       3.944   2.323  20.092  0.00  0.00    +0.000 NA
ATOM     13  N   UNL     1       3.357   3.525  20.439  0.00  0.00    +0.000 NA
ATOM     14  C   UNL     1       3.668   4.348  19.464  0.00  0.00    +0.000 A 
ATOM     15  H   UNL     1       2.266   5.795  21.018  0.00  0.00    +0.000 HD
ENDROOT
BRANCH   1  19
ATOM     16  C   UNL     1       0.246   9.915  19.952  0.00  0.00    +0.000 A 
ATOM     17  C   UNL     1       0.259   9.146  21.116  0.00  0.00    +0.000 A 
ATOM     18  C   UNL     1       1.014   7.974  21.177  0.00  0.00    +0.000 A 
ATOM     19  C   UNL     1       1.845   7.589  20.116  0.00  0.00    +0.000 A 
ATOM     20  C   UNL     1       1.929   8.452  19.015  0.00  0.00    +0.000 A 
ATOM     21  C   UNL     1       1.129   9.594  18.921  0.00  0.00    +0.000 A 
BRANCH  16  23
ATOM     22  O   UNL     1      -0.440  12.065  20.501  0.00  0.00    +0.000 OA
ATOM     23  C   UNL     1      -0.646  11.088  19.781  0.00  0.00    +0.000 C 
ATOM     24  N   UNL     1      -1.666  11.059  18.833  0.00  0.00    +0.000 N 
ATOM     25  C   UNL     1      -2.552  12.219  18.714  0.00  0.00    +0.000 C 
ATOM     26  C   UNL     1      -4.007  11.774  18.522  0.00  0.00    +0.000 C 
ATOM     27  O   UNL     1      -4.151  10.813  17.460  0.00  0.00    +0.000 OA
ATOM     28  C   UNL     1      -3.310   9.670  17.686  0.00  0.00    +0.000 C 
ATOM     29  C   UNL     1      -1.844  10.103  17.731  0.00  0.00    +0.000 C 
ENDBRANCH  16  23
ENDBRANCH   1  19
TORSDOF 2
ENDMDL
MODEL 3
REMARK VINA RESULT:      -8.8      3.741      8.824
REMARK  Name = 
REMARK  2 active torsions:
REMARK  status: ('A' for Active; 'I' for Inactive)
REMARK    1  A    between atoms: C_2  and  C_3
REMARK    2  A    between atoms: C_6  and  N_7
REMARK                            x       y       z     vdW  Elec       q    Type
REMARK                         _______ _______ _______ _____ _____    ______ ____
ROOT
ATOM      1  N   UNL     1       0.648   9.626  20.219  0.00  0.00    +0.000 N 
ATOM      2  C   UNL     1      -0.483  10.219  19.695  0.00  0.00    +0.000 A 
ATOM      3  N   UNL     1      -1.121   9.737  18.659  0.00  0.00    +0.000 NA
ATOM      4  C   UNL     1      -2.267  10.365  18.140  0.00  0.00    +0.000 A 
ATOM      5  C   UNL     1      -2.883   9.804  17.025  0.00  0.00    +0.000 A 
ATOM      6  C   UNL     1      -4.026  10.395  16.485  0.00  0.00    +0.000 A 
ATOM      7  C   UNL     1      -4.559  11.554  17.059  0.00  0.00    +0.000 A 
ATOM      8  C   UNL     1      -3.951  12.138  18.171  0.00  0.00    +0.000 A 
ATOM      9  C   UNL     1      -2.811  11.533  18.692  0.00  0.00    +0.000 A 
ATOM     10  N   UNL     1      -2.113  12.032  19.788  0.00  0.00    +0.000 N 
ATOM     11  N   UNL     1      -2.372  13.141  20.495  0.00  0.00    +0.000 NA
ATOM     12  N   UNL     1      -1.402  13.198  21.408  0.00  0.00    +0.000 NA
ATOM     13  N   UNL     1      -0.536  12.128  21.292  0.00  0.00    +0.000 NA
ATOM     14  C   UNL     1      -0.999  11.425  20.284  0.00  0.00    +0.000 A 
ATOM     15  H   UNL     1       1.058  10.114  21.009  0.00  0.00    +0.000 HD
ENDROOT
BRANCH   1  19
ATOM     16  C   UNL     1       2.971   6.667  18.284  0.00  0.00    +0.000 A 
ATOM     17  C   UNL     1       2.724   7.903  17.687  0.00  0.00    +0.000 A 
ATOM     18  C   UNL     1       1.943   8.858  18.341  0.00  0.00    +0.000 A 
ATOM     19  C   UNL     1       1.468   8.640  19.642  0.00  0.00    +0.000 A 
ATOM     20  C   UNL     1       1.851   7.452  20.279  0.00  0.00    +0.000 A 
ATOM     21  C   UNL     1       2.579   6.466  19.607  0.00  0.00    +0.000 A 
BRANCH  16  23
ATOM     22  O   UNL     1       3.039   4.528  17.382  0.00  0.00    +0.000 OA
ATOM     23  C   UNL     1       3.671   5.566  17.577  0.00  0.00    +0.000 C 
ATOM     24  N   UNL     1       4.988   5.730  17.157  0.00  0.00    +0.000 N 
ATOM     25  C   UNL     1       5.662   4.613  16.494  0.00  0.00    +0.000 C 
ATOM     26  C   UNL     1       7.109   4.481  16.985  0.00  0.00    +0.000 C 
ATOM     27  O   UNL     1       7.828   5.727  16.913  0.00  0.00    +0.000 OA
ATOM     28  C   UNL     1       7.147   6.755  17.651  0.00  0.00    +0.000 C 
ATOM     29  C   UNL     1       5.753   6.982  17.062  0.00  0.00    +0.000 C 
ENDBRANCH  16  23
ENDBRANCH   1  19
TORSDOF 2
ENDMDL
MODEL 4
REMARK VINA RESULT:      -8.8      2.128      3.369
REMARK  Name = 
REMARK  2 active torsions:
REMARK  status: ('A' for Active; 'I' for Inactive)
REMARK    1  A    between atoms: C_2  and  C_3
REMARK    2  A    between atoms: C_6  and  N_7
REMARK                            x       y       z     vdW  Elec       q    Type
REMARK                         _______ _______ _______ _____ _____    ______ ____
ROOT
ATOM      1  N   UNL     1       2.419   8.002  18.506  0.00  0.00    +0.000 N 
ATOM      2  C   UNL     1       2.691   6.657  18.364  0.00  0.00    +0.000 A 
ATOM      3  N   UNL     1       2.001   5.726  18.973  0.00  0.00    +0.000 NA
ATOM      4  C   UNL     1       2.304   4.362  18.816  0.00  0.00    +0.000 A 
ATOM      5  C   UNL     1       1.537   3.429  19.509  0.00  0.00    +0.000 A 
ATOM      6  C   UNL     1       1.803   2.065  19.374  0.00  0.00    +0.000 A 
ATOM      7  C   UNL     1       2.840   1.627  18.544  0.00  0.00    +0.000 A 
ATOM      8  C   UNL     1       3.626   2.546  17.848  0.00  0.00    +0.000 A 
ATOM      9  C   UNL     1       3.345   3.902  17.999  0.00  0.00    +0.000 A 
ATOM     10  N   UNL     1       4.069   4.908  17.367  0.00  0.00    +0.000 N 
ATOM     11  N   UNL     1       5.133   4.777  16.560  0.00  0.00    +0.000 NA
ATOM     12  N   UNL     1       5.480   6.025  16.248  0.00  0.00    +0.000 NA
ATOM     13  N   UNL     1       4.639   6.947  16.842  0.00  0.00    +0.000 NA
ATOM     14  C   UNL     1       3.779   6.230  17.526  0.00  0.00    +0.000 A 
ATOM     15  H   UNL     1       3.044   8.620  17.997  0.00  0.00    +0.000 HD
ENDROOT
BRANCH   1  19
ATOM     16  C   UNL     1       0.081  10.125  21.321  0.00  0.00    +0.000 A 
ATOM     17  C   UNL     1      -0.052  10.347  19.950  0.00  0.00    +0.000 A 
ATOM     18  C   UNL     1       0.740   9.642  19.042  0.00  0.00    +0.000 A 
ATOM     19  C   UNL     1       1.617   8.637  19.472  0.00  0.00    +0.000 A 
ATOM     20  C   UNL     1       1.628   8.330  20.839  0.00  0.00    +0.000 A 
ATOM     21  C   UNL     1       0.884   9.073  21.760  0.00  0.00    +0.000 A 
BRANCH  16  23
ATOM     22  O   UNL     1      -1.230  10.345  23.226  0.00  0.00    +0.000 OA
ATOM     23  C   UNL     1      -0.631  10.944  22.333  0.00  0.00    +0.000 C 
ATOM     24  N   UNL     1      -0.600  12.333  22.256  0.00  0.00    +0.000 N 
ATOM     25  C   UNL     1      -1.341  13.113  23.249  0.00  0.00    +0.000 C 
ATOM     26  C   UNL     1      -2.055  14.299  22.588  0.00  0.00    +0.000 C 
ATOM     27  O   UNL     1      -1.169  15.084  21.768  0.00  0.00    +0.000 OA
ATOM     28  C   UNL     1      -0.538  14.267  20.768  0.00  0.00    +0.000 C 
ATOM     29  C   UNL     1       0.292  13.170  21.440  0.00  0.00    +0.000 C 
ENDBRANCH  16  23
ENDBRANCH   1  19
TORSDOF 2
ENDMDL
MODEL 5
REMARK VINA RESULT:      -8.8      2.496      3.718
REMARK  Name = 
REMARK  2 active torsions:
REMARK  status: ('A' for Active; 'I' for Inactive)
REMARK    1  A    between atoms: C_2  and  C_3
REMARK    2  A    between atoms: C_6  and  N_7
REMARK                            x       y       z     vdW  Elec       q    Type
REMARK                         _______ _______ _______ _____ _____    ______ ____
ROOT
ATOM      1  N   UNL     1       2.508   7.962  18.448  0.00  0.00    +0.000 N 
ATOM      2  C   UNL     1       2.782   6.618  18.295  0.00  0.00    +0.000 A 
ATOM      3  N   UNL     1       2.071   5.680  18.867  0.00  0.00    +0.000 NA
ATOM      4  C   UNL     1       2.377   4.318  18.701  0.00  0.00    +0.000 A 
ATOM      5  C   UNL     1       1.587   3.376  19.354  0.00  0.00    +0.000 A 
ATOM      6  C   UNL     1       1.855   2.014  19.208  0.00  0.00    +0.000 A 
ATOM      7  C   UNL     1       2.918   1.586  18.407  0.00  0.00    +0.000 A 
ATOM      8  C   UNL     1       3.729   2.514  17.751  0.00  0.00    +0.000 A 
ATOM      9  C   UNL     1       3.445   3.868  17.912  0.00  0.00    +0.000 A 
ATOM     10  N   UNL     1       4.191   4.881  17.319  0.00  0.00    +0.000 N 
ATOM     11  N   UNL     1       5.281   4.761  16.547  0.00  0.00    +0.000 NA
ATOM     12  N   UNL     1       5.640   6.012  16.264  0.00  0.00    +0.000 NA
ATOM     13  N   UNL     1       4.781   6.927  16.843  0.00  0.00    +0.000 NA
ATOM     14  C   UNL     1       3.897   6.201  17.488  0.00  0.00    +0.000 A 
ATOM     15  H   UNL     1       3.150   8.586  17.969  0.00  0.00    +0.000 HD
ENDROOT
BRANCH   1  19
ATOM     16  C   UNL     1       0.100  10.046  21.232  0.00  0.00    +0.000 A 
ATOM     17  C   UNL     1       0.105  10.385  19.879  0.00  0.00    +0.000 A 
ATOM     18  C   UNL     1       0.919   9.689  18.982  0.00  0.00    +0.000 A 
ATOM     19  C   UNL     1       1.675   8.584  19.395  0.00  0.00    +0.000 A 
ATOM     20  C   UNL     1       1.542   8.172  20.728  0.00  0.00    +0.000 A 
ATOM     21  C   UNL     1       0.779   8.900  21.645  0.00  0.00    +0.000 A 
BRANCH  16  23
ATOM     22  O   UNL     1      -0.418  10.579  23.433  0.00  0.00    +0.000 OA
ATOM     23  C   UNL     1      -0.632  10.841  22.249  0.00  0.00    +0.000 C 
ATOM     24  N   UNL     1      -1.517  11.839  21.852  0.00  0.00    +0.000 N 
ATOM     25  C   UNL     1      -2.251  12.581  22.879  0.00  0.00    +0.000 C 
ATOM     26  C   UNL     1      -3.709  12.801  22.454  0.00  0.00    +0.000 C 
ATOM     27  O   UNL     1      -3.815  13.365  21.133  0.00  0.00    +0.000 OA
ATOM     28  C   UNL     1      -3.138  12.543  20.169  0.00  0.00    +0.000 C 
ATOM     29  C   UNL     1      -1.651  12.446  20.520  0.00  0.00    +0.000 C 
ENDBRANCH  16  23
ENDBRANCH   1  19
TORSDOF 2
ENDMDL
MODEL 6
REMARK VINA RESULT:      -8.7      0.715      1.170
REMARK  Name = 
REMARK  2 active torsions:
REMARK  status: ('A' for Active; 'I' for Inactive)
REMARK    1  A    between atoms: C_2  and  C_3
REMARK    2  A    between atoms: C_6  and  N_7
REMARK                            x       y       z     vdW  Elec       q    Type
REMARK                         _______ _______ _______ _____ _____    ______ ____
ROOT
ATOM      1  N   UNL     1       2.235   6.963  20.111  0.00  0.00    +0.000 N 
ATOM      2  C   UNL     1       3.018   6.213  19.257  0.00  0.00    +0.000 A 
ATOM      3  N   UNL     1       3.535   6.699  18.159  0.00  0.00    +0.000 NA
ATOM      4  C   UNL     1       4.324   5.910  17.302  0.00  0.00    +0.000 A 
ATOM      5  C   UNL     1       4.827   6.491  16.141  0.00  0.00    +0.000 A 
ATOM      6  C   UNL     1       5.619   5.742  15.270  0.00  0.00    +0.000 A 
ATOM      7  C   UNL     1       5.912   4.404  15.555  0.00  0.00    +0.000 A 
ATOM      8  C   UNL     1       5.409   3.800  16.709  0.00  0.00    +0.000 A 
ATOM      9  C   UNL     1       4.620   4.565  17.563  0.00  0.00    +0.000 A 
ATOM     10  N   UNL     1       4.054   4.067  18.733  0.00  0.00    +0.000 N 
ATOM     11  N   UNL     1       4.131   2.820  19.221  0.00  0.00    +0.000 NA
ATOM     12  N   UNL     1       3.397   2.843  20.333  0.00  0.00    +0.000 NA
ATOM     13  N   UNL     1       2.862   4.097  20.560  0.00  0.00    +0.000 NA
ATOM     14  C   UNL     1       3.284   4.832  19.557  0.00  0.00    +0.000 A 
ATOM     15  H   UNL     1       1.877   6.459  20.916  0.00  0.00    +0.000 HD
ENDROOT
BRANCH   1  19
ATOM     16  C   UNL     1       0.612  10.787  19.311  0.00  0.00    +0.000 A 
ATOM     17  C   UNL     1       1.257  10.049  18.318  0.00  0.00    +0.000 A 
ATOM     18  C   UNL     1       1.795   8.794  18.611  0.00  0.00    +0.000 A 
ATOM     19  C   UNL     1       1.624   8.207  19.873  0.00  0.00    +0.000 A 
ATOM     20  C   UNL     1       0.848   8.903  20.809  0.00  0.00    +0.000 A 
ATOM     21  C   UNL     1       0.359  10.186  20.543  0.00  0.00    +0.000 A 
BRANCH  16  23
ATOM     22  O   UNL     1      -0.951  12.334  18.562  0.00  0.00    +0.000 OA
ATOM     23  C   UNL     1       0.149  12.180  19.094  0.00  0.00    +0.000 C 
ATOM     24  N   UNL     1       0.945  13.251  19.490  0.00  0.00    +0.000 N 
ATOM     25  C   UNL     1       0.476  14.613  19.229  0.00  0.00    +0.000 C 
ATOM     26  C   UNL     1       1.629  15.502  18.745  0.00  0.00    +0.000 C 
ATOM     27  O   UNL     1       2.776  15.432  19.612  0.00  0.00    +0.000 OA
ATOM     28  C   UNL     1       3.226  14.075  19.757  0.00  0.00    +0.000 C 
ATOM     29  C   UNL     1       2.117  13.222  20.377  0.00  0.00    +0.000 C 
ENDBRANCH  16  23
ENDBRANCH   1  19
TORSDOF 2
ENDMDL
MODEL 7
REMARK VINA RESULT:      -8.7      2.434      3.777
REMARK  Name = 
REMARK  2 active torsions:
REMARK  status: ('A' for Active; 'I' for Inactive)
REMARK    1  A    between atoms: C_2  and  C_3
REMARK    2  A    between atoms: C_6  and  N_7
REMARK                            x       y       z     vdW  Elec       q    Type
REMARK                         _______ _______ _______ _____ _____    ______ ____
ROOT
ATOM      1  N   UNL     1       2.904   7.962  18.123  0.00  0.00    +0.000 N 
ATOM      2  C   UNL     1       3.070   6.592  18.105  0.00  0.00    +0.000 A 
ATOM      3  N   UNL     1       2.109   5.757  18.405  0.00  0.00    +0.000 NA
ATOM      4  C   UNL     1       2.308   4.365  18.386  0.00  0.00    +0.000 A 
ATOM      5  C   UNL     1       1.243   3.538  18.733  0.00  0.00    +0.000 A 
ATOM      6  C   UNL     1       1.399   2.151  18.720  0.00  0.00    +0.000 A 
ATOM      7  C   UNL     1       2.625   1.583  18.358  0.00  0.00    +0.000 A 
ATOM      8  C   UNL     1       3.709   2.394  18.016  0.00  0.00    +0.000 A 
ATOM      9  C   UNL     1       3.531   3.775  18.038  0.00  0.00    +0.000 A 
ATOM     10  N   UNL     1       4.541   4.681  17.730  0.00  0.00    +0.000 N 
ATOM     11  N   UNL     1       5.813   4.417  17.398  0.00  0.00    +0.000 NA
ATOM     12  N   UNL     1       6.379   5.613  17.238  0.00  0.00    +0.000 NA
ATOM     13  N   UNL     1       5.474   6.634  17.454  0.00  0.00    +0.000 NA
ATOM     14  C   UNL     1       4.347   6.030  17.756  0.00  0.00    +0.000 A 
ATOM     15  H   UNL     1       3.736   8.496  17.892  0.00  0.00    +0.000 HD
ENDROOT
BRANCH   1  19
ATOM     16  C   UNL     1      -0.135  10.411  19.753  0.00  0.00    +0.000 A 
ATOM     17  C   UNL     1       0.123  10.389  18.383  0.00  0.00    +0.000 A 
ATOM     18  C   UNL     1       1.141   9.581  17.871  0.00  0.00    +0.000 A 
ATOM     19  C   UNL     1       1.862   8.710  18.699  0.00  0.00    +0.000 A 
ATOM     20  C   UNL     1       1.486   8.641  20.047  0.00  0.00    +0.000 A 
ATOM     21  C   UNL     1       0.512   9.492  20.578  0.00  0.00    +0.000 A 
BRANCH  16  23
ATOM     22  O   UNL     1      -0.891  11.711  21.524  0.00  0.00    +0.000 OA
ATOM     23  C   UNL     1      -1.105  11.353  20.366  0.00  0.00    +0.000 C 
ATOM     24  N   UNL     1      -2.200  11.803  19.635  0.00  0.00    +0.000 N 
ATOM     25  C   UNL     1      -3.157  12.704  20.279  0.00  0.00    +0.000 C 
ATOM     26  C   UNL     1      -4.597  12.325  19.908  0.00  0.00    +0.000 C 
ATOM     27  O   UNL     1      -4.779  12.195  18.486  0.00  0.00    +0.000 OA
ATOM     28  C   UNL     1      -3.859  11.237  17.937  0.00  0.00    +0.000 C 
ATOM     29  C   UNL     1      -2.421  11.697  18.185  0.00  0.00    +0.000 C 
ENDBRANCH  16  23
ENDBRANCH   1  19
TORSDOF 2
ENDMDL
MODEL 8
REMARK VINA RESULT:      -8.7      2.352      3.604
REMARK  Name = 
REMARK  2 active torsions:
REMARK  status: ('A' for Active; 'I' for Inactive)
REMARK    1  A    between atoms: C_2  and  C_3
REMARK    2  A    between atoms: C_6  and  N_7
REMARK                            x       y       z     vdW  Elec       q    Type
REMARK                         _______ _______ _______ _____ _____    ______ ____
ROOT
ATOM      1  N   UNL     1       1.892   8.324  19.093  0.00  0.00    +0.000 N 
ATOM      2  C   UNL     1       2.399   7.047  19.230  0.00  0.00    +0.000 A 
ATOM      3  N   UNL     1       1.983   6.214  20.148  0.00  0.00    +0.000 NA
ATOM      4  C   UNL     1       2.523   4.920  20.269  0.00  0.00    +0.000 A 
ATOM      5  C   UNL     1       2.043   4.094  21.282  0.00  0.00    +0.000 A 
ATOM      6  C   UNL     1       2.548   2.802  21.430  0.00  0.00    +0.000 A 
ATOM      7  C   UNL     1       3.540   2.329  20.565  0.00  0.00    +0.000 A 
ATOM      8  C   UNL     1       4.042   3.144  19.550  0.00  0.00    +0.000 A 
ATOM      9  C   UNL     1       3.525   4.430  19.421  0.00  0.00    +0.000 A 
ATOM     10  N   UNL     1       3.957   5.336  18.457  0.00  0.00    +0.000 N 
ATOM     11  N   UNL     1       4.918   5.166  17.537  0.00  0.00    +0.000 NA
ATOM     12  N   UNL     1       4.976   6.326  16.885  0.00  0.00    +0.000 NA
ATOM     13  N   UNL     1       4.052   7.229  17.376  0.00  0.00    +0.000 NA
ATOM     14  C   UNL     1       3.438   6.591  18.346  0.00  0.00    +0.000 A 
ATOM     15  H   UNL     1       2.318   8.875  18.355  0.00  0.00    +0.000 HD
ENDROOT
BRANCH   1  19
ATOM     16  C   UNL     1      -0.410  10.728  21.703  0.00  0.00    +0.000 A 
ATOM     17  C   UNL     1      -0.627  10.737  20.325  0.00  0.00    +0.000 A 
ATOM     18  C   UNL     1       0.155   9.944  19.484  0.00  0.00    +0.000 A 
ATOM     19  C   UNL     1       1.108   9.056  20.002  0.00  0.00    +0.000 A 
ATOM     20  C   UNL     1       1.207   8.956  21.396  0.00  0.00    +0.000 A 
ATOM     21  C   UNL     1       0.472   9.792  22.242  0.00  0.00    +0.000 A 
BRANCH  16  23
ATOM     22  O   UNL     1      -1.909  11.161  23.425  0.00  0.00    +0.000 OA
ATOM     23  C   UNL     1      -1.112  11.654  22.626  0.00  0.00    +0.000 C 
ATOM     24  N   UNL     1      -0.856  13.021  22.574  0.00  0.00    +0.000 N 
ATOM     25  C   UNL     1      -1.590  13.913  23.473  0.00  0.00    +0.000 C 
ATOM     26  C   UNL     1      -2.018  15.192  22.742  0.00  0.00    +0.000 C 
ATOM     27  O   UNL     1      -0.922  15.824  22.056  0.00  0.00    +0.000 OA
ATOM     28  C   UNL     1      -0.300  14.913  21.135  0.00  0.00    +0.000 C 
ATOM     29  C   UNL     1       0.254  13.704  21.893  0.00  0.00    +0.000 C 
ENDBRANCH  16  23
ENDBRANCH   1  19
TORSDOF 2
ENDMDL
MODEL 9
REMARK VINA RESULT:      -8.6      1.454      2.304
REMARK  Name = 
REMARK  2 active torsions:
REMARK  status: ('A' for Active; 'I' for Inactive)
REMARK    1  A    between atoms: C_2  and  C_3
REMARK    2  A    between atoms: C_6  and  N_7
REMARK                            x       y       z     vdW  Elec       q    Type
REMARK                         _______ _______ _______ _____ _____    ______ ____
ROOT
ATOM      1  N   UNL     1       1.579   6.822  20.873  0.00  0.00    +0.000 N 
ATOM      2  C   UNL     1       2.305   6.159  19.904  0.00  0.00    +0.000 A 
ATOM      3  N   UNL     1       2.998   6.782  18.987  0.00  0.00    +0.000 NA
ATOM      4  C   UNL     1       3.724   6.081  18.006  0.00  0.00    +0.000 A 
ATOM      5  C   UNL     1       4.424   6.813  17.051  0.00  0.00    +0.000 A 
ATOM      6  C   UNL     1       5.161   6.153  16.066  0.00  0.00    +0.000 A 
ATOM      7  C   UNL     1       5.200   4.756  16.031  0.00  0.00    +0.000 A 
ATOM      8  C   UNL     1       4.497   4.004  16.974  0.00  0.00    +0.000 A 
ATOM      9  C   UNL     1       3.767   4.682  17.946  0.00  0.00    +0.000 A 
ATOM     10  N   UNL     1       3.018   4.039  18.927  0.00  0.00    +0.000 N 
ATOM     11  N   UNL     1       2.841   2.721  19.099  0.00  0.00    +0.000 NA
ATOM     12  N   UNL     1       2.018   2.620  20.142  0.00  0.00    +0.000 NA
ATOM     13  N   UNL     1       1.679   3.864  20.641  0.00  0.00    +0.000 NA
ATOM     14  C   UNL     1       2.310   4.721  19.871  0.00  0.00    +0.000 A 
ATOM     15  H   UNL     1       1.068   6.219  21.510  0.00  0.00    +0.000 HD
ENDROOT
BRANCH   1  19
ATOM     16  C   UNL     1       0.673  10.953  20.887  0.00  0.00    +0.000 A 
ATOM     17  C   UNL     1       0.995  10.284  19.706  0.00  0.00    +0.000 A 
ATOM     18  C   UNL     1       1.302   8.922  19.730  0.00  0.00    +0.000 A 
ATOM     19  C   UNL     1       1.208   8.177  20.914  0.00  0.00    +0.000 A 
ATOM     20  C   UNL     1       0.741   8.839  22.058  0.00  0.00    +0.000 A 
ATOM     21  C   UNL     1       0.492  10.215  22.055  0.00  0.00    +0.000 A 
BRANCH  16  23
ATOM     22  O   UNL     1       1.445  13.110  21.273  0.00  0.00    +0.000 OA
ATOM     23  C   UNL     1       0.478  12.424  20.941  0.00  0.00    +0.000 C 
ATOM     24  N   UNL     1      -0.757  12.978  20.618  0.00  0.00    +0.000 N 
ATOM     25  C   UNL     1      -0.927  14.429  20.716  0.00  0.00    +0.000 C 
ATOM     26  C   UNL     1      -2.290  14.777  21.329  0.00  0.00    +0.000 C 
ATOM     27  O   UNL     1      -3.376  14.101  20.670  0.00  0.00    +0.000 OA
ATOM     28  C   UNL     1      -3.178  12.678  20.682  0.00  0.00    +0.000 C 
ATOM     29  C   UNL     1      -1.887  12.326  19.940  0.00  0.00    +0.000 C 
ENDBRANCH  16  23
ENDBRANCH   1  19
TORSDOF 2
ENDMDL
