MODEL 1
REMARK VINA RESULT:      -7.0      0.000      0.000
REMARK  Name = 
REMARK  5 active torsions:
REMARK  status: ('A' for Active; 'I' for Inactive)
REMARK    1  A    between atoms: C_1  and  O_2
REMARK    2  A    between atoms: O_2  and  C_3
REMARK    3  A    between atoms: C_6  and  C_7
REMARK    4  A    between atoms: N_12  and  C_13
REMARK    5  A    between atoms: C_13  and  N_14
REMARK                            x       y       z     vdW  Elec       q    Type
REMARK                         _______ _______ _______ _____ _____    ______ ____
ROOT
ATOM      1  C   UNL     1       2.639   6.125  18.227  0.00  0.00    +0.000 C 
ATOM      2  C   UNL     1       3.883   6.073  17.745  0.00  0.00    +0.000 C 
ATOM      3  N   UNL     1       4.864   7.007  17.893  0.00  0.00    +0.000 N 
ATOM      4  C   UNL     1       6.017   6.587  17.251  0.00  0.00    +0.000 C 
ATOM      5  S   UNL     1       7.429   7.455  17.331  0.00  0.00    +0.000 S 
ATOM      6  N   UNL     1       5.736   5.385  16.621  0.00  0.00    +0.000 N 
ATOM      7  C   UNL     1       4.459   4.960  16.930  0.00  0.00    +0.000 C 
ATOM      8  O   UNL     1       3.905   3.900  16.692  0.00  0.00    +0.000 OA
ATOM      9  H   UNL     1       4.780   7.866  18.423  0.00  0.00    +0.000 HD
ENDROOT
BRANCH   1  13
ATOM     10  C   UNL     1       1.028   9.467  20.326  0.00  0.00    +0.000 A 
ATOM     11  C   UNL     1       1.315   8.277  20.995  0.00  0.00    +0.000 A 
ATOM     12  C   UNL     1       1.870   7.198  20.309  0.00  0.00    +0.000 A 
ATOM     13  C   UNL     1       2.130   7.295  18.939  0.00  0.00    +0.000 A 
ATOM     14  C   UNL     1       1.826   8.480  18.262  0.00  0.00    +0.000 A 
ATOM     15  C   UNL     1       1.276   9.565  18.955  0.00  0.00    +0.000 A 
BRANCH  10  17
ATOM     16  C   UNL     1      -0.015  10.021  22.371  0.00  0.00    +0.000 C 
ATOM     17  O   UNL     1       0.471  10.446  21.103  0.00  0.00    +0.000 OA
ENDBRANCH  10  17
ENDBRANCH   1  13
BRANCH   6  18
ATOM     18  C   UNL     1       6.636   4.549  15.859  0.00  0.00    +0.000 C 
BRANCH  18  19
ATOM     19  N   UNL     1       6.430   4.724  14.405  0.00  0.00    +0.000 NA
ATOM     20  C   UNL     1       7.674   5.144  13.740  0.00  0.00    +0.000 C 
ATOM     21  C   UNL     1       7.612   5.120  12.212  0.00  0.00    +0.000 C 
ATOM     22  C   UNL     1       7.154   3.763  11.704  0.00  0.00    +0.000 C 
ATOM     23  C   UNL     1       5.815   3.419  12.334  0.00  0.00    +0.000 C 
ATOM     24  C   UNL     1       5.892   3.465  13.860  0.00  0.00    +0.000 C 
ENDBRANCH  18  19
ENDBRANCH   6  18
TORSDOF 4
ENDMDL
MODEL 2
REMARK VINA RESULT:      -6.8      0.539      1.217
REMARK  Name = 
REMARK  5 active torsions:
REMARK  status: ('A' for Active; 'I' for Inactive)
REMARK    1  A    between atoms: C_1  and  O_2
REMARK    2  A    between atoms: O_2  and  C_3
REMARK    3  A    between atoms: C_6  and  C_7
REMARK    4  A    between atoms: N_12  and  C_13
REMARK    5  A    between atoms: C_13  and  N_14
REMARK                            x       y       z     vdW  Elec       q    Type
REMARK                         _______ _______ _______ _____ _____    ______ ____
ROOT
ATOM      1  C   UNL     1       2.598   6.119  18.179  0.00  0.00    +0.000 C 
ATOM      2  C   UNL     1       3.850   6.092  17.715  0.00  0.00    +0.000 C 
ATOM      3  N   UNL     1       4.810   7.045  17.878  0.00  0.00    +0.000 N 
ATOM      4  C   UNL     1       5.981   6.648  17.254  0.00  0.00    +0.000 C 
ATOM      5  S   UNL     1       7.374   7.545  17.355  0.00  0.00    +0.000 S 
ATOM      6  N   UNL     1       5.733   5.440  16.620  0.00  0.00    +0.000 N 
ATOM      7  C   UNL     1       4.460   4.990  16.910  0.00  0.00    +0.000 C 
ATOM      8  O   UNL     1       3.932   3.919  16.664  0.00  0.00    +0.000 OA
ATOM      9  H   UNL     1       4.700   7.903  18.406  0.00  0.00    +0.000 HD
ENDROOT
BRANCH   1  13
ATOM     10  C   UNL     1       1.136   9.574  20.203  0.00  0.00    +0.000 A 
ATOM     11  C   UNL     1       1.343   9.591  18.824  0.00  0.00    +0.000 A 
ATOM     12  C   UNL     1       1.791   8.449  18.163  0.00  0.00    +0.000 A 
ATOM     13  C   UNL     1       2.054   7.279  18.882  0.00  0.00    +0.000 A 
ATOM     14  C   UNL     1       1.867   7.264  20.267  0.00  0.00    +0.000 A 
ATOM     15  C   UNL     1       1.408   8.411  20.927  0.00  0.00    +0.000 A 
BRANCH  10  17
ATOM     16  C   UNL     1       0.697  11.866  19.844  0.00  0.00    +0.000 C 
ATOM     17  O   UNL     1       0.711  10.759  20.737  0.00  0.00    +0.000 OA
ENDBRANCH  10  17
ENDBRANCH   1  13
BRANCH   6  18
ATOM     18  C   UNL     1       6.662   4.622  15.873  0.00  0.00    +0.000 C 
BRANCH  18  19
ATOM     19  N   UNL     1       6.451   4.766  14.416  0.00  0.00    +0.000 NA
ATOM     20  C   UNL     1       7.688   5.189  13.741  0.00  0.00    +0.000 C 
ATOM     21  C   UNL     1       7.624   5.134  12.214  0.00  0.00    +0.000 C 
ATOM     22  C   UNL     1       7.184   3.762  11.733  0.00  0.00    +0.000 C 
ATOM     23  C   UNL     1       5.850   3.412  12.372  0.00  0.00    +0.000 C 
ATOM     24  C   UNL     1       5.929   3.489  13.897  0.00  0.00    +0.000 C 
ENDBRANCH  18  19
ENDBRANCH   6  18
TORSDOF 4
ENDMDL
MODEL 3
REMARK VINA RESULT:      -6.8      2.654      3.897
REMARK  Name = 
REMARK  5 active torsions:
REMARK  status: ('A' for Active; 'I' for Inactive)
REMARK    1  A    between atoms: C_1  and  O_2
REMARK    2  A    between atoms: O_2  and  C_3
REMARK    3  A    between atoms: C_6  and  C_7
REMARK    4  A    between atoms: N_12  and  C_13
REMARK    5  A    between atoms: C_13  and  N_14
REMARK                            x       y       z     vdW  Elec       q    Type
REMARK                         _______ _______ _______ _____ _____    ______ ____
ROOT
ATOM      1  C   UNL     1       1.758   8.412  19.661  0.00  0.00    +0.000 C 
ATOM      2  C   UNL     1       2.137   7.135  19.749  0.00  0.00    +0.000 C 
ATOM      3  N   UNL     1       1.792   6.238  20.715  0.00  0.00    +0.000 N 
ATOM      4  C   UNL     1       2.381   5.013  20.454  0.00  0.00    +0.000 C 
ATOM      5  S   UNL     1       2.076   3.678  21.392  0.00  0.00    +0.000 S 
ATOM      6  N   UNL     1       3.178   5.157  19.329  0.00  0.00    +0.000 N 
ATOM      7  C   UNL     1       3.032   6.420  18.789  0.00  0.00    +0.000 C 
ATOM      8  O   UNL     1       3.446   6.876  17.736  0.00  0.00    +0.000 OA
ATOM      9  H   UNL     1       1.168   6.425  21.491  0.00  0.00    +0.000 HD
ENDROOT
BRANCH   1  13
ATOM     10  C   UNL     1      -0.531  10.422  22.642  0.00  0.00    +0.000 A 
ATOM     11  C   UNL     1      -0.752  10.669  21.287  0.00  0.00    +0.000 A 
ATOM     12  C   UNL     1      -0.022   9.986  20.316  0.00  0.00    +0.000 A 
ATOM     13  C   UNL     1       0.952   9.058  20.694  0.00  0.00    +0.000 A 
ATOM     14  C   UNL     1       1.190   8.822  22.051  0.00  0.00    +0.000 A 
ATOM     15  C   UNL     1       0.448   9.503  23.025  0.00  0.00    +0.000 A 
BRANCH  10  17
ATOM     16  C   UNL     1      -2.225  12.050  22.880  0.00  0.00    +0.000 C 
ATOM     17  O   UNL     1      -1.298  11.165  23.497  0.00  0.00    +0.000 OA
ENDBRANCH  10  17
ENDBRANCH   1  13
BRANCH   6  18
ATOM     18  C   UNL     1       3.959   4.144  18.657  0.00  0.00    +0.000 C 
BRANCH  18  19
ATOM     19  N   UNL     1       4.892   4.746  17.680  0.00  0.00    +0.000 NA
ATOM     20  C   UNL     1       6.283   4.663  18.155  0.00  0.00    +0.000 C 
ATOM     21  C   UNL     1       7.331   5.047  17.110  0.00  0.00    +0.000 C 
ATOM     22  C   UNL     1       7.145   4.250  15.830  0.00  0.00    +0.000 C 
ATOM     23  C   UNL     1       5.728   4.450  15.317  0.00  0.00    +0.000 C 
ATOM     24  C   UNL     1       4.696   4.079  16.381  0.00  0.00    +0.000 C 
ENDBRANCH  18  19
ENDBRANCH   6  18
TORSDOF 4
ENDMDL
MODEL 4
REMARK VINA RESULT:      -6.7      3.148      4.304
REMARK  Name = 
REMARK  5 active torsions:
REMARK  status: ('A' for Active; 'I' for Inactive)
REMARK    1  A    between atoms: C_1  and  O_2
REMARK    2  A    between atoms: O_2  and  C_3
REMARK    3  A    between atoms: C_6  and  C_7
REMARK    4  A    between atoms: N_12  and  C_13
REMARK    5  A    between atoms: C_13  and  N_14
REMARK                            x       y       z     vdW  Elec       q    Type
REMARK                         _______ _______ _______ _____ _____    ______ ____
ROOT
ATOM      1  C   UNL     1       1.841   8.189  19.410  0.00  0.00    +0.000 C 
ATOM      2  C   UNL     1       2.204   6.909  19.518  0.00  0.00    +0.000 C 
ATOM      3  N   UNL     1       1.903   6.050  20.534  0.00  0.00    +0.000 N 
ATOM      4  C   UNL     1       2.456   4.806  20.280  0.00  0.00    +0.000 C 
ATOM      5  S   UNL     1       2.185   3.509  21.279  0.00  0.00    +0.000 S 
ATOM      6  N   UNL     1       3.186   4.899  19.106  0.00  0.00    +0.000 N 
ATOM      7  C   UNL     1       3.029   6.146  18.532  0.00  0.00    +0.000 C 
ATOM      8  O   UNL     1       3.387   6.559  17.442  0.00  0.00    +0.000 OA
ATOM      9  H   UNL     1       1.329   6.273  21.338  0.00  0.00    +0.000 HD
ENDROOT
BRANCH   1  13
ATOM     10  C   UNL     1      -0.235  10.336  22.451  0.00  0.00    +0.000 A 
ATOM     11  C   UNL     1      -0.533  10.541  21.104  0.00  0.00    +0.000 A 
ATOM     12  C   UNL     1       0.127   9.813  20.115  0.00  0.00    +0.000 A 
ATOM     13  C   UNL     1       1.108   8.882  20.467  0.00  0.00    +0.000 A 
ATOM     14  C   UNL     1       1.425   8.688  21.814  0.00  0.00    +0.000 A 
ATOM     15  C   UNL     1       0.753   9.415  22.806  0.00  0.00    +0.000 A 
BRANCH  10  17
ATOM     16  C   UNL     1      -1.148  12.465  22.908  0.00  0.00    +0.000 C 
ATOM     17  O   UNL     1      -0.937  11.121  23.324  0.00  0.00    +0.000 OA
ENDBRANCH  10  17
ENDBRANCH   1  13
BRANCH   6  18
ATOM     18  C   UNL     1       3.910   3.851  18.423  0.00  0.00    +0.000 C 
BRANCH  18  19
ATOM     19  N   UNL     1       5.371   4.062  18.512  0.00  0.00    +0.000 NA
ATOM     20  C   UNL     1       5.952   4.310  17.183  0.00  0.00    +0.000 C 
ATOM     21  C   UNL     1       7.411   4.769  17.208  0.00  0.00    +0.000 C 
ATOM     22  C   UNL     1       7.589   5.976  18.113  0.00  0.00    +0.000 C 
ATOM     23  C   UNL     1       7.074   5.639  19.503  0.00  0.00    +0.000 C 
ATOM     24  C   UNL     1       5.621   5.165  19.456  0.00  0.00    +0.000 C 
ENDBRANCH  18  19
ENDBRANCH   6  18
TORSDOF 4
ENDMDL
MODEL 5
REMARK VINA RESULT:      -6.6      3.112      4.165
REMARK  Name = 
REMARK  5 active torsions:
REMARK  status: ('A' for Active; 'I' for Inactive)
REMARK    1  A    between atoms: C_1  and  O_2
REMARK    2  A    between atoms: O_2  and  C_3
REMARK    3  A    between atoms: C_6  and  C_7
REMARK    4  A    between atoms: N_12  and  C_13
REMARK    5  A    between atoms: C_13  and  N_14
REMARK                            x       y       z     vdW  Elec       q    Type
REMARK                         _______ _______ _______ _____ _____    ______ ____
ROOT
ATOM      1  C   UNL     1       1.873   8.275  19.277  0.00  0.00    +0.000 C 
ATOM      2  C   UNL     1       2.222   6.996  19.436  0.00  0.00    +0.000 C 
ATOM      3  N   UNL     1       1.934   6.189  20.496  0.00  0.00    +0.000 N 
ATOM      4  C   UNL     1       2.464   4.928  20.287  0.00  0.00    +0.000 C 
ATOM      5  S   UNL     1       2.201   3.681  21.350  0.00  0.00    +0.000 S 
ATOM      6  N   UNL     1       3.167   4.957  19.093  0.00  0.00    +0.000 N 
ATOM      7  C   UNL     1       3.013   6.179  18.467  0.00  0.00    +0.000 C 
ATOM      8  O   UNL     1       3.349   6.537  17.351  0.00  0.00    +0.000 OA
ATOM      9  H   UNL     1       1.383   6.457  21.303  0.00  0.00    +0.000 HD
ENDROOT
BRANCH   1  13
ATOM     10  C   UNL     1      -0.240  10.347  22.346  0.00  0.00    +0.000 A 
ATOM     11  C   UNL     1       0.650   9.321  22.662  0.00  0.00    +0.000 A 
ATOM     12  C   UNL     1       1.362   8.668  21.657  0.00  0.00    +0.000 A 
ATOM     13  C   UNL     1       1.175   9.026  20.319  0.00  0.00    +0.000 A 
ATOM     14  C   UNL     1       0.269  10.041  19.996  0.00  0.00    +0.000 A 
ATOM     15  C   UNL     1      -0.438  10.701  21.009  0.00  0.00    +0.000 A 
BRANCH  10  17
ATOM     16  C   UNL     1      -2.021  11.700  23.101  0.00  0.00    +0.000 C 
ATOM     17  O   UNL     1      -0.889  10.898  23.416  0.00  0.00    +0.000 OA
ENDBRANCH  10  17
ENDBRANCH   1  13
BRANCH   6  18
ATOM     18  C   UNL     1       3.860   3.868  18.442  0.00  0.00    +0.000 C 
BRANCH  18  19
ATOM     19  N   UNL     1       5.326   4.057  18.496  0.00  0.00    +0.000 NA
ATOM     20  C   UNL     1       5.880   4.294  17.153  0.00  0.00    +0.000 C 
ATOM     21  C   UNL     1       7.345   4.731  17.143  0.00  0.00    +0.000 C 
ATOM     22  C   UNL     1       7.563   5.936  18.042  0.00  0.00    +0.000 C 
ATOM     23  C   UNL     1       7.076   5.610  19.444  0.00  0.00    +0.000 C 
ATOM     24  C   UNL     1       5.615   5.158  19.432  0.00  0.00    +0.000 C 
ENDBRANCH  18  19
ENDBRANCH   6  18
TORSDOF 4
ENDMDL
MODEL 6
REMARK VINA RESULT:      -6.5      4.612      9.069
REMARK  Name = 
REMARK  5 active torsions:
REMARK  status: ('A' for Active; 'I' for Inactive)
REMARK    1  A    between atoms: C_1  and  O_2
REMARK    2  A    between atoms: O_2  and  C_3
REMARK    3  A    between atoms: C_6  and  C_7
REMARK    4  A    between atoms: N_12  and  C_13
REMARK    5  A    between atoms: C_13  and  N_14
REMARK                            x       y       z     vdW  Elec       q    Type
REMARK                         _______ _______ _______ _____ _____    ______ ____
ROOT
ATOM      1  C   UNL     1       2.687   7.494  17.936  0.00  0.00    +0.000 C 
ATOM      2  C   UNL     1       2.068   8.314  18.788  0.00  0.00    +0.000 C 
ATOM      3  N   UNL     1       1.731   8.055  20.083  0.00  0.00    +0.000 N 
ATOM      4  C   UNL     1       1.106   9.158  20.638  0.00  0.00    +0.000 C 
ATOM      5  S   UNL     1       0.662   9.200  22.237  0.00  0.00    +0.000 S 
ATOM      6  N   UNL     1       0.982  10.118  19.646  0.00  0.00    +0.000 N 
ATOM      7  C   UNL     1       1.612   9.705  18.488  0.00  0.00    +0.000 C 
ATOM      8  O   UNL     1       1.843  10.318  17.460  0.00  0.00    +0.000 OA
ATOM      9  H   UNL     1       1.937   7.197  20.582  0.00  0.00    +0.000 HD
ENDROOT
BRANCH   1  13
ATOM     10  C   UNL     1       3.552   3.474  19.058  0.00  0.00    +0.000 A 
ATOM     11  C   UNL     1       2.338   3.800  18.455  0.00  0.00    +0.000 A 
ATOM     12  C   UNL     1       2.073   5.110  18.062  0.00  0.00    +0.000 A 
ATOM     13  C   UNL     1       3.019   6.115  18.286  0.00  0.00    +0.000 A 
ATOM     14  C   UNL     1       4.229   5.796  18.908  0.00  0.00    +0.000 A 
ATOM     15  C   UNL     1       4.496   4.476  19.294  0.00  0.00    +0.000 A 
BRANCH  10  17
ATOM     16  C   UNL     1       3.656   1.227  18.339  0.00  0.00    +0.000 C 
ATOM     17  O   UNL     1       3.686   2.160  19.413  0.00  0.00    +0.000 OA
ENDBRANCH  10  17
ENDBRANCH   1  13
BRANCH   6  18
ATOM     18  C   UNL     1       0.428  11.449  19.760  0.00  0.00    +0.000 C 
BRANCH  18  19
ATOM     19  N   UNL     1      -1.013  11.404  20.089  0.00  0.00    +0.000 NA
ATOM     20  C   UNL     1      -1.329  12.303  21.211  0.00  0.00    +0.000 C 
ATOM     21  C   UNL     1      -2.825  12.496  21.463  0.00  0.00    +0.000 C 
ATOM     22  C   UNL     1      -3.541  12.934  20.196  0.00  0.00    +0.000 C 
ATOM     23  C   UNL     1      -3.275  11.921  19.095  0.00  0.00    +0.000 C 
ATOM     24  C   UNL     1      -1.775  11.728  18.870  0.00  0.00    +0.000 C 
ENDBRANCH  18  19
ENDBRANCH   6  18
TORSDOF 4
ENDMDL
MODEL 7
REMARK VINA RESULT:      -6.5      4.508      8.356
REMARK  Name = 
REMARK  5 active torsions:
REMARK  status: ('A' for Active; 'I' for Inactive)
REMARK    1  A    between atoms: C_1  and  O_2
REMARK    2  A    between atoms: O_2  and  C_3
REMARK    3  A    between atoms: C_6  and  C_7
REMARK    4  A    between atoms: N_12  and  C_13
REMARK    5  A    between atoms: C_13  and  N_14
REMARK                            x       y       z     vdW  Elec       q    Type
REMARK                         _______ _______ _______ _____ _____    ______ ____
ROOT
ATOM      1  C   UNL     1       3.109   7.550  17.799  0.00  0.00    +0.000 C 
ATOM      2  C   UNL     1       2.272   8.282  18.538  0.00  0.00    +0.000 C 
ATOM      3  N   UNL     1       1.666   7.916  19.703  0.00  0.00    +0.000 N 
ATOM      4  C   UNL     1       0.875   8.953  20.169  0.00  0.00    +0.000 C 
ATOM      5  S   UNL     1       0.081   8.861  21.623  0.00  0.00    +0.000 S 
ATOM      6  N   UNL     1       0.928   9.978  19.237  0.00  0.00    +0.000 N 
ATOM      7  C   UNL     1       1.824   9.674  18.230  0.00  0.00    +0.000 C 
ATOM      8  O   UNL     1       2.249  10.369  17.323  0.00  0.00    +0.000 OA
ATOM      9  H   UNL     1       1.798   7.032  20.179  0.00  0.00    +0.000 HD
ENDROOT
BRANCH   1  13
ATOM     10  C   UNL     1       3.928   3.503  18.859  0.00  0.00    +0.000 A 
ATOM     11  C   UNL     1       2.714   3.853  18.268  0.00  0.00    +0.000 A 
ATOM     12  C   UNL     1       2.464   5.173  17.895  0.00  0.00    +0.000 A 
ATOM     13  C   UNL     1       3.425   6.161  18.127  0.00  0.00    +0.000 A 
ATOM     14  C   UNL     1       4.635   5.818  18.738  0.00  0.00    +0.000 A 
ATOM     15  C   UNL     1       4.886   4.489  19.103  0.00  0.00    +0.000 A 
BRANCH  10  17
ATOM     16  C   UNL     1       4.540   1.922  20.503  0.00  0.00    +0.000 C 
ATOM     17  O   UNL     1       4.047   2.182  19.194  0.00  0.00    +0.000 OA
ENDBRANCH  10  17
ENDBRANCH   1  13
BRANCH   6  18
ATOM     18  C   UNL     1       0.295  11.275  19.306  0.00  0.00    +0.000 C 
BRANCH  18  19
ATOM     19  N   UNL     1      -0.884  11.345  18.416  0.00  0.00    +0.000 NA
ATOM     20  C   UNL     1      -1.093  10.068  17.713  0.00  0.00    +0.000 C 
ATOM     21  C   UNL     1      -2.419   9.975  16.956  0.00  0.00    +0.000 C 
ATOM     22  C   UNL     1      -3.593  10.294  17.867  0.00  0.00    +0.000 C 
ATOM     23  C   UNL     1      -3.387  11.666  18.487  0.00  0.00    +0.000 C 
ATOM     24  C   UNL     1      -2.050  11.746  19.224  0.00  0.00    +0.000 C 
ENDBRANCH  18  19
ENDBRANCH   6  18
TORSDOF 4
ENDMDL
MODEL 8
REMARK VINA RESULT:      -6.5      4.649      8.379
REMARK  Name = 
REMARK  5 active torsions:
REMARK  status: ('A' for Active; 'I' for Inactive)
REMARK    1  A    between atoms: C_1  and  O_2
REMARK    2  A    between atoms: O_2  and  C_3
REMARK    3  A    between atoms: C_6  and  C_7
REMARK    4  A    between atoms: N_12  and  C_13
REMARK    5  A    between atoms: C_13  and  N_14
REMARK                            x       y       z     vdW  Elec       q    Type
REMARK                         _______ _______ _______ _____ _____    ______ ____
ROOT
ATOM      1  C   UNL     1       2.934   7.314  17.943  0.00  0.00    +0.000 C 
ATOM      2  C   UNL     1       2.161   8.133  18.659  0.00  0.00    +0.000 C 
ATOM      3  N   UNL     1       1.531   7.853  19.835  0.00  0.00    +0.000 N 
ATOM      4  C   UNL     1       0.827   8.964  20.270  0.00  0.00    +0.000 C 
ATOM      5  S   UNL     1       0.033   8.981  21.727  0.00  0.00    +0.000 S 
ATOM      6  N   UNL     1       0.959   9.952  19.306  0.00  0.00    +0.000 N 
ATOM      7  C   UNL     1       1.824   9.546  18.308  0.00  0.00    +0.000 C 
ATOM      8  O   UNL     1       2.300  10.176  17.379  0.00  0.00    +0.000 OA
ATOM      9  H   UNL     1       1.594   6.977  20.339  0.00  0.00    +0.000 HD
ENDROOT
BRANCH   1  13
ATOM     10  C   UNL     1       3.646   3.230  18.937  0.00  0.00    +0.000 A 
ATOM     11  C   UNL     1       4.535   4.226  19.338  0.00  0.00    +0.000 A 
ATOM     12  C   UNL     1       4.282   5.563  19.037  0.00  0.00    +0.000 A 
ATOM     13  C   UNL     1       3.138   5.915  18.314  0.00  0.00    +0.000 A 
ATOM     14  C   UNL     1       2.254   4.917  17.892  0.00  0.00    +0.000 A 
ATOM     15  C   UNL     1       2.508   3.576  18.204  0.00  0.00    +0.000 A 
BRANCH  10  17
ATOM     16  C   UNL     1       4.756   1.834  20.484  0.00  0.00    +0.000 C 
ATOM     17  O   UNL     1       4.013   1.957  19.277  0.00  0.00    +0.000 OA
ENDBRANCH  10  17
ENDBRANCH   1  13
BRANCH   6  18
ATOM     18  C   UNL     1       0.432  11.297  19.335  0.00  0.00    +0.000 C 
BRANCH  18  19
ATOM     19  N   UNL     1      -0.777  11.418  18.492  0.00  0.00    +0.000 NA
ATOM     20  C   UNL     1      -1.028  10.175  17.744  0.00  0.00    +0.000 C 
ATOM     21  C   UNL     1      -2.381  10.129  17.033  0.00  0.00    +0.000 C 
ATOM     22  C   UNL     1      -3.517  10.422  17.998  0.00  0.00    +0.000 C 
ATOM     23  C   UNL     1      -3.271  11.764  18.667  0.00  0.00    +0.000 C 
ATOM     24  C   UNL     1      -1.908  11.798  19.358  0.00  0.00    +0.000 C 
ENDBRANCH  18  19
ENDBRANCH   6  18
TORSDOF 4
ENDMDL
MODEL 9
REMARK VINA RESULT:      -6.5      4.965     10.673
REMARK  Name = 
REMARK  5 active torsions:
REMARK  status: ('A' for Active; 'I' for Inactive)
REMARK    1  A    between atoms: C_1  and  O_2
REMARK    2  A    between atoms: O_2  and  C_3
REMARK    3  A    between atoms: C_6  and  C_7
REMARK    4  A    between atoms: N_12  and  C_13
REMARK    5  A    between atoms: C_13  and  N_14
REMARK                            x       y       z     vdW  Elec       q    Type
REMARK                         _______ _______ _______ _____ _____    ______ ____
ROOT
ATOM      1  C   UNL     1       1.141   8.422  21.416  0.00  0.00    +0.000 C 
ATOM      2  C   UNL     1       0.385   9.459  21.049  0.00  0.00    +0.000 C 
ATOM      3  N   UNL     1      -0.075   9.741  19.797  0.00  0.00    +0.000 N 
ATOM      4  C   UNL     1      -0.831  10.900  19.822  0.00  0.00    +0.000 C 
ATOM      5  S   UNL     1      -1.620  11.460  18.473  0.00  0.00    +0.000 S 
ATOM      6  N   UNL     1      -0.791  11.404  21.113  0.00  0.00    +0.000 N 
ATOM      7  C   UNL     1      -0.117  10.538  21.952  0.00  0.00    +0.000 C 
ATOM      8  O   UNL     1       0.003  10.556  23.166  0.00  0.00    +0.000 OA
ATOM      9  H   UNL     1       0.080   9.171  18.974  0.00  0.00    +0.000 HD
ENDROOT
BRANCH   1  13
ATOM     10  C   UNL     1       2.557   5.648  18.504  0.00  0.00    +0.000 A 
ATOM     11  C   UNL     1       2.598   7.021  18.260  0.00  0.00    +0.000 A 
ATOM     12  C   UNL     1       2.163   7.924  19.228  0.00  0.00    +0.000 A 
ATOM     13  C   UNL     1       1.664   7.459  20.448  0.00  0.00    +0.000 A 
ATOM     14  C   UNL     1       1.603   6.084  20.690  0.00  0.00    +0.000 A 
ATOM     15  C   UNL     1       2.050   5.179  19.718  0.00  0.00    +0.000 A 
BRANCH  10  17
ATOM     16  C   UNL     1       2.476   3.541  17.442  0.00  0.00    +0.000 C 
ATOM     17  O   UNL     1       2.996   4.865  17.473  0.00  0.00    +0.000 OA
ENDBRANCH  10  17
ENDBRANCH   1  13
BRANCH   6  18
ATOM     18  C   UNL     1      -1.460  12.576  21.632  0.00  0.00    +0.000 C 
BRANCH  18  19
ATOM     19  N   UNL     1      -2.781  12.232  22.201  0.00  0.00    +0.000 NA
ATOM     20  C   UNL     1      -2.865  12.621  23.618  0.00  0.00    +0.000 C 
ATOM     21  C   UNL     1      -4.268  12.517  24.218  0.00  0.00    +0.000 C 
ATOM     22  C   UNL     1      -5.279  13.284  23.382  0.00  0.00    +0.000 C 
ATOM     23  C   UNL     1      -5.233  12.776  21.950  0.00  0.00    +0.000 C 
ATOM     24  C   UNL     1      -3.820  12.871  21.374  0.00  0.00    +0.000 C 
ENDBRANCH  18  19
ENDBRANCH   6  18
TORSDOF 4
ENDMDL
