MODEL 1
REMARK VINA RESULT:      -8.2      0.000      0.000
REMARK  Name = 
REMARK  5 active torsions:
REMARK  status: ('A' for Active; 'I' for Inactive)
REMARK    1  A    between atoms: C_5  and  O_6
REMARK    2  A    between atoms: O_6  and  C_7
REMARK    3  A    between atoms: N_10  and  C_11
REMARK    4  A    between atoms: C_20  and  N_21
REMARK    5  A    between atoms: N_21  and  C_22
REMARK                            x       y       z     vdW  Elec       q    Type
REMARK                         _______ _______ _______ _____ _____    ______ ____
ROOT
ATOM      1  C   UNL     1       0.519   9.651  19.520  0.00  0.00    +0.000 C 
ATOM      2  C   UNL     1       0.770   8.389  20.353  0.00  0.00    +0.000 C 
ATOM      3  C   UNL     1       2.075   7.632  20.083  0.00  0.00    +0.000 C 
ATOM      4  N   UNL     1       2.455   7.600  18.676  0.00  0.00    +0.000 N 
ATOM      5  C   UNL     1       2.221   8.802  17.865  0.00  0.00    +0.000 C 
ATOM      6  C   UNL     1       0.809   9.336  18.060  0.00  0.00    +0.000 C 
ENDROOT
BRANCH   4   7
ATOM      7  C   UNL     1       3.313   6.638  18.138  0.00  0.00    +0.000 A 
ATOM      8  N   UNL     1       4.558   7.092  17.833  0.00  0.00    +0.000 NA
ATOM      9  C   UNL     1       5.419   6.298  17.169  0.00  0.00    +0.000 A 
ATOM     10  C   UNL     1       6.668   6.751  16.803  0.00  0.00    +0.000 A 
ATOM     11  N   UNL     1       7.573   6.018  16.118  0.00  0.00    +0.000 NA
ATOM     12  N   UNL     1       7.246   4.761  15.763  0.00  0.00    +0.000 NA
ATOM     13  C   UNL     1       6.028   4.281  16.108  0.00  0.00    +0.000 A 
ATOM     14  C   UNL     1       5.078   4.999  16.807  0.00  0.00    +0.000 A 
ATOM     15  N   UNL     1       3.875   4.485  17.133  0.00  0.00    +0.000 NA
ATOM     16  C   UNL     1       2.994   5.284  17.800  0.00  0.00    +0.000 A 
BRANCH  16  17
ATOM     17  N   UNL     1       1.777   4.674  18.210  0.00  0.00    +0.000 N 
ATOM     18  H   UNL     1       1.145   5.426  18.475  0.00  0.00    +0.000 HD
BRANCH  17  19
ATOM     19  C   UNL     1       1.832   3.545  19.154  0.00  0.00    +0.000 C 
ATOM     20  C   UNL     1       0.933   3.540  20.361  0.00  0.00    +0.000 C 
ATOM     21  C   UNL     1       0.679   2.581  19.236  0.00  0.00    +0.000 C 
ENDBRANCH  17  19
ENDBRANCH  16  17
ENDBRANCH   4   7
BRANCH   1  22
ATOM     22  O   UNL     1       1.305  10.759  19.988  0.00  0.00    +0.000 OA
BRANCH  22  27
ATOM     23  F   UNL     1      -0.418  15.800  18.532  0.00  0.00    +0.000 F 
ATOM     24  C   UNL     1       0.031  14.583  18.866  0.00  0.00    +0.000 A 
ATOM     25  C   UNL     1      -0.752  13.757  19.661  0.00  0.00    +0.000 A 
ATOM     26  C   UNL     1      -0.281  12.484  20.010  0.00  0.00    +0.000 A 
ATOM     27  C   UNL     1       0.964  12.028  19.568  0.00  0.00    +0.000 A 
ATOM     28  C   UNL     1       1.731  12.897  18.764  0.00  0.00    +0.000 A 
ATOM     29  F   UNL     1       2.943  12.556  18.305  0.00  0.00    +0.000 F 
ATOM     30  C   UNL     1       1.271  14.165  18.414  0.00  0.00    +0.000 A 
ENDBRANCH  22  27
ENDBRANCH   1  22
TORSDOF 5
ENDMDL
MODEL 2
REMARK VINA RESULT:      -8.0      0.890      1.319
REMARK  Name = 
REMARK  5 active torsions:
REMARK  status: ('A' for Active; 'I' for Inactive)
REMARK    1  A    between atoms: C_5  and  O_6
REMARK    2  A    between atoms: O_6  and  C_7
REMARK    3  A    between atoms: N_10  and  C_11
REMARK    4  A    between atoms: C_20  and  N_21
REMARK    5  A    between atoms: N_21  and  C_22
REMARK                            x       y       z     vdW  Elec       q    Type
REMARK                         _______ _______ _______ _____ _____    ______ ____
ROOT
ATOM      1  C   UNL     1       0.537   9.702  19.481  0.00  0.00    +0.000 C 
ATOM      2  C   UNL     1       0.773   8.449  20.332  0.00  0.00    +0.000 C 
ATOM      3  C   UNL     1       2.073   7.677  20.079  0.00  0.00    +0.000 C 
ATOM      4  N   UNL     1       2.461   7.624  18.674  0.00  0.00    +0.000 N 
ATOM      5  C   UNL     1       2.241   8.818  17.847  0.00  0.00    +0.000 C 
ATOM      6  C   UNL     1       0.832   9.365  18.026  0.00  0.00    +0.000 C 
ENDROOT
BRANCH   4   7
ATOM      7  C   UNL     1       3.314   6.649  18.153  0.00  0.00    +0.000 A 
ATOM      8  N   UNL     1       4.545   7.101  17.796  0.00  0.00    +0.000 NA
ATOM      9  C   UNL     1       5.397   6.288  17.143  0.00  0.00    +0.000 A 
ATOM     10  C   UNL     1       6.631   6.737  16.725  0.00  0.00    +0.000 A 
ATOM     11  N   UNL     1       7.524   5.984  16.047  0.00  0.00    +0.000 NA
ATOM     12  N   UNL     1       7.202   4.710  15.753  0.00  0.00    +0.000 NA
ATOM     13  C   UNL     1       5.998   4.234  16.151  0.00  0.00    +0.000 A 
ATOM     14  C   UNL     1       5.059   4.972  16.845  0.00  0.00    +0.000 A 
ATOM     15  N   UNL     1       3.871   4.461  17.224  0.00  0.00    +0.000 NA
ATOM     16  C   UNL     1       3.000   5.279  17.881  0.00  0.00    +0.000 A 
BRANCH  16  17
ATOM     17  N   UNL     1       1.801   4.675  18.349  0.00  0.00    +0.000 N 
ATOM     18  H   UNL     1       1.145   5.430  18.539  0.00  0.00    +0.000 HD
BRANCH  17  19
ATOM     19  C   UNL     1       1.887   3.647  19.400  0.00  0.00    +0.000 C 
ATOM     20  C   UNL     1       1.953   4.064  20.845  0.00  0.00    +0.000 C 
ATOM     21  C   UNL     1       0.713   3.409  20.312  0.00  0.00    +0.000 C 
ENDBRANCH  17  19
ENDBRANCH  16  17
ENDBRANCH   4   7
BRANCH   1  22
ATOM     22  O   UNL     1       1.329  10.809  19.940  0.00  0.00    +0.000 OA
BRANCH  22  27
ATOM     23  F   UNL     1       0.032  15.985  18.516  0.00  0.00    +0.000 F 
ATOM     24  C   UNL     1       0.313  14.725  18.876  0.00  0.00    +0.000 A 
ATOM     25  C   UNL     1       1.566  14.196  18.597  0.00  0.00    +0.000 A 
ATOM     26  C   UNL     1       1.858  12.877  18.974  0.00  0.00    +0.000 A 
ATOM     27  C   UNL     1       0.910  12.087  19.630  0.00  0.00    +0.000 A 
ATOM     28  C   UNL     1      -0.351  12.660  19.894  0.00  0.00    +0.000 A 
ATOM     29  F   UNL     1      -1.329  11.978  20.504  0.00  0.00    +0.000 F 
ATOM     30  C   UNL     1      -0.650  13.969  19.521  0.00  0.00    +0.000 A 
ENDBRANCH  22  27
ENDBRANCH   1  22
TORSDOF 5
ENDMDL
MODEL 3
REMARK VINA RESULT:      -7.9      4.158      8.548
REMARK  Name = 
REMARK  5 active torsions:
REMARK  status: ('A' for Active; 'I' for Inactive)
REMARK    1  A    between atoms: C_5  and  O_6
REMARK    2  A    between atoms: O_6  and  C_7
REMARK    3  A    between atoms: N_10  and  C_11
REMARK    4  A    between atoms: C_20  and  N_21
REMARK    5  A    between atoms: N_21  and  C_22
REMARK                            x       y       z     vdW  Elec       q    Type
REMARK                         _______ _______ _______ _____ _____    ______ ____
ROOT
ATOM      1  C   UNL     1       5.445   4.785  16.194  0.00  0.00    +0.000 C 
ATOM      2  C   UNL     1       4.374   4.016  16.976  0.00  0.00    +0.000 C 
ATOM      3  C   UNL     1       3.150   4.814  17.439  0.00  0.00    +0.000 C 
ATOM      4  N   UNL     1       3.464   6.170  17.875  0.00  0.00    +0.000 N 
ATOM      5  C   UNL     1       4.487   6.919  17.134  0.00  0.00    +0.000 C 
ATOM      6  C   UNL     1       5.743   6.085  16.926  0.00  0.00    +0.000 C 
ENDROOT
BRANCH   4   7
ATOM      7  C   UNL     1       2.638   6.910  18.725  0.00  0.00    +0.000 A 
ATOM      8  N   UNL     1       2.221   8.101  18.219  0.00  0.00    +0.000 NA
ATOM      9  C   UNL     1       1.550   8.965  19.004  0.00  0.00    +0.000 A 
ATOM     10  C   UNL     1       1.160  10.200  18.531  0.00  0.00    +0.000 A 
ATOM     11  N   UNL     1       0.504  11.123  19.269  0.00  0.00    +0.000 NA
ATOM     12  N   UNL     1       0.206  10.833  20.549  0.00  0.00    +0.000 NA
ATOM     13  C   UNL     1       0.572   9.628  21.046  0.00  0.00    +0.000 A 
ATOM     14  C   UNL     1       1.242   8.659  20.325  0.00  0.00    +0.000 A 
ATOM     15  N   UNL     1       1.588   7.469  20.856  0.00  0.00    +0.000 NA
ATOM     16  C   UNL     1       2.273   6.589  20.072  0.00  0.00    +0.000 A 
BRANCH  16  17
ATOM     17  N   UNL     1       2.533   5.311  20.638  0.00  0.00    +0.000 N 
ATOM     18  H   UNL     1       3.273   4.887  20.082  0.00  0.00    +0.000 HD
BRANCH  17  19
ATOM     19  C   UNL     1       1.396   4.424  20.938  0.00  0.00    +0.000 C 
ATOM     20  C   UNL     1       0.986   3.375  19.941  0.00  0.00    +0.000 C 
ATOM     21  C   UNL     1       1.641   2.967  21.227  0.00  0.00    +0.000 C 
ENDBRANCH  17  19
ENDBRANCH  16  17
ENDBRANCH   4   7
BRANCH   1  22
ATOM     22  O   UNL     1       5.039   5.023  14.836  0.00  0.00    +0.000 OA
BRANCH  22  27
ATOM     23  F   UNL     1       7.468   2.317  10.681  0.00  0.00    +0.000 F 
ATOM     24  C   UNL     1       6.911   2.991  11.696  0.00  0.00    +0.000 A 
ATOM     25  C   UNL     1       5.575   2.778  12.008  0.00  0.00    +0.000 A 
ATOM     26  C   UNL     1       4.993   3.485  13.070  0.00  0.00    +0.000 A 
ATOM     27  C   UNL     1       5.736   4.397  13.825  0.00  0.00    +0.000 A 
ATOM     28  C   UNL     1       7.089   4.585  13.475  0.00  0.00    +0.000 A 
ATOM     29  F   UNL     1       7.879   5.448  14.128  0.00  0.00    +0.000 F 
ATOM     30  C   UNL     1       7.675   3.890  12.420  0.00  0.00    +0.000 A 
ENDBRANCH  22  27
ENDBRANCH   1  22
TORSDOF 5
ENDMDL
MODEL 4
REMARK VINA RESULT:      -7.8      1.467      1.723
REMARK  Name = 
REMARK  5 active torsions:
REMARK  status: ('A' for Active; 'I' for Inactive)
REMARK    1  A    between atoms: C_5  and  O_6
REMARK    2  A    between atoms: O_6  and  C_7
REMARK    3  A    between atoms: N_10  and  C_11
REMARK    4  A    between atoms: C_20  and  N_21
REMARK    5  A    between atoms: N_21  and  C_22
REMARK                            x       y       z     vdW  Elec       q    Type
REMARK                         _______ _______ _______ _____ _____    ______ ____
ROOT
ATOM      1  C   UNL     1       0.554   9.606  19.667  0.00  0.00    +0.000 C 
ATOM      2  C   UNL     1       0.771   8.304  20.448  0.00  0.00    +0.000 C 
ATOM      3  C   UNL     1       2.060   7.529  20.154  0.00  0.00    +0.000 C 
ATOM      4  N   UNL     1       2.448   7.548  18.748  0.00  0.00    +0.000 N 
ATOM      5  C   UNL     1       2.247   8.788  17.987  0.00  0.00    +0.000 C 
ATOM      6  C   UNL     1       0.846   9.345  18.197  0.00  0.00    +0.000 C 
ENDROOT
BRANCH   4   7
ATOM      7  C   UNL     1       3.288   6.590  18.174  0.00  0.00    +0.000 A 
ATOM      8  N   UNL     1       4.544   7.028  17.896  0.00  0.00    +0.000 NA
ATOM      9  C   UNL     1       5.392   6.243  17.204  0.00  0.00    +0.000 A 
ATOM     10  C   UNL     1       6.653   6.682  16.865  0.00  0.00    +0.000 A 
ATOM     11  N   UNL     1       7.545   5.957  16.154  0.00  0.00    +0.000 NA
ATOM     12  N   UNL     1       7.193   4.724  15.744  0.00  0.00    +0.000 NA
ATOM     13  C   UNL     1       5.962   4.259  16.062  0.00  0.00    +0.000 A 
ATOM     14  C   UNL     1       5.023   4.969  16.785  0.00  0.00    +0.000 A 
ATOM     15  N   UNL     1       3.807   4.469  17.083  0.00  0.00    +0.000 NA
ATOM     16  C   UNL     1       2.939   5.259  17.778  0.00  0.00    +0.000 A 
BRANCH  16  17
ATOM     17  N   UNL     1       1.707   4.660  18.155  0.00  0.00    +0.000 N 
ATOM     18  H   UNL     1       1.043   5.418  18.299  0.00  0.00    +0.000 HD
BRANCH  17  19
ATOM     19  C   UNL     1       1.711   3.629  19.205  0.00  0.00    +0.000 C 
ATOM     20  C   UNL     1       2.502   3.853  20.466  0.00  0.00    +0.000 C 
ATOM     21  C   UNL     1       1.003   3.885  20.509  0.00  0.00    +0.000 C 
ENDBRANCH  17  19
ENDBRANCH  16  17
ENDBRANCH   4   7
BRANCH   1  22
ATOM     22  O   UNL     1       1.362  10.675  20.186  0.00  0.00    +0.000 OA
BRANCH  22  27
ATOM     23  F   UNL     1      -1.343  14.364  23.279  0.00  0.00    +0.000 F 
ATOM     24  C   UNL     1      -0.668  13.497  22.513  0.00  0.00    +0.000 A 
ATOM     25  C   UNL     1      -0.951  12.141  22.600  0.00  0.00    +0.000 A 
ATOM     26  C   UNL     1      -0.243  11.234  21.799  0.00  0.00    +0.000 A 
ATOM     27  C   UNL     1       0.742  11.672  20.909  0.00  0.00    +0.000 A 
ATOM     28  C   UNL     1       1.002  13.057  20.852  0.00  0.00    +0.000 A 
ATOM     29  F   UNL     1       1.937  13.572  20.042  0.00  0.00    +0.000 F 
ATOM     30  C   UNL     1       0.305  13.965  21.646  0.00  0.00    +0.000 A 
ENDBRANCH  22  27
ENDBRANCH   1  22
TORSDOF 5
ENDMDL
MODEL 5
REMARK VINA RESULT:      -7.8      2.004      2.621
REMARK  Name = 
REMARK  5 active torsions:
REMARK  status: ('A' for Active; 'I' for Inactive)
REMARK    1  A    between atoms: C_5  and  O_6
REMARK    2  A    between atoms: O_6  and  C_7
REMARK    3  A    between atoms: N_10  and  C_11
REMARK    4  A    between atoms: C_20  and  N_21
REMARK    5  A    between atoms: N_21  and  C_22
REMARK                            x       y       z     vdW  Elec       q    Type
REMARK                         _______ _______ _______ _____ _____    ______ ____
ROOT
ATOM      1  C   UNL     1       0.818   9.936  19.821  0.00  0.00    +0.000 C 
ATOM      2  C   UNL     1       1.408  10.106  18.416  0.00  0.00    +0.000 C 
ATOM      3  C   UNL     1       1.848   8.827  17.695  0.00  0.00    +0.000 C 
ATOM      4  N   UNL     1       2.465   7.839  18.573  0.00  0.00    +0.000 N 
ATOM      5  C   UNL     1       1.910   7.666  19.922  0.00  0.00    +0.000 C 
ATOM      6  C   UNL     1       1.720   9.006  20.619  0.00  0.00    +0.000 C 
ENDROOT
BRANCH   4   7
ATOM      7  C   UNL     1       3.318   6.834  18.112  0.00  0.00    +0.000 A 
ATOM      8  N   UNL     1       4.560   7.259  17.760  0.00  0.00    +0.000 NA
ATOM      9  C   UNL     1       5.415   6.409  17.159  0.00  0.00    +0.000 A 
ATOM     10  C   UNL     1       6.662   6.827  16.747  0.00  0.00    +0.000 A 
ATOM     11  N   UNL     1       7.560   6.036  16.119  0.00  0.00    +0.000 NA
ATOM     12  N   UNL     1       7.230   4.754  15.876  0.00  0.00    +0.000 NA
ATOM     13  C   UNL     1       6.014   4.307  16.271  0.00  0.00    +0.000 A 
ATOM     14  C   UNL     1       5.070   5.085  16.913  0.00  0.00    +0.000 A 
ATOM     15  N   UNL     1       3.869   4.602  17.292  0.00  0.00    +0.000 NA
ATOM     16  C   UNL     1       2.994   5.456  17.895  0.00  0.00    +0.000 A 
BRANCH  16  17
ATOM     17  N   UNL     1       1.780   4.886  18.365  0.00  0.00    +0.000 N 
ATOM     18  H   UNL     1       1.168   5.659  18.616  0.00  0.00    +0.000 HD
BRANCH  17  19
ATOM     19  C   UNL     1       1.845   3.797  19.355  0.00  0.00    +0.000 C 
ATOM     20  C   UNL     1       0.637   3.483  20.195  0.00  0.00    +0.000 C 
ATOM     21  C   UNL     1       1.070   2.528  19.123  0.00  0.00    +0.000 C 
ENDBRANCH  17  19
ENDBRANCH  16  17
ENDBRANCH   4   7
BRANCH   1  22
ATOM     22  O   UNL     1      -0.534   9.452  19.773  0.00  0.00    +0.000 OA
BRANCH  22  27
ATOM     23  F   UNL     1      -4.357  12.151  16.842  0.00  0.00    +0.000 F 
ATOM     24  C   UNL     1      -3.428  11.525  17.577  0.00  0.00    +0.000 A 
ATOM     25  C   UNL     1      -2.989  10.263  17.197  0.00  0.00    +0.000 A 
ATOM     26  C   UNL     1      -2.017   9.609  17.967  0.00  0.00    +0.000 A 
ATOM     27  C   UNL     1      -1.477  10.207  19.109  0.00  0.00    +0.000 A 
ATOM     28  C   UNL     1      -1.950  11.488  19.462  0.00  0.00    +0.000 A 
ATOM     29  F   UNL     1      -1.505  12.135  20.547  0.00  0.00    +0.000 F 
ATOM     30  C   UNL     1      -2.918  12.144  18.704  0.00  0.00    +0.000 A 
ENDBRANCH  22  27
ENDBRANCH   1  22
TORSDOF 5
ENDMDL
MODEL 6
REMARK VINA RESULT:      -7.7      1.621      1.964
REMARK  Name = 
REMARK  5 active torsions:
REMARK  status: ('A' for Active; 'I' for Inactive)
REMARK    1  A    between atoms: C_5  and  O_6
REMARK    2  A    between atoms: O_6  and  C_7
REMARK    3  A    between atoms: N_10  and  C_11
REMARK    4  A    between atoms: C_20  and  N_21
REMARK    5  A    between atoms: N_21  and  C_22
REMARK                            x       y       z     vdW  Elec       q    Type
REMARK                         _______ _______ _______ _____ _____    ______ ____
ROOT
ATOM      1  C   UNL     1       0.540   9.585  19.689  0.00  0.00    +0.000 C 
ATOM      2  C   UNL     1       0.744   8.274  20.457  0.00  0.00    +0.000 C 
ATOM      3  C   UNL     1       2.034   7.498  20.168  0.00  0.00    +0.000 C 
ATOM      4  N   UNL     1       2.438   7.532  18.767  0.00  0.00    +0.000 N 
ATOM      5  C   UNL     1       2.249   8.782  18.019  0.00  0.00    +0.000 C 
ATOM      6  C   UNL     1       0.848   9.341  18.219  0.00  0.00    +0.000 C 
ENDROOT
BRANCH   4   7
ATOM      7  C   UNL     1       3.282   6.579  18.192  0.00  0.00    +0.000 A 
ATOM      8  N   UNL     1       4.532   7.026  17.902  0.00  0.00    +0.000 NA
ATOM      9  C   UNL     1       5.381   6.245  17.206  0.00  0.00    +0.000 A 
ATOM     10  C   UNL     1       6.636   6.693  16.856  0.00  0.00    +0.000 A 
ATOM     11  N   UNL     1       7.528   5.972  16.142  0.00  0.00    +0.000 NA
ATOM     12  N   UNL     1       7.183   4.734  15.741  0.00  0.00    +0.000 NA
ATOM     13  C   UNL     1       5.959   4.260  16.070  0.00  0.00    +0.000 A 
ATOM     14  C   UNL     1       5.020   4.966  16.797  0.00  0.00    +0.000 A 
ATOM     15  N   UNL     1       3.810   4.457  17.107  0.00  0.00    +0.000 NA
ATOM     16  C   UNL     1       2.942   5.243  17.805  0.00  0.00    +0.000 A 
BRANCH  16  17
ATOM     17  N   UNL     1       1.717   4.636  18.194  0.00  0.00    +0.000 N 
ATOM     18  H   UNL     1       1.053   5.389  18.359  0.00  0.00    +0.000 HD
BRANCH  17  19
ATOM     19  C   UNL     1       1.741   3.590  19.231  0.00  0.00    +0.000 C 
ATOM     20  C   UNL     1       2.453   3.848  20.531  0.00  0.00    +0.000 C 
ATOM     21  C   UNL     1       0.955   3.778  20.501  0.00  0.00    +0.000 C 
ENDBRANCH  17  19
ENDBRANCH  16  17
ENDBRANCH   4   7
BRANCH   1  22
ATOM     22  O   UNL     1       1.344  10.645  20.231  0.00  0.00    +0.000 OA
BRANCH  22  27
ATOM     23  F   UNL     1      -1.007  15.103  22.487  0.00  0.00    +0.000 F 
ATOM     24  C   UNL     1      -0.455  14.000  21.964  0.00  0.00    +0.000 A 
ATOM     25  C   UNL     1       0.449  14.117  20.916  0.00  0.00    +0.000 A 
ATOM     26  C   UNL     1       1.025  12.962  20.369  0.00  0.00    +0.000 A 
ATOM     27  C   UNL     1       0.709  11.693  20.863  0.00  0.00    +0.000 A 
ATOM     28  C   UNL     1      -0.215  11.617  21.925  0.00  0.00    +0.000 A 
ATOM     29  F   UNL     1      -0.593  10.446  22.456  0.00  0.00    +0.000 F 
ATOM     30  C   UNL     1      -0.794  12.759  22.474  0.00  0.00    +0.000 A 
ENDBRANCH  22  27
ENDBRANCH   1  22
TORSDOF 5
ENDMDL
MODEL 7
REMARK VINA RESULT:      -7.7      4.367      9.053
REMARK  Name = 
REMARK  5 active torsions:
REMARK  status: ('A' for Active; 'I' for Inactive)
REMARK    1  A    between atoms: C_5  and  O_6
REMARK    2  A    between atoms: O_6  and  C_7
REMARK    3  A    between atoms: N_10  and  C_11
REMARK    4  A    between atoms: C_20  and  N_21
REMARK    5  A    between atoms: N_21  and  C_22
REMARK                            x       y       z     vdW  Elec       q    Type
REMARK                         _______ _______ _______ _____ _____    ______ ____
ROOT
ATOM      1  C   UNL     1       2.778   6.983  18.777  0.00  0.00    +0.000 C 
ATOM      2  C   UNL     1       2.245   7.372  20.161  0.00  0.00    +0.000 C 
ATOM      3  C   UNL     1       1.037   8.315  20.195  0.00  0.00    +0.000 C 
ATOM      4  N   UNL     1       1.071   9.349  19.167  0.00  0.00    +0.000 N 
ATOM      5  C   UNL     1       1.579   8.991  17.836  0.00  0.00    +0.000 C 
ATOM      6  C   UNL     1       2.901   8.242  17.931  0.00  0.00    +0.000 C 
ENDROOT
BRANCH   4   7
ATOM      7  C   UNL     1       0.357  10.546  19.264  0.00  0.00    +0.000 A 
ATOM      8  N   UNL     1       0.744  11.359  20.283  0.00  0.00    +0.000 NA
ATOM      9  C   UNL     1       0.030  12.464  20.569  0.00  0.00    +0.000 A 
ATOM     10  C   UNL     1       0.371  13.278  21.628  0.00  0.00    +0.000 A 
ATOM     11  N   UNL     1      -0.312  14.388  21.984  0.00  0.00    +0.000 NA
ATOM     12  N   UNL     1      -1.397  14.734  21.267  0.00  0.00    +0.000 NA
ATOM     13  C   UNL     1      -1.760  13.960  20.217  0.00  0.00    +0.000 A 
ATOM     14  C   UNL     1      -1.089  12.819  19.823  0.00  0.00    +0.000 A 
ATOM     15  N   UNL     1      -1.481  12.074  18.770  0.00  0.00    +0.000 NA
ATOM     16  C   UNL     1      -0.768  10.949  18.476  0.00  0.00    +0.000 A 
BRANCH  16  17
ATOM     17  N   UNL     1      -1.155  10.247  17.302  0.00  0.00    +0.000 N 
ATOM     18  H   UNL     1      -0.477  10.483  16.581  0.00  0.00    +0.000 HD
BRANCH  17  19
ATOM     19  C   UNL     1      -2.563  10.302  16.875  0.00  0.00    +0.000 C 
ATOM     20  C   UNL     1      -2.949  11.144  15.689  0.00  0.00    +0.000 C 
ATOM     21  C   UNL     1      -2.979   9.648  15.584  0.00  0.00    +0.000 C 
ENDBRANCH  17  19
ENDBRANCH  16  17
ENDBRANCH   4   7
BRANCH   1  22
ATOM     22  O   UNL     1       1.944   5.999  18.146  0.00  0.00    +0.000 OA
BRANCH  22  27
ATOM     23  F   UNL     1       3.649   0.752  18.380  0.00  0.00    +0.000 F 
ATOM     24  C   UNL     1       3.208   2.017  18.347  0.00  0.00    +0.000 A 
ATOM     25  C   UNL     1       3.850   2.946  17.540  0.00  0.00    +0.000 A 
ATOM     26  C   UNL     1       3.389   4.269  17.507  0.00  0.00    +0.000 A 
ATOM     27  C   UNL     1       2.289   4.670  18.270  0.00  0.00    +0.000 A 
ATOM     28  C   UNL     1       1.665   3.697  19.079  0.00  0.00    +0.000 A 
ATOM     29  F   UNL     1       0.614   3.987  19.857  0.00  0.00    +0.000 F 
ATOM     30  C   UNL     1       2.119   2.380  19.120  0.00  0.00    +0.000 A 
ENDBRANCH  22  27
ENDBRANCH   1  22
TORSDOF 5
ENDMDL
MODEL 8
REMARK VINA RESULT:      -7.6      5.254      7.226
REMARK  Name = 
REMARK  5 active torsions:
REMARK  status: ('A' for Active; 'I' for Inactive)
REMARK    1  A    between atoms: C_5  and  O_6
REMARK    2  A    between atoms: O_6  and  C_7
REMARK    3  A    between atoms: N_10  and  C_11
REMARK    4  A    between atoms: C_20  and  N_21
REMARK    5  A    between atoms: N_21  and  C_22
REMARK                            x       y       z     vdW  Elec       q    Type
REMARK                         _______ _______ _______ _____ _____    ______ ____
ROOT
ATOM      1  C   UNL     1       8.388   7.794  18.171  0.00  0.00    +0.000 C 
ATOM      2  C   UNL     1       7.437   7.745  16.970  0.00  0.00    +0.000 C 
ATOM      3  C   UNL     1       6.028   7.198  17.228  0.00  0.00    +0.000 C 
ATOM      4  N   UNL     1       5.994   6.081  18.165  0.00  0.00    +0.000 N 
ATOM      5  C   UNL     1       6.899   6.115  19.321  0.00  0.00    +0.000 C 
ATOM      6  C   UNL     1       8.321   6.460  18.900  0.00  0.00    +0.000 C 
ENDROOT
BRANCH   4   7
ATOM      7  C   UNL     1       4.946   5.159  18.217  0.00  0.00    +0.000 A 
ATOM      8  N   UNL     1       3.979   5.446  19.128  0.00  0.00    +0.000 NA
ATOM      9  C   UNL     1       3.001   4.553  19.375  0.00  0.00    +0.000 A 
ATOM     10  C   UNL     1       2.039   4.799  20.330  0.00  0.00    +0.000 A 
ATOM     11  N   UNL     1       1.044   3.940  20.645  0.00  0.00    +0.000 NA
ATOM     12  N   UNL     1       0.977   2.765  19.991  0.00  0.00    +0.000 NA
ATOM     13  C   UNL     1       1.904   2.492  19.044  0.00  0.00    +0.000 A 
ATOM     14  C   UNL     1       2.935   3.343  18.695  0.00  0.00    +0.000 A 
ATOM     15  N   UNL     1       3.840   3.035  17.744  0.00  0.00    +0.000 NA
ATOM     16  C   UNL     1       4.837   3.930  17.491  0.00  0.00    +0.000 A 
BRANCH  16  17
ATOM     17  N   UNL     1       5.711   3.611  16.416  0.00  0.00    +0.000 N 
ATOM     18  H   UNL     1       6.652   3.571  16.803  0.00  0.00    +0.000 HD
BRANCH  17  19
ATOM     19  C   UNL     1       5.589   4.361  15.155  0.00  0.00    +0.000 C 
ATOM     20  C   UNL     1       6.827   4.872  14.470  0.00  0.00    +0.000 C 
ATOM     21  C   UNL     1       6.053   3.739  13.866  0.00  0.00    +0.000 C 
ENDBRANCH  17  19
ENDBRANCH  16  17
ENDBRANCH   4   7
BRANCH   1  22
ATOM     22  O   UNL     1       8.080   8.891  19.046  0.00  0.00    +0.000 OA
BRANCH  22  27
ATOM     23  F   UNL     1      11.617  13.128  18.859  0.00  0.00    +0.000 F 
ATOM     24  C   UNL     1      10.759  12.102  18.941  0.00  0.00    +0.000 A 
ATOM     25  C   UNL     1      10.312  11.487  17.779  0.00  0.00    +0.000 A 
ATOM     26  C   UNL     1       9.414  10.415  17.867  0.00  0.00    +0.000 A 
ATOM     27  C   UNL     1       8.963   9.949  19.105  0.00  0.00    +0.000 A 
ATOM     28  C   UNL     1       9.438  10.602  20.262  0.00  0.00    +0.000 A 
ATOM     29  F   UNL     1       9.052  10.239  21.492  0.00  0.00    +0.000 F 
ATOM     30  C   UNL     1      10.329  11.670  20.184  0.00  0.00    +0.000 A 
ENDBRANCH  22  27
ENDBRANCH   1  22
TORSDOF 5
ENDMDL
MODEL 9
REMARK VINA RESULT:      -7.5      1.067      1.250
REMARK  Name = 
REMARK  5 active torsions:
REMARK  status: ('A' for Active; 'I' for Inactive)
REMARK    1  A    between atoms: C_5  and  O_6
REMARK    2  A    between atoms: O_6  and  C_7
REMARK    3  A    between atoms: N_10  and  C_11
REMARK    4  A    between atoms: C_20  and  N_21
REMARK    5  A    between atoms: N_21  and  C_22
REMARK                            x       y       z     vdW  Elec       q    Type
REMARK                         _______ _______ _______ _____ _____    ______ ____
ROOT
ATOM      1  C   UNL     1       0.520   9.816  19.287  0.00  0.00    +0.000 C 
ATOM      2  C   UNL     1       0.805   8.635  20.223  0.00  0.00    +0.000 C 
ATOM      3  C   UNL     1       2.108   7.864  19.984  0.00  0.00    +0.000 C 
ATOM      4  N   UNL     1       2.449   7.709  18.575  0.00  0.00    +0.000 N 
ATOM      5  C   UNL     1       2.183   8.833  17.667  0.00  0.00    +0.000 C 
ATOM      6  C   UNL     1       0.772   9.373  17.853  0.00  0.00    +0.000 C 
ENDROOT
BRANCH   4   7
ATOM      7  C   UNL     1       3.301   6.708  18.101  0.00  0.00    +0.000 A 
ATOM      8  N   UNL     1       4.541   7.137  17.746  0.00  0.00    +0.000 NA
ATOM      9  C   UNL     1       5.394   6.294  17.133  0.00  0.00    +0.000 A 
ATOM     10  C   UNL     1       6.638   6.718  16.718  0.00  0.00    +0.000 A 
ATOM     11  N   UNL     1       7.533   5.933  16.078  0.00  0.00    +0.000 NA
ATOM     12  N   UNL     1       7.203   4.653  15.825  0.00  0.00    +0.000 NA
ATOM     13  C   UNL     1       5.990   4.202  16.222  0.00  0.00    +0.000 A 
ATOM     14  C   UNL     1       5.048   4.972  16.876  0.00  0.00    +0.000 A 
ATOM     15  N   UNL     1       3.850   4.485  17.256  0.00  0.00    +0.000 NA
ATOM     16  C   UNL     1       2.977   5.333  17.872  0.00  0.00    +0.000 A 
BRANCH  16  17
ATOM     17  N   UNL     1       1.766   4.757  18.343  0.00  0.00    +0.000 N 
ATOM     18  H   UNL     1       1.250   5.497  18.813  0.00  0.00    +0.000 HD
BRANCH  17  19
ATOM     19  C   UNL     1       1.826   3.479  19.074  0.00  0.00    +0.000 C 
ATOM     20  C   UNL     1       0.817   3.192  20.153  0.00  0.00    +0.000 C 
ATOM     21  C   UNL     1       0.756   2.442  18.855  0.00  0.00    +0.000 C 
ENDBRANCH  17  19
ENDBRANCH  16  17
ENDBRANCH   4   7
BRANCH   1  22
ATOM     22  O   UNL     1       1.308  10.966  19.633  0.00  0.00    +0.000 OA
BRANCH  22  27
ATOM     23  F   UNL     1      -1.084  15.669  21.261  0.00  0.00    +0.000 F 
ATOM     24  C   UNL     1      -0.524  14.529  20.835  0.00  0.00    +0.000 A 
ATOM     25  C   UNL     1       0.411  13.885  21.633  0.00  0.00    +0.000 A 
ATOM     26  C   UNL     1       0.998  12.692  21.186  0.00  0.00    +0.000 A 
ATOM     27  C   UNL     1       0.654  12.138  19.950  0.00  0.00    +0.000 A 
ATOM     28  C   UNL     1      -0.298  12.824  19.167  0.00  0.00    +0.000 A 
ATOM     29  F   UNL     1      -0.681  12.380  17.963  0.00  0.00    +0.000 F 
ATOM     30  C   UNL     1      -0.884  14.010  19.604  0.00  0.00    +0.000 A 
ENDBRANCH  22  27
ENDBRANCH   1  22
TORSDOF 5
ENDMDL
