MODEL 1
REMARK VINA RESULT:      -8.1      0.000      0.000
REMARK  Name = 
REMARK  6 active torsions:
REMARK  status: ('A' for Active; 'I' for Inactive)
REMARK    1  A    between atoms: C_1  and  C_2
REMARK    2  A    between atoms: C_5  and  C_6
REMARK    3  A    between atoms: C_6  and  N_7
REMARK    4  A    between atoms: N_7  and  C_8
REMARK    5  A    between atoms: N_15  and  C_16
REMARK    6  A    between atoms: C_22  and  C_23
REMARK                            x       y       z     vdW  Elec       q    Type
REMARK                         _______ _______ _______ _____ _____    ______ ____
ROOT
ATOM      1  C   UNL     1       2.455   5.171  20.228  0.00  0.00    +0.000 A 
ATOM      2  N   UNL     1       2.086   4.784  21.459  0.00  0.00    +0.000 NA
ATOM      3  C   UNL     1       2.233   3.484  21.752  0.00  0.00    +0.000 A 
ATOM      4  N   UNL     1       2.686   2.535  20.926  0.00  0.00    +0.000 NA
ATOM      5  C   UNL     1       3.049   2.945  19.693  0.00  0.00    +0.000 A 
ATOM      6  C   UNL     1       2.985   4.278  19.302  0.00  0.00    +0.000 A 
ATOM      7  C   UNL     1       3.375   4.714  17.915  0.00  0.00    +0.000 C 
ATOM      8  N   UNL     1       4.160   3.672  17.231  0.00  0.00    +0.000 N 
ATOM      9  C   UNL     1       3.559   2.336  17.309  0.00  0.00    +0.000 C 
ATOM     10  C   UNL     1       3.584   1.881  18.767  0.00  0.00    +0.000 C 
ENDROOT
BRANCH   8  11
ATOM     11  C   UNL     1       5.154   4.010  16.321  0.00  0.00    +0.000 A 
ATOM     12  C   UNL     1       4.911   3.857  14.936  0.00  0.00    +0.000 A 
ATOM     13  C   UNL     1       5.823   4.277  13.961  0.00  0.00    +0.000 A 
ATOM     14  C   UNL     1       7.021   4.854  14.346  0.00  0.00    +0.000 A 
ATOM     15 CL   UNL     1       8.130   5.407  13.154  0.00  0.00    +0.000 Cl
ATOM     16  C   UNL     1       7.320   4.998  15.693  0.00  0.00    +0.000 A 
ATOM     17  C   UNL     1       6.399   4.584  16.677  0.00  0.00    +0.000 A 
BRANCH  17  18
ATOM     18  C   UNL     1       6.778   4.845  18.039  0.00  0.00    +0.000 C 
ATOM     19  N   UNL     1       7.059   5.093  19.137  0.00  0.00    +0.000 NA
ENDBRANCH  17  18
ENDBRANCH   8  11
BRANCH   1  20
ATOM     20  N   UNL     1       2.324   6.526  19.875  0.00  0.00    +0.000 N 
ATOM     21  H   UNL     1       3.236   6.857  19.561  0.00  0.00    +0.000 HD
BRANCH  20  22
ATOM     22  C   UNL     1       1.792   7.384  20.931  0.00  0.00    +0.000 C 
BRANCH  22  27
ATOM     23  C   UNL     1      -0.864  11.772  18.416  0.00  0.00    +0.000 C 
ATOM     24  C   UNL     1      -0.144  10.647  19.092  0.00  0.00    +0.000 A 
ATOM     25  N   UNL     1       0.832  10.025  18.407  0.00  0.00    +0.000 NA
ATOM     26  C   UNL     1       1.440   8.999  19.033  0.00  0.00    +0.000 A 
ATOM     27  C   UNL     1       1.126   8.570  20.308  0.00  0.00    +0.000 A 
ATOM     28  C   UNL     1       0.114   9.279  20.916  0.00  0.00    +0.000 A 
ATOM     29  N   UNL     1      -0.532  10.315  20.340  0.00  0.00    +0.000 NA
ENDBRANCH  22  27
ENDBRANCH  20  22
ENDBRANCH   1  20
TORSDOF 5
ENDMDL
MODEL 2
REMARK VINA RESULT:      -7.8      0.931      1.397
REMARK  Name = 
REMARK  6 active torsions:
REMARK  status: ('A' for Active; 'I' for Inactive)
REMARK    1  A    between atoms: C_1  and  C_2
REMARK    2  A    between atoms: C_5  and  C_6
REMARK    3  A    between atoms: C_6  and  N_7
REMARK    4  A    between atoms: N_7  and  C_8
REMARK    5  A    between atoms: N_15  and  C_16
REMARK    6  A    between atoms: C_22  and  C_23
REMARK                            x       y       z     vdW  Elec       q    Type
REMARK                         _______ _______ _______ _____ _____    ______ ____
ROOT
ATOM      1  C   UNL     1       2.073   5.192  19.800  0.00  0.00    +0.000 A 
ATOM      2  N   UNL     1       1.704   4.967  21.070  0.00  0.00    +0.000 NA
ATOM      3  C   UNL     1       2.089   3.803  21.612  0.00  0.00    +0.000 A 
ATOM      4  N   UNL     1       2.779   2.836  20.998  0.00  0.00    +0.000 NA
ATOM      5  C   UNL     1       3.136   3.082  19.721  0.00  0.00    +0.000 A 
ATOM      6  C   UNL     1       2.833   4.277  19.078  0.00  0.00    +0.000 A 
ATOM      7  C   UNL     1       3.222   4.525  17.646  0.00  0.00    +0.000 C 
ATOM      8  N   UNL     1       4.245   3.565  17.198  0.00  0.00    +0.000 N 
ATOM      9  C   UNL     1       3.920   2.169  17.514  0.00  0.00    +0.000 C 
ATOM     10  C   UNL     1       3.936   2.003  19.032  0.00  0.00    +0.000 C 
ENDROOT
BRANCH   8  11
ATOM     11  C   UNL     1       5.211   3.932  16.269  0.00  0.00    +0.000 A 
ATOM     12  C   UNL     1       4.936   3.796  14.888  0.00  0.00    +0.000 A 
ATOM     13  C   UNL     1       5.818   4.245  13.899  0.00  0.00    +0.000 A 
ATOM     14  C   UNL     1       7.016   4.836  14.263  0.00  0.00    +0.000 A 
ATOM     15 CL   UNL     1       8.087   5.424  13.054  0.00  0.00    +0.000 Cl
ATOM     16  C   UNL     1       7.345   4.964  15.605  0.00  0.00    +0.000 A 
ATOM     17  C   UNL     1       6.456   4.520  16.605  0.00  0.00    +0.000 A 
BRANCH  17  18
ATOM     18  C   UNL     1       6.864   4.766  17.960  0.00  0.00    +0.000 C 
ATOM     19  N   UNL     1       7.233   4.977  19.040  0.00  0.00    +0.000 NA
ENDBRANCH  17  18
ENDBRANCH   8  11
BRANCH   1  20
ATOM     20  N   UNL     1       1.697   6.403  19.189  0.00  0.00    +0.000 N 
ATOM     21  H   UNL     1       1.794   6.287  18.180  0.00  0.00    +0.000 HD
BRANCH  20  22
ATOM     22  C   UNL     1       2.431   7.576  19.655  0.00  0.00    +0.000 C 
BRANCH  22  27
ATOM     23  C   UNL     1      -1.000  11.200  22.435  0.00  0.00    +0.000 C 
ATOM     24  C   UNL     1      -0.131  10.228  21.701  0.00  0.00    +0.000 A 
ATOM     25  N   UNL     1       0.545   9.319  22.425  0.00  0.00    +0.000 NA
ATOM     26  C   UNL     1       1.340   8.477  21.736  0.00  0.00    +0.000 A 
ATOM     27  C   UNL     1       1.485   8.495  20.363  0.00  0.00    +0.000 A 
ATOM     28  C   UNL     1       0.746   9.465  19.722  0.00  0.00    +0.000 A 
ATOM     29  N   UNL     1      -0.067  10.335  20.358  0.00  0.00    +0.000 NA
ENDBRANCH  22  27
ENDBRANCH  20  22
ENDBRANCH   1  20
TORSDOF 5
ENDMDL
MODEL 3
REMARK VINA RESULT:      -7.6      0.963      1.290
REMARK  Name = 
REMARK  6 active torsions:
REMARK  status: ('A' for Active; 'I' for Inactive)
REMARK    1  A    between atoms: C_1  and  C_2
REMARK    2  A    between atoms: C_5  and  C_6
REMARK    3  A    between atoms: C_6  and  N_7
REMARK    4  A    between atoms: N_7  and  C_8
REMARK    5  A    between atoms: N_15  and  C_16
REMARK    6  A    between atoms: C_22  and  C_23
REMARK                            x       y       z     vdW  Elec       q    Type
REMARK                         _______ _______ _______ _____ _____    ______ ____
ROOT
ATOM      1  C   UNL     1       2.680   5.248  20.273  0.00  0.00    +0.000 A 
ATOM      2  N   UNL     1       2.199   4.737  21.417  0.00  0.00    +0.000 NA
ATOM      3  C   UNL     1       1.988   3.414  21.445  0.00  0.00    +0.000 A 
ATOM      4  N   UNL     1       2.183   2.562  20.433  0.00  0.00    +0.000 NA
ATOM      5  C   UNL     1       2.664   3.097  19.291  0.00  0.00    +0.000 A 
ATOM      6  C   UNL     1       2.966   4.448  19.171  0.00  0.00    +0.000 A 
ATOM      7  C   UNL     1       3.483   5.031  17.883  0.00  0.00    +0.000 C 
ATOM      8  N   UNL     1       3.970   3.975  16.979  0.00  0.00    +0.000 N 
ATOM      9  C   UNL     1       3.032   2.859  16.817  0.00  0.00    +0.000 C 
ATOM     10  C   UNL     1       2.909   2.134  18.155  0.00  0.00    +0.000 C 
ENDROOT
BRANCH   8  11
ATOM     11  C   UNL     1       5.034   4.209  16.116  0.00  0.00    +0.000 A 
ATOM     12  C   UNL     1       4.822   4.153  14.719  0.00  0.00    +0.000 A 
ATOM     13  C   UNL     1       5.819   4.483  13.794  0.00  0.00    +0.000 A 
ATOM     14  C   UNL     1       7.071   4.868  14.241  0.00  0.00    +0.000 A 
ATOM     15 CL   UNL     1       8.289   5.312  13.111  0.00  0.00    +0.000 Cl
ATOM     16  C   UNL     1       7.338   4.909  15.602  0.00  0.00    +0.000 A 
ATOM     17  C   UNL     1       6.334   4.585  16.537  0.00  0.00    +0.000 A 
BRANCH  17  18
ATOM     18  C   UNL     1       6.696   4.730  17.920  0.00  0.00    +0.000 C 
ATOM     19  N   UNL     1       7.024   4.870  19.024  0.00  0.00    +0.000 NA
ENDBRANCH  17  18
ENDBRANCH   8  11
BRANCH   1  20
ATOM     20  N   UNL     1       2.923   6.632  20.197  0.00  0.00    +0.000 N 
ATOM     21  H   UNL     1       2.969   6.993  21.149  0.00  0.00    +0.000 HD
BRANCH  20  22
ATOM     22  C   UNL     1       1.956   7.380  19.398  0.00  0.00    +0.000 C 
BRANCH  22  27
ATOM     23  C   UNL     1      -0.696  11.302  22.593  0.00  0.00    +0.000 C 
ATOM     24  C   UNL     1       0.032  10.290  21.766  0.00  0.00    +0.000 A 
ATOM     25  N   UNL     1       0.180  10.542  20.453  0.00  0.00    +0.000 NA
ATOM     26  C   UNL     1       0.816   9.598  19.732  0.00  0.00    +0.000 A 
ATOM     27  C   UNL     1       1.313   8.422  20.258  0.00  0.00    +0.000 A 
ATOM     28  C   UNL     1       1.108   8.269  21.612  0.00  0.00    +0.000 A 
ATOM     29  N   UNL     1       0.479   9.179  22.386  0.00  0.00    +0.000 NA
ENDBRANCH  22  27
ENDBRANCH  20  22
ENDBRANCH   1  20
TORSDOF 5
ENDMDL
MODEL 4
REMARK VINA RESULT:      -7.5      3.131      6.735
REMARK  Name = 
REMARK  6 active torsions:
REMARK  status: ('A' for Active; 'I' for Inactive)
REMARK    1  A    between atoms: C_1  and  C_2
REMARK    2  A    between atoms: C_5  and  C_6
REMARK    3  A    between atoms: C_6  and  N_7
REMARK    4  A    between atoms: N_7  and  C_8
REMARK    5  A    between atoms: N_15  and  C_16
REMARK    6  A    between atoms: C_22  and  C_23
REMARK                            x       y       z     vdW  Elec       q    Type
REMARK                         _______ _______ _______ _____ _____    ______ ____
ROOT
ATOM      1  C   UNL     1       4.094   3.828  17.894  0.00  0.00    +0.000 A 
ATOM      2  N   UNL     1       4.006   2.545  17.510  0.00  0.00    +0.000 NA
ATOM      3  C   UNL     1       3.058   1.803  18.099  0.00  0.00    +0.000 A 
ATOM      4  N   UNL     1       2.213   2.212  19.051  0.00  0.00    +0.000 NA
ATOM      5  C   UNL     1       2.321   3.504  19.424  0.00  0.00    +0.000 A 
ATOM      6  C   UNL     1       3.235   4.375  18.842  0.00  0.00    +0.000 A 
ATOM      7  C   UNL     1       3.354   5.808  19.286  0.00  0.00    +0.000 C 
ATOM      8  N   UNL     1       2.178   6.222  20.069  0.00  0.00    +0.000 N 
ATOM      9  C   UNL     1       1.816   5.277  21.132  0.00  0.00    +0.000 C 
ATOM     10  C   UNL     1       1.353   3.976  20.481  0.00  0.00    +0.000 C 
ENDROOT
BRANCH   8  11
ATOM     11  C   UNL     1       1.713   7.531  20.020  0.00  0.00    +0.000 A 
ATOM     12  C   UNL     1       1.046   8.075  21.142  0.00  0.00    +0.000 A 
ATOM     13  C   UNL     1       0.647   9.415  21.202  0.00  0.00    +0.000 A 
ATOM     14  C   UNL     1       0.892  10.253  20.128  0.00  0.00    +0.000 A 
ATOM     15 CL   UNL     1       0.439  11.910  20.209  0.00  0.00    +0.000 Cl
ATOM     16  C   UNL     1       1.516   9.759  18.991  0.00  0.00    +0.000 A 
ATOM     17  C   UNL     1       1.926   8.411  18.931  0.00  0.00    +0.000 A 
BRANCH  17  18
ATOM     18  C   UNL     1       2.626   8.023  17.737  0.00  0.00    +0.000 C 
ATOM     19  N   UNL     1       3.220   7.743  16.781  0.00  0.00    +0.000 NA
ENDBRANCH  17  18
ENDBRANCH   8  11
BRANCH   1  20
ATOM     20  N   UNL     1       5.070   4.649  17.299  0.00  0.00    +0.000 N 
ATOM     21  H   UNL     1       5.067   4.462  16.297  0.00  0.00    +0.000 HD
BRANCH  20  22
ATOM     22  C   UNL     1       6.412   4.503  17.855  0.00  0.00    +0.000 C 
BRANCH  22  27
ATOM     23  C   UNL     1       8.698   9.726  18.200  0.00  0.00    +0.000 C 
ATOM     24  C   UNL     1       8.130   8.346  18.089  0.00  0.00    +0.000 A 
ATOM     25  N   UNL     1       7.260   8.104  17.093  0.00  0.00    +0.000 NA
ATOM     26  C   UNL     1       6.746   6.860  17.039  0.00  0.00    +0.000 A 
ATOM     27  C   UNL     1       7.062   5.849  17.925  0.00  0.00    +0.000 A 
ATOM     28  C   UNL     1       7.963   6.208  18.903  0.00  0.00    +0.000 A 
ATOM     29  N   UNL     1       8.512   7.436  19.008  0.00  0.00    +0.000 NA
ENDBRANCH  22  27
ENDBRANCH  20  22
ENDBRANCH   1  20
TORSDOF 5
ENDMDL
MODEL 5
REMARK VINA RESULT:      -7.4      2.775      6.760
REMARK  Name = 
REMARK  6 active torsions:
REMARK  status: ('A' for Active; 'I' for Inactive)
REMARK    1  A    between atoms: C_1  and  C_2
REMARK    2  A    between atoms: C_5  and  C_6
REMARK    3  A    between atoms: C_6  and  N_7
REMARK    4  A    between atoms: N_7  and  C_8
REMARK    5  A    between atoms: N_15  and  C_16
REMARK    6  A    between atoms: C_22  and  C_23
REMARK                            x       y       z     vdW  Elec       q    Type
REMARK                         _______ _______ _______ _____ _____    ______ ____
ROOT
ATOM      1  C   UNL     1       2.899   3.747  17.594  0.00  0.00    +0.000 A 
ATOM      2  N   UNL     1       2.502   2.466  17.556  0.00  0.00    +0.000 NA
ATOM      3  C   UNL     1       1.656   2.069  18.517  0.00  0.00    +0.000 A 
ATOM      4  N   UNL     1       1.195   2.819  19.523  0.00  0.00    +0.000 NA
ATOM      5  C   UNL     1       1.609   4.103  19.543  0.00  0.00    +0.000 A 
ATOM      6  C   UNL     1       2.446   4.632  18.567  0.00  0.00    +0.000 A 
ATOM      7  C   UNL     1       2.914   6.061  18.618  0.00  0.00    +0.000 C 
ATOM      8  N   UNL     1       2.092   6.858  19.544  0.00  0.00    +0.000 N 
ATOM      9  C   UNL     1       1.903   6.226  20.855  0.00  0.00    +0.000 C 
ATOM     10  C   UNL     1       1.072   4.960  20.663  0.00  0.00    +0.000 C 
ENDROOT
BRANCH   8  11
ATOM     11  C   UNL     1       1.847   8.205  19.303  0.00  0.00    +0.000 A 
ATOM     12  C   UNL     1       2.451   8.833  18.189  0.00  0.00    +0.000 A 
ATOM     13  C   UNL     1       2.165  10.154  17.825  0.00  0.00    +0.000 A 
ATOM     14  C   UNL     1       1.271  10.895  18.577  0.00  0.00    +0.000 A 
ATOM     15 CL   UNL     1       0.885  12.505  18.114  0.00  0.00    +0.000 Cl
ATOM     16  C   UNL     1       0.676  10.334  19.699  0.00  0.00    +0.000 A 
ATOM     17  C   UNL     1       0.956   9.001  20.064  0.00  0.00    +0.000 A 
BRANCH  17  18
ATOM     18  C   UNL     1       0.231   8.497  21.198  0.00  0.00    +0.000 C 
ATOM     19  N   UNL     1      -0.351   8.131  22.132  0.00  0.00    +0.000 NA
ENDBRANCH  17  18
ENDBRANCH   8  11
BRANCH   1  20
ATOM     20  N   UNL     1       3.783   4.212  16.603  0.00  0.00    +0.000 N 
ATOM     21  H   UNL     1       3.418   3.921  15.697  0.00  0.00    +0.000 HD
BRANCH  20  22
ATOM     22  C   UNL     1       5.170   3.786  16.771  0.00  0.00    +0.000 C 
BRANCH  22  27
ATOM     23  C   UNL     1       8.209   8.438  18.092  0.00  0.00    +0.000 C 
ATOM     24  C   UNL     1       7.442   7.207  17.724  0.00  0.00    +0.000 A 
ATOM     25  N   UNL     1       6.574   7.291  16.701  0.00  0.00    +0.000 NA
ATOM     26  C   UNL     1       5.879   6.173  16.413  0.00  0.00    +0.000 A 
ATOM     27  C   UNL     1       6.013   4.979  17.093  0.00  0.00    +0.000 A 
ATOM     28  C   UNL     1       6.930   5.006  18.120  0.00  0.00    +0.000 A 
ATOM     29  N   UNL     1       7.655   6.094  18.455  0.00  0.00    +0.000 NA
ENDBRANCH  22  27
ENDBRANCH  20  22
ENDBRANCH   1  20
TORSDOF 5
ENDMDL
MODEL 6
REMARK VINA RESULT:      -7.0      2.817      6.457
REMARK  Name = 
REMARK  6 active torsions:
REMARK  status: ('A' for Active; 'I' for Inactive)
REMARK    1  A    between atoms: C_1  and  C_2
REMARK    2  A    between atoms: C_5  and  C_6
REMARK    3  A    between atoms: C_6  and  N_7
REMARK    4  A    between atoms: N_7  and  C_8
REMARK    5  A    between atoms: N_15  and  C_16
REMARK    6  A    between atoms: C_22  and  C_23
REMARK                            x       y       z     vdW  Elec       q    Type
REMARK                         _______ _______ _______ _____ _____    ______ ____
ROOT
ATOM      1  C   UNL     1       4.315   3.303  19.077  0.00  0.00    +0.000 A 
ATOM      2  N   UNL     1       4.130   1.994  18.849  0.00  0.00    +0.000 NA
ATOM      3  C   UNL     1       2.888   1.521  19.026  0.00  0.00    +0.000 A 
ATOM      4  N   UNL     1       1.826   2.223  19.435  0.00  0.00    +0.000 NA
ATOM      5  C   UNL     1       2.035   3.537  19.661  0.00  0.00    +0.000 A 
ATOM      6  C   UNL     1       3.271   4.141  19.460  0.00  0.00    +0.000 A 
ATOM      7  C   UNL     1       3.491   5.603  19.737  0.00  0.00    +0.000 C 
ATOM      8  N   UNL     1       2.210   6.322  19.845  0.00  0.00    +0.000 N 
ATOM      9  C   UNL     1       1.240   5.667  20.730  0.00  0.00    +0.000 C 
ATOM     10  C   UNL     1       0.834   4.337  20.099  0.00  0.00    +0.000 C 
ENDROOT
BRANCH   8  11
ATOM     11  C   UNL     1       2.098   7.646  19.436  0.00  0.00    +0.000 A 
ATOM     12  C   UNL     1       2.663   8.043  18.202  0.00  0.00    +0.000 A 
ATOM     13  C   UNL     1       2.496   9.329  17.678  0.00  0.00    +0.000 A 
ATOM     14  C   UNL     1       1.765  10.269  18.384  0.00  0.00    +0.000 A 
ATOM     15 CL   UNL     1       1.523  11.840  17.729  0.00  0.00    +0.000 Cl
ATOM     16  C   UNL     1       1.217   9.938  19.615  0.00  0.00    +0.000 A 
ATOM     17  C   UNL     1       1.376   8.640  20.142  0.00  0.00    +0.000 A 
BRANCH  17  18
ATOM     18  C   UNL     1       0.707   8.383  21.388  0.00  0.00    +0.000 C 
ATOM     19  N   UNL     1       0.144   8.144  22.374  0.00  0.00    +0.000 NA
ENDBRANCH  17  18
ENDBRANCH   8  11
BRANCH   1  20
ATOM     20  N   UNL     1       5.600   3.848  18.900  0.00  0.00    +0.000 N 
ATOM     21  H   UNL     1       5.730   4.577  19.601  0.00  0.00    +0.000 HD
BRANCH  20  22
ATOM     22  C   UNL     1       5.868   4.358  17.558  0.00  0.00    +0.000 C 
BRANCH  22  27
ATOM     23  C   UNL     1       8.483   9.410  18.077  0.00  0.00    +0.000 C 
ATOM     24  C   UNL     1       7.825   8.075  17.916  0.00  0.00    +0.000 A 
ATOM     25  N   UNL     1       6.836   7.968  17.011  0.00  0.00    +0.000 NA
ATOM     26  C   UNL     1       6.247   6.761  16.911  0.00  0.00    +0.000 A 
ATOM     27  C   UNL     1       6.600   5.659  17.666  0.00  0.00    +0.000 A 
ATOM     28  C   UNL     1       7.624   5.882  18.559  0.00  0.00    +0.000 A 
ATOM     29  N   UNL     1       8.253   7.067  18.703  0.00  0.00    +0.000 NA
ENDBRANCH  22  27
ENDBRANCH  20  22
ENDBRANCH   1  20
TORSDOF 5
ENDMDL
MODEL 7
REMARK VINA RESULT:      -7.0      2.799      7.396
REMARK  Name = 
REMARK  6 active torsions:
REMARK  status: ('A' for Active; 'I' for Inactive)
REMARK    1  A    between atoms: C_1  and  C_2
REMARK    2  A    between atoms: C_5  and  C_6
REMARK    3  A    between atoms: C_6  and  N_7
REMARK    4  A    between atoms: N_7  and  C_8
REMARK    5  A    between atoms: N_15  and  C_16
REMARK    6  A    between atoms: C_22  and  C_23
REMARK                            x       y       z     vdW  Elec       q    Type
REMARK                         _______ _______ _______ _____ _____    ______ ____
ROOT
ATOM      1  C   UNL     1       2.741   3.723  17.644  0.00  0.00    +0.000 A 
ATOM      2  N   UNL     1       2.293   2.460  17.579  0.00  0.00    +0.000 NA
ATOM      3  C   UNL     1       1.399   2.089  18.505  0.00  0.00    +0.000 A 
ATOM      4  N   UNL     1       0.935   2.848  19.504  0.00  0.00    +0.000 NA
ATOM      5  C   UNL     1       1.401   4.113  19.553  0.00  0.00    +0.000 A 
ATOM      6  C   UNL     1       2.292   4.617  18.612  0.00  0.00    +0.000 A 
ATOM      7  C   UNL     1       2.817   6.024  18.695  0.00  0.00    +0.000 C 
ATOM      8  N   UNL     1       1.998   6.845  19.602  0.00  0.00    +0.000 N 
ATOM      9  C   UNL     1       1.737   6.209  20.898  0.00  0.00    +0.000 C 
ATOM     10  C   UNL     1       0.862   4.980  20.664  0.00  0.00    +0.000 C 
ENDROOT
BRANCH   8  11
ATOM     11  C   UNL     1       1.817   8.203  19.369  0.00  0.00    +0.000 A 
ATOM     12  C   UNL     1       2.468   8.813  18.272  0.00  0.00    +0.000 A 
ATOM     13  C   UNL     1       2.248  10.148  17.914  0.00  0.00    +0.000 A 
ATOM     14  C   UNL     1       1.374  10.922  18.657  0.00  0.00    +0.000 A 
ATOM     15 CL   UNL     1       1.069  12.552  18.201  0.00  0.00    +0.000 Cl
ATOM     16  C   UNL     1       0.734  10.379  19.762  0.00  0.00    +0.000 A 
ATOM     17  C   UNL     1       0.948   9.032  20.120  0.00  0.00    +0.000 A 
BRANCH  17  18
ATOM     18  C   UNL     1       0.180   8.552  21.236  0.00  0.00    +0.000 C 
ATOM     19  N   UNL     1      -0.462   8.203  22.136  0.00  0.00    +0.000 NA
ENDBRANCH  17  18
ENDBRANCH   8  11
BRANCH   1  20
ATOM     20  N   UNL     1       3.677   4.161  16.690  0.00  0.00    +0.000 N 
ATOM     21  H   UNL     1       3.391   3.797  15.781  0.00  0.00    +0.000 HD
BRANCH  20  22
ATOM     22  C   UNL     1       5.063   3.806  16.983  0.00  0.00    +0.000 C 
BRANCH  22  27
ATOM     23  C   UNL     1       8.200   5.546  12.538  0.00  0.00    +0.000 C 
ATOM     24  C   UNL     1       7.405   5.064  13.711  0.00  0.00    +0.000 A 
ATOM     25  N   UNL     1       6.451   4.143  13.487  0.00  0.00    +0.000 NA
ATOM     26  C   UNL     1       5.735   3.751  14.559  0.00  0.00    +0.000 A 
ATOM     27  C   UNL     1       5.930   4.230  15.840  0.00  0.00    +0.000 A 
ATOM     28  C   UNL     1       6.933   5.167  15.954  0.00  0.00    +0.000 A 
ATOM     29  N   UNL     1       7.683   5.598  14.918  0.00  0.00    +0.000 NA
ENDBRANCH  22  27
ENDBRANCH  20  22
ENDBRANCH   1  20
TORSDOF 5
ENDMDL
MODEL 8
REMARK VINA RESULT:      -6.9      3.006      7.553
REMARK  Name = 
REMARK  6 active torsions:
REMARK  status: ('A' for Active; 'I' for Inactive)
REMARK    1  A    between atoms: C_1  and  C_2
REMARK    2  A    between atoms: C_5  and  C_6
REMARK    3  A    between atoms: C_6  and  N_7
REMARK    4  A    between atoms: N_7  and  C_8
REMARK    5  A    between atoms: N_15  and  C_16
REMARK    6  A    between atoms: C_22  and  C_23
REMARK                            x       y       z     vdW  Elec       q    Type
REMARK                         _______ _______ _______ _____ _____    ______ ____
ROOT
ATOM      1  C   UNL     1       4.093   4.161  18.103  0.00  0.00    +0.000 A 
ATOM      2  N   UNL     1       4.028   2.919  17.599  0.00  0.00    +0.000 NA
ATOM      3  C   UNL     1       2.992   2.164  17.988  0.00  0.00    +0.000 A 
ATOM      4  N   UNL     1       2.035   2.521  18.851  0.00  0.00    +0.000 NA
ATOM      5  C   UNL     1       2.121   3.773  19.348  0.00  0.00    +0.000 A 
ATOM      6  C   UNL     1       3.126   4.656  18.972  0.00  0.00    +0.000 A 
ATOM      7  C   UNL     1       3.218   6.042  19.552  0.00  0.00    +0.000 C 
ATOM      8  N   UNL     1       1.956   6.430  20.205  0.00  0.00    +0.000 N 
ATOM      9  C   UNL     1       1.430   5.413  21.122  0.00  0.00    +0.000 C 
ATOM     10  C   UNL     1       1.030   4.188  20.303  0.00  0.00    +0.000 C 
ENDROOT
BRANCH   8  11
ATOM     11  C   UNL     1       1.533   7.754  20.209  0.00  0.00    +0.000 A 
ATOM     12  C   UNL     1       0.919   8.285  21.367  0.00  0.00    +0.000 A 
ATOM     13  C   UNL     1       0.567   9.634  21.480  0.00  0.00    +0.000 A 
ATOM     14  C   UNL     1       0.807  10.497  20.425  0.00  0.00    +0.000 A 
ATOM     15 CL   UNL     1       0.412  12.164  20.570  0.00  0.00    +0.000 Cl
ATOM     16  C   UNL     1       1.378  10.018  19.254  0.00  0.00    +0.000 A 
ATOM     17  C   UNL     1       1.742   8.660  19.141  0.00  0.00    +0.000 A 
BRANCH  17  18
ATOM     18  C   UNL     1       2.391   8.287  17.914  0.00  0.00    +0.000 C 
ATOM     19  N   UNL     1       2.952   8.009  16.937  0.00  0.00    +0.000 NA
ENDBRANCH  17  18
ENDBRANCH   8  11
BRANCH   1  20
ATOM     20  N   UNL     1       5.160   4.994  17.719  0.00  0.00    +0.000 N 
ATOM     21  H   UNL     1       4.833   5.592  16.961  0.00  0.00    +0.000 HD
BRANCH  20  22
ATOM     22  C   UNL     1       6.382   4.288  17.340  0.00  0.00    +0.000 C 
BRANCH  22  27
ATOM     23  C   UNL     1       7.449   4.832  11.755  0.00  0.00    +0.000 C 
ATOM     24  C   UNL     1       7.140   4.714  13.215  0.00  0.00    +0.000 A 
ATOM     25  N   UNL     1       7.815   5.507  14.065  0.00  0.00    +0.000 NA
ATOM     26  C   UNL     1       7.533   5.356  15.374  0.00  0.00    +0.000 A 
ATOM     27  C   UNL     1       6.609   4.458  15.871  0.00  0.00    +0.000 A 
ATOM     28  C   UNL     1       5.976   3.699  14.912  0.00  0.00    +0.000 A 
ATOM     29  N   UNL     1       6.216   3.805  13.588  0.00  0.00    +0.000 NA
ENDBRANCH  22  27
ENDBRANCH  20  22
ENDBRANCH   1  20
TORSDOF 5
ENDMDL
MODEL 9
REMARK VINA RESULT:      -6.8      2.070      4.437
REMARK  Name = 
REMARK  6 active torsions:
REMARK  status: ('A' for Active; 'I' for Inactive)
REMARK    1  A    between atoms: C_1  and  C_2
REMARK    2  A    between atoms: C_5  and  C_6
REMARK    3  A    between atoms: C_6  and  N_7
REMARK    4  A    between atoms: N_7  and  C_8
REMARK    5  A    between atoms: N_15  and  C_16
REMARK    6  A    between atoms: C_22  and  C_23
REMARK                            x       y       z     vdW  Elec       q    Type
REMARK                         _______ _______ _______ _____ _____    ______ ____
ROOT
ATOM      1  C   UNL     1       0.958   9.697  19.469  0.00  0.00    +0.000 A 
ATOM      2  N   UNL     1       0.606  10.352  20.586  0.00  0.00    +0.000 NA
ATOM      3  C   UNL     1       0.793   9.709  21.746  0.00  0.00    +0.000 A 
ATOM      4  N   UNL     1       1.268   8.468  21.894  0.00  0.00    +0.000 NA
ATOM      5  C   UNL     1       1.613   7.826  20.758  0.00  0.00    +0.000 A 
ATOM      6  C   UNL     1       1.508   8.419  19.505  0.00  0.00    +0.000 A 
ATOM      7  C   UNL     1       1.878   7.680  18.248  0.00  0.00    +0.000 C 
ATOM      8  N   UNL     1       2.688   6.488  18.550  0.00  0.00    +0.000 N 
ATOM      9  C   UNL     1       2.126   5.649  19.614  0.00  0.00    +0.000 C 
ATOM     10  C   UNL     1       2.172   6.434  20.922  0.00  0.00    +0.000 C 
ENDROOT
BRANCH   8  11
ATOM     11  C   UNL     1       3.667   6.048  17.667  0.00  0.00    +0.000 A 
ATOM     12  C   UNL     1       4.743   6.905  17.338  0.00  0.00    +0.000 A 
ATOM     13  C   UNL     1       5.818   6.491  16.543  0.00  0.00    +0.000 A 
ATOM     14  C   UNL     1       5.842   5.203  16.038  0.00  0.00    +0.000 A 
ATOM     15 CL   UNL     1       7.177   4.675  15.092  0.00  0.00    +0.000 Cl
ATOM     16  C   UNL     1       4.794   4.334  16.306  0.00  0.00    +0.000 A 
ATOM     17  C   UNL     1       3.714   4.745  17.113  0.00  0.00    +0.000 A 
BRANCH  17  18
ATOM     18  C   UNL     1       2.720   3.743  17.387  0.00  0.00    +0.000 C 
ATOM     19  N   UNL     1       1.950   2.904  17.608  0.00  0.00    +0.000 NA
ENDBRANCH  17  18
ENDBRANCH   8  11
BRANCH   1  20
ATOM     20  N   UNL     1       0.786  10.333  18.226  0.00  0.00    +0.000 N 
ATOM     21  H   UNL     1       1.703  10.416  17.788  0.00  0.00    +0.000 HD
BRANCH  20  22
ATOM     22  C   UNL     1       0.117  11.630  18.290  0.00  0.00    +0.000 C 
BRANCH  22  27
ATOM     23  C   UNL     1      -5.552  11.042  17.919  0.00  0.00    +0.000 C 
ATOM     24  C   UNL     1      -4.065  11.165  18.038  0.00  0.00    +0.000 A 
ATOM     25  N   UNL     1      -3.576  11.961  19.005  0.00  0.00    +0.000 NA
ATOM     26  C   UNL     1      -2.235  12.071  19.067  0.00  0.00    +0.000 A 
ATOM     27  C   UNL     1      -1.362  11.422  18.216  0.00  0.00    +0.000 A 
ATOM     28  C   UNL     1      -1.971  10.632  17.266  0.00  0.00    +0.000 A 
ATOM     29  N   UNL     1      -3.308  10.482  17.155  0.00  0.00    +0.000 NA
ENDBRANCH  22  27
ENDBRANCH  20  22
ENDBRANCH   1  20
TORSDOF 5
ENDMDL
