MODEL 1
REMARK VINA RESULT:      -6.5      0.000      0.000
REMARK  Name = 
REMARK  6 active torsions:
REMARK  status: ('A' for Active; 'I' for Inactive)
REMARK    1  A    between atoms: C_1  and  C_2
REMARK    2  A    between atoms: C_2  and  O_3
REMARK    3  A    between atoms: O_3  and  C_4
REMARK    4  A    between atoms: C_7  and  C_8
REMARK    5  A    between atoms: C_9  and  C_10
REMARK    6  A    between atoms: N_15  and  C_16
REMARK                            x       y       z     vdW  Elec       q    Type
REMARK                         _______ _______ _______ _____ _____    ______ ____
ROOT
ATOM      1  C   UNL     1       6.297   5.347  17.967  0.00  0.00    +0.000 A 
ATOM      2  C   UNL     1       5.850   6.387  17.133  0.00  0.00    +0.000 A 
ATOM      3  C   UNL     1       6.515   7.606  17.100  0.00  0.00    +0.000 A 
ATOM      4  C   UNL     1       7.656   7.822  17.896  0.00  0.00    +0.000 A 
ATOM      5  C   UNL     1       8.110   6.779  18.722  0.00  0.00    +0.000 A 
ATOM      6  C   UNL     1       7.433   5.554  18.761  0.00  0.00    +0.000 A 
ENDROOT
BRANCH   4   7
ATOM      7  C   UNL     1       8.409   9.104  17.877  0.00  0.00    +0.000 C 
ATOM      8  C   UNL     1       8.974   9.665  18.969  0.00  0.00    +0.000 C 
BRANCH   8   9
ATOM      9  C   UNL     1       9.701  10.972  18.955  0.00  0.00    +0.000 A 
ATOM     10  C   UNL     1      10.366  11.390  17.785  0.00  0.00    +0.000 A 
ATOM     11  C   UNL     1      11.023  12.614  17.756  0.00  0.00    +0.000 A 
ATOM     12  C   UNL     1      11.029  13.418  18.885  0.00  0.00    +0.000 A 
ATOM     13  C   UNL     1      10.372  12.989  20.038  0.00  0.00    +0.000 A 
ATOM     14  N   UNL     1       9.715  11.789  20.070  0.00  0.00    +0.000 N 
ATOM     15  C   UNL     1       9.059  11.386  21.325  0.00  0.00    +0.000 C 
ENDBRANCH   8   9
ENDBRANCH   4   7
BRANCH   1  16
ATOM     16  O   UNL     1       5.660   4.147  18.021  0.00  0.00    +0.000 OA
BRANCH  16  18
ATOM     17  C   UNL     1       3.480   3.196  17.960  0.00  0.00    +0.000 C 
ATOM     18  C   UNL     1       4.635   3.773  17.169  0.00  0.00    +0.000 C 
ENDBRANCH  16  18
ENDBRANCH   1  16
TORSDOF 4
ENDMDL
MODEL 2
REMARK VINA RESULT:      -6.5      0.403      1.209
REMARK  Name = 
REMARK  6 active torsions:
REMARK  status: ('A' for Active; 'I' for Inactive)
REMARK    1  A    between atoms: C_1  and  C_2
REMARK    2  A    between atoms: C_2  and  O_3
REMARK    3  A    between atoms: O_3  and  C_4
REMARK    4  A    between atoms: C_7  and  C_8
REMARK    5  A    between atoms: C_9  and  C_10
REMARK    6  A    between atoms: N_15  and  C_16
REMARK                            x       y       z     vdW  Elec       q    Type
REMARK                         _______ _______ _______ _____ _____    ______ ____
ROOT
ATOM      1  C   UNL     1       6.228   5.286  17.831  0.00  0.00    +0.000 A 
ATOM      2  C   UNL     1       7.384   5.450  18.615  0.00  0.00    +0.000 A 
ATOM      3  C   UNL     1       8.067   6.661  18.628  0.00  0.00    +0.000 A 
ATOM      4  C   UNL     1       7.610   7.749  17.862  0.00  0.00    +0.000 A 
ATOM      5  C   UNL     1       6.450   7.589  17.086  0.00  0.00    +0.000 A 
ATOM      6  C   UNL     1       5.767   6.366  17.066  0.00  0.00    +0.000 A 
ENDROOT
BRANCH   4   7
ATOM      7  C   UNL     1       8.299   9.066  17.861  0.00  0.00    +0.000 C 
ATOM      8  C   UNL     1       8.955   9.579  18.926  0.00  0.00    +0.000 C 
BRANCH   8   9
ATOM      9  C   UNL     1       9.617  10.919  18.934  0.00  0.00    +0.000 A 
ATOM     10  C   UNL     1      10.212  11.413  17.755  0.00  0.00    +0.000 A 
ATOM     11  C   UNL     1      10.807  12.668  17.747  0.00  0.00    +0.000 A 
ATOM     12  C   UNL     1      10.822  13.430  18.906  0.00  0.00    +0.000 A 
ATOM     13  C   UNL     1      10.234  12.926  20.067  0.00  0.00    +0.000 A 
ATOM     14  N   UNL     1       9.638  11.694  20.078  0.00  0.00    +0.000 N 
ATOM     15  C   UNL     1       9.055  11.214  21.342  0.00  0.00    +0.000 C 
ENDBRANCH   8   9
ENDBRANCH   4   7
BRANCH   1  16
ATOM     16  O   UNL     1       5.546   4.111  17.797  0.00  0.00    +0.000 OA
BRANCH  16  18
ATOM     17  C   UNL     1       3.674   2.666  18.066  0.00  0.00    +0.000 C 
ATOM     18  C   UNL     1       4.502   3.793  18.648  0.00  0.00    +0.000 C 
ENDBRANCH  16  18
ENDBRANCH   1  16
TORSDOF 4
ENDMDL
MODEL 3
REMARK VINA RESULT:      -6.5      1.143      1.509
REMARK  Name = 
REMARK  6 active torsions:
REMARK  status: ('A' for Active; 'I' for Inactive)
REMARK    1  A    between atoms: C_1  and  C_2
REMARK    2  A    between atoms: C_2  and  O_3
REMARK    3  A    between atoms: O_3  and  C_4
REMARK    4  A    between atoms: C_7  and  C_8
REMARK    5  A    between atoms: C_9  and  C_10
REMARK    6  A    between atoms: N_15  and  C_16
REMARK                            x       y       z     vdW  Elec       q    Type
REMARK                         _______ _______ _______ _____ _____    ______ ____
ROOT
ATOM      1  C   UNL     1       6.301   5.146  17.505  0.00  0.00    +0.000 A 
ATOM      2  C   UNL     1       6.177   6.328  16.754  0.00  0.00    +0.000 A 
ATOM      3  C   UNL     1       6.919   7.457  17.078  0.00  0.00    +0.000 A 
ATOM      4  C   UNL     1       7.816   7.438  18.163  0.00  0.00    +0.000 A 
ATOM      5  C   UNL     1       7.948   6.253  18.908  0.00  0.00    +0.000 A 
ATOM      6  C   UNL     1       7.193   5.119  18.586  0.00  0.00    +0.000 A 
ENDROOT
BRANCH   4   7
ATOM      7  C   UNL     1       8.643   8.616  18.533  0.00  0.00    +0.000 C 
ATOM      8  C   UNL     1       8.387   9.879  18.127  0.00  0.00    +0.000 C 
BRANCH   8   9
ATOM      9  C   UNL     1       9.240  11.058  18.473  0.00  0.00    +0.000 A 
ATOM     10  C   UNL     1      10.382  10.882  19.280  0.00  0.00    +0.000 A 
ATOM     11  C   UNL     1      11.194  11.967  19.585  0.00  0.00    +0.000 A 
ATOM     12  C   UNL     1      10.871  13.226  19.099  0.00  0.00    +0.000 A 
ATOM     13  C   UNL     1       9.735  13.386  18.306  0.00  0.00    +0.000 A 
ATOM     14  N   UNL     1       8.936  12.318  17.994  0.00  0.00    +0.000 N 
ATOM     15  C   UNL     1       7.740  12.560  17.171  0.00  0.00    +0.000 C 
ENDBRANCH   8   9
ENDBRANCH   4   7
BRANCH   1  16
ATOM     16  O   UNL     1       5.581   4.032  17.211  0.00  0.00    +0.000 OA
BRANCH  16  18
ATOM     17  C   UNL     1       3.383   3.981  18.122  0.00  0.00    +0.000 C 
ATOM     18  C   UNL     1       4.239   4.040  16.873  0.00  0.00    +0.000 C 
ENDBRANCH  16  18
ENDBRANCH   1  16
TORSDOF 4
ENDMDL
MODEL 4
REMARK VINA RESULT:      -6.4      5.756      7.822
REMARK  Name = 
REMARK  6 active torsions:
REMARK  status: ('A' for Active; 'I' for Inactive)
REMARK    1  A    between atoms: C_1  and  C_2
REMARK    2  A    between atoms: C_2  and  O_3
REMARK    3  A    between atoms: O_3  and  C_4
REMARK    4  A    between atoms: C_7  and  C_8
REMARK    5  A    between atoms: C_9  and  C_10
REMARK    6  A    between atoms: N_15  and  C_16
REMARK                            x       y       z     vdW  Elec       q    Type
REMARK                         _______ _______ _______ _____ _____    ______ ____
ROOT
ATOM      1  C   UNL     1       0.596   9.631  19.928  0.00  0.00    +0.000 A 
ATOM      2  C   UNL     1       1.167   8.571  20.654  0.00  0.00    +0.000 A 
ATOM      3  C   UNL     1       1.995   7.647  20.028  0.00  0.00    +0.000 A 
ATOM      4  C   UNL     1       2.284   7.758  18.656  0.00  0.00    +0.000 A 
ATOM      5  C   UNL     1       1.721   8.823  17.932  0.00  0.00    +0.000 A 
ATOM      6  C   UNL     1       0.880   9.749  18.561  0.00  0.00    +0.000 A 
ENDROOT
BRANCH   4   7
ATOM      7  C   UNL     1       3.178   6.803  17.950  0.00  0.00    +0.000 C 
ATOM      8  C   UNL     1       4.473   7.055  17.656  0.00  0.00    +0.000 C 
BRANCH   8   9
ATOM      9  C   UNL     1       5.362   6.107  16.915  0.00  0.00    +0.000 A 
ATOM     10  C   UNL     1       5.247   5.989  15.515  0.00  0.00    +0.000 A 
ATOM     11  C   UNL     1       6.085   5.129  14.817  0.00  0.00    +0.000 A 
ATOM     12  C   UNL     1       7.030   4.381  15.504  0.00  0.00    +0.000 A 
ATOM     13  C   UNL     1       7.128   4.503  16.890  0.00  0.00    +0.000 A 
ATOM     14  N   UNL     1       6.311   5.356  17.583  0.00  0.00    +0.000 N 
ATOM     15  C   UNL     1       6.453   5.422  19.046  0.00  0.00    +0.000 C 
ENDBRANCH   8   9
ENDBRANCH   4   7
BRANCH   1  16
ATOM     16  O   UNL     1      -0.221  10.544  20.516  0.00  0.00    +0.000 OA
BRANCH  16  18
ATOM     17  C   UNL     1      -0.850  10.706  22.806  0.00  0.00    +0.000 C 
ATOM     18  C   UNL     1       0.067  11.194  21.704  0.00  0.00    +0.000 C 
ENDBRANCH  16  18
ENDBRANCH   1  16
TORSDOF 4
ENDMDL
MODEL 5
REMARK VINA RESULT:      -6.3      5.688      7.832
REMARK  Name = 
REMARK  6 active torsions:
REMARK  status: ('A' for Active; 'I' for Inactive)
REMARK    1  A    between atoms: C_1  and  C_2
REMARK    2  A    between atoms: C_2  and  O_3
REMARK    3  A    between atoms: O_3  and  C_4
REMARK    4  A    between atoms: C_7  and  C_8
REMARK    5  A    between atoms: C_9  and  C_10
REMARK    6  A    between atoms: N_15  and  C_16
REMARK                            x       y       z     vdW  Elec       q    Type
REMARK                         _______ _______ _______ _____ _____    ______ ____
ROOT
ATOM      1  C   UNL     1       0.435   9.278  20.374  0.00  0.00    +0.000 A 
ATOM      2  C   UNL     1       0.679   9.786  19.086  0.00  0.00    +0.000 A 
ATOM      3  C   UNL     1       1.608   9.182  18.248  0.00  0.00    +0.000 A 
ATOM      4  C   UNL     1       2.320   8.044  18.670  0.00  0.00    +0.000 A 
ATOM      5  C   UNL     1       2.070   7.529  19.953  0.00  0.00    +0.000 A 
ATOM      6  C   UNL     1       1.139   8.144  20.800  0.00  0.00    +0.000 A 
ENDROOT
BRANCH   4   7
ATOM      7  C   UNL     1       3.309   7.355  17.799  0.00  0.00    +0.000 C 
ATOM      8  C   UNL     1       4.116   6.354  18.216  0.00  0.00    +0.000 C 
BRANCH   8   9
ATOM      9  C   UNL     1       5.135   5.687  17.348  0.00  0.00    +0.000 A 
ATOM     10  C   UNL     1       4.870   5.498  15.977  0.00  0.00    +0.000 A 
ATOM     11  C   UNL     1       5.821   4.900  15.159  0.00  0.00    +0.000 A 
ATOM     12  C   UNL     1       7.029   4.484  15.699  0.00  0.00    +0.000 A 
ATOM     13  C   UNL     1       7.275   4.672  17.059  0.00  0.00    +0.000 A 
ATOM     14  N   UNL     1       6.346   5.268  17.868  0.00  0.00    +0.000 N 
ATOM     15  C   UNL     1       6.660   5.418  19.299  0.00  0.00    +0.000 C 
ENDBRANCH   8   9
ENDBRANCH   4   7
BRANCH   1  16
ATOM     16  O   UNL     1      -0.464   9.854  21.214  0.00  0.00    +0.000 OA
BRANCH  16  18
ATOM     17  C   UNL     1      -1.277  11.143  23.042  0.00  0.00    +0.000 C 
ATOM     18  C   UNL     1      -0.177  10.249  22.509  0.00  0.00    +0.000 C 
ENDBRANCH  16  18
ENDBRANCH   1  16
TORSDOF 4
ENDMDL
MODEL 6
REMARK VINA RESULT:      -6.2      1.447      2.197
REMARK  Name = 
REMARK  6 active torsions:
REMARK  status: ('A' for Active; 'I' for Inactive)
REMARK    1  A    between atoms: C_1  and  C_2
REMARK    2  A    between atoms: C_2  and  O_3
REMARK    3  A    between atoms: O_3  and  C_4
REMARK    4  A    between atoms: C_7  and  C_8
REMARK    5  A    between atoms: C_9  and  C_10
REMARK    6  A    between atoms: N_15  and  C_16
REMARK                            x       y       z     vdW  Elec       q    Type
REMARK                         _______ _______ _______ _____ _____    ______ ____
ROOT
ATOM      1  C   UNL     1       6.358   5.651  17.196  0.00  0.00    +0.000 A 
ATOM      2  C   UNL     1       7.296   5.421  18.218  0.00  0.00    +0.000 A 
ATOM      3  C   UNL     1       8.075   6.460  18.714  0.00  0.00    +0.000 A 
ATOM      4  C   UNL     1       7.935   7.765  18.207  0.00  0.00    +0.000 A 
ATOM      5  C   UNL     1       6.991   7.998  17.193  0.00  0.00    +0.000 A 
ATOM      6  C   UNL     1       6.213   6.949  16.687  0.00  0.00    +0.000 A 
ENDROOT
BRANCH   4   7
ATOM      7  C   UNL     1       8.734   8.909  18.721  0.00  0.00    +0.000 C 
ATOM      8  C   UNL     1       8.783  10.124  18.131  0.00  0.00    +0.000 C 
BRANCH   8   9
ATOM      9  C   UNL     1       9.614  11.262  18.630  0.00  0.00    +0.000 A 
ATOM     10  C   UNL     1      10.735  11.005  19.446  0.00  0.00    +0.000 A 
ATOM     11  C   UNL     1      11.527  12.055  19.893  0.00  0.00    +0.000 A 
ATOM     12  C   UNL     1      11.206  13.357  19.541  0.00  0.00    +0.000 A 
ATOM     13  C   UNL     1      10.091  13.597  18.738  0.00  0.00    +0.000 A 
ATOM     14  N   UNL     1       9.312  12.566  18.286  0.00  0.00    +0.000 N 
ATOM     15  C   UNL     1       8.138  12.890  17.460  0.00  0.00    +0.000 C 
ENDBRANCH   8   9
ENDBRANCH   4   7
BRANCH   1  16
ATOM     16  O   UNL     1       5.589   4.651  16.690  0.00  0.00    +0.000 OA
BRANCH  16  18
ATOM     17  C   UNL     1       6.328   4.389  14.443  0.00  0.00    +0.000 C 
ATOM     18  C   UNL     1       6.034   3.719  15.769  0.00  0.00    +0.000 C 
ENDBRANCH  16  18
ENDBRANCH   1  16
TORSDOF 4
ENDMDL
MODEL 7
REMARK VINA RESULT:      -6.1      6.079      7.764
REMARK  Name = 
REMARK  6 active torsions:
REMARK  status: ('A' for Active; 'I' for Inactive)
REMARK    1  A    between atoms: C_1  and  C_2
REMARK    2  A    between atoms: C_2  and  O_3
REMARK    3  A    between atoms: O_3  and  C_4
REMARK    4  A    between atoms: C_7  and  C_8
REMARK    5  A    between atoms: C_9  and  C_10
REMARK    6  A    between atoms: N_15  and  C_16
REMARK                            x       y       z     vdW  Elec       q    Type
REMARK                         _______ _______ _______ _____ _____    ______ ____
ROOT
ATOM      1  C   UNL     1       4.128   5.043  17.127  0.00  0.00    +0.000 A 
ATOM      2  C   UNL     1       4.190   6.448  17.133  0.00  0.00    +0.000 A 
ATOM      3  C   UNL     1       3.453   7.187  18.051  0.00  0.00    +0.000 A 
ATOM      4  C   UNL     1       2.636   6.543  18.998  0.00  0.00    +0.000 A 
ATOM      5  C   UNL     1       2.581   5.139  18.999  0.00  0.00    +0.000 A 
ATOM      6  C   UNL     1       3.317   4.395  18.068  0.00  0.00    +0.000 A 
ENDROOT
BRANCH   4   7
ATOM      7  C   UNL     1       1.845   7.294  20.009  0.00  0.00    +0.000 C 
ATOM      8  C   UNL     1       1.418   8.565  19.844  0.00  0.00    +0.000 C 
BRANCH   8   9
ATOM      9  C   UNL     1       0.653   9.330  20.877  0.00  0.00    +0.000 A 
ATOM     10  C   UNL     1       0.661   8.895  22.218  0.00  0.00    +0.000 A 
ATOM     11  C   UNL     1      -0.027   9.614  23.188  0.00  0.00    +0.000 A 
ATOM     12  C   UNL     1      -0.728  10.756  22.830  0.00  0.00    +0.000 A 
ATOM     13  C   UNL     1      -0.731  11.171  21.498  0.00  0.00    +0.000 A 
ATOM     14  N   UNL     1      -0.048  10.473  20.540  0.00  0.00    +0.000 N 
ATOM     15  C   UNL     1      -0.111  10.953  19.150  0.00  0.00    +0.000 C 
ENDBRANCH   8   9
ENDBRANCH   4   7
BRANCH   1  16
ATOM     16  O   UNL     1       4.835   4.299  16.236  0.00  0.00    +0.000 OA
BRANCH  16  18
ATOM     17  C   UNL     1       7.014   4.754  15.395  0.00  0.00    +0.000 C 
ATOM     18  C   UNL     1       5.520   4.825  15.155  0.00  0.00    +0.000 C 
ENDBRANCH  16  18
ENDBRANCH   1  16
TORSDOF 4
ENDMDL
MODEL 8
REMARK VINA RESULT:      -6.0      5.650      7.851
REMARK  Name = 
REMARK  6 active torsions:
REMARK  status: ('A' for Active; 'I' for Inactive)
REMARK    1  A    between atoms: C_1  and  C_2
REMARK    2  A    between atoms: C_2  and  O_3
REMARK    3  A    between atoms: O_3  and  C_4
REMARK    4  A    between atoms: C_7  and  C_8
REMARK    5  A    between atoms: C_9  and  C_10
REMARK    6  A    between atoms: N_15  and  C_16
REMARK                            x       y       z     vdW  Elec       q    Type
REMARK                         _______ _______ _______ _____ _____    ______ ____
ROOT
ATOM      1  C   UNL     1       0.752   9.733  19.864  0.00  0.00    +0.000 A 
ATOM      2  C   UNL     1       1.149   9.928  18.529  0.00  0.00    +0.000 A 
ATOM      3  C   UNL     1       1.970   9.006  17.891  0.00  0.00    +0.000 A 
ATOM      4  C   UNL     1       2.416   7.855  18.567  0.00  0.00    +0.000 A 
ATOM      5  C   UNL     1       2.011   7.655  19.898  0.00  0.00    +0.000 A 
ATOM      6  C   UNL     1       1.191   8.588  20.543  0.00  0.00    +0.000 A 
ENDROOT
BRANCH   4   7
ATOM      7  C   UNL     1       3.280   6.834  17.917  0.00  0.00    +0.000 C 
ATOM      8  C   UNL     1       4.515   7.088  17.429  0.00  0.00    +0.000 C 
BRANCH   8   9
ATOM      9  C   UNL     1       5.368   6.068  16.745  0.00  0.00    +0.000 A 
ATOM     10  C   UNL     1       5.196   5.822  15.368  0.00  0.00    +0.000 A 
ATOM     11  C   UNL     1       6.001   4.894  14.719  0.00  0.00    +0.000 A 
ATOM     12  C   UNL     1       6.970   4.205  15.434  0.00  0.00    +0.000 A 
ATOM     13  C   UNL     1       7.125   4.455  16.798  0.00  0.00    +0.000 A 
ATOM     14  N   UNL     1       6.341   5.374  17.440  0.00  0.00    +0.000 N 
ATOM     15  C   UNL     1       6.542   5.574  18.885  0.00  0.00    +0.000 C 
ENDBRANCH   8   9
ENDBRANCH   4   7
BRANCH   1  16
ATOM     16  O   UNL     1      -0.046  10.623  20.511  0.00  0.00    +0.000 OA
BRANCH  16  18
ATOM     17  C   UNL     1      -0.461  12.777  21.434  0.00  0.00    +0.000 C 
ATOM     18  C   UNL     1      -0.122  11.969  20.199  0.00  0.00    +0.000 C 
ENDBRANCH  16  18
ENDBRANCH   1  16
TORSDOF 4
ENDMDL
MODEL 9
REMARK VINA RESULT:      -6.0      5.839      7.500
REMARK  Name = 
REMARK  6 active torsions:
REMARK  status: ('A' for Active; 'I' for Inactive)
REMARK    1  A    between atoms: C_1  and  C_2
REMARK    2  A    between atoms: C_2  and  O_3
REMARK    3  A    between atoms: O_3  and  C_4
REMARK    4  A    between atoms: C_7  and  C_8
REMARK    5  A    between atoms: C_9  and  C_10
REMARK    6  A    between atoms: N_15  and  C_16
REMARK                            x       y       z     vdW  Elec       q    Type
REMARK                         _______ _______ _______ _____ _____    ______ ____
ROOT
ATOM      1  C   UNL     1       4.411   5.067  16.814  0.00  0.00    +0.000 A 
ATOM      2  C   UNL     1       3.698   4.389  17.819  0.00  0.00    +0.000 A 
ATOM      3  C   UNL     1       2.993   5.094  18.787  0.00  0.00    +0.000 A 
ATOM      4  C   UNL     1       2.973   6.501  18.777  0.00  0.00    +0.000 A 
ATOM      5  C   UNL     1       3.678   7.178  17.767  0.00  0.00    +0.000 A 
ATOM      6  C   UNL     1       4.395   6.467  16.797  0.00  0.00    +0.000 A 
ENDROOT
BRANCH   4   7
ATOM      7  C   UNL     1       2.217   7.294  19.782  0.00  0.00    +0.000 C 
ATOM      8  C   UNL     1       1.548   8.433  19.498  0.00  0.00    +0.000 C 
BRANCH   8   9
ATOM      9  C   UNL     1       0.817   9.248  20.517  0.00  0.00    +0.000 A 
ATOM     10  C   UNL     1       0.269   8.620  21.654  0.00  0.00    +0.000 A 
ATOM     11  C   UNL     1      -0.390   9.373  22.617  0.00  0.00    +0.000 A 
ATOM     12  C   UNL     1      -0.513  10.745  22.453  0.00  0.00    +0.000 A 
ATOM     13  C   UNL     1       0.030  11.353  21.320  0.00  0.00    +0.000 A 
ATOM     14  N   UNL     1       0.688  10.617  20.372  0.00  0.00    +0.000 N 
ATOM     15  C   UNL     1       1.218  11.317  19.191  0.00  0.00    +0.000 C 
ENDBRANCH   8   9
ENDBRANCH   4   7
BRANCH   1  16
ATOM     16  O   UNL     1       5.113   4.400  15.860  0.00  0.00    +0.000 OA
BRANCH  16  18
ATOM     17  C   UNL     1       7.271   4.506  16.857  0.00  0.00    +0.000 C 
ATOM     18  C   UNL     1       6.453   4.615  15.587  0.00  0.00    +0.000 C 
ENDBRANCH  16  18
ENDBRANCH   1  16
TORSDOF 4
ENDMDL
