MODEL 1
REMARK VINA RESULT:      -8.5      0.000      0.000
REMARK  Name = 
REMARK  6 active torsions:
REMARK  status: ('A' for Active; 'I' for Inactive)
REMARK    1  A    between atoms: C_1  and  C_2
REMARK    2  A    between atoms: C_2  and  C_3
REMARK    3  A    between atoms: C_2  and  C_4
REMARK    4  A    between atoms: C_4  and  C_5
REMARK    5  A    between atoms: C_9  and  C_10
REMARK    6  A    between atoms: N_21  and  C_22
REMARK                            x       y       z     vdW  Elec       q    Type
REMARK                         _______ _______ _______ _____ _____    ______ ____
ROOT
ATOM      1  C   UNL     1       3.399   4.508  18.427  0.00  0.00    +0.000 C 
ATOM      2  N   UNL     1       3.322   3.960  19.791  0.00  0.00    +0.000 N 
ATOM      3  C   UNL     1       2.669   4.818  20.611  0.00  0.00    +0.000 C 
ATOM      4  N   UNL     1       2.278   4.566  21.799  0.00  0.00    +0.000 NA
ATOM      5  N   UNL     1       2.436   5.997  19.995  0.00  0.00    +0.000 N 
ATOM      6  C   UNL     1       1.864   7.176  20.602  0.00  0.00    +0.000 C 
ATOM      7  C   UNL     1       2.774   5.919  18.660  0.00  0.00    +0.000 C 
ATOM      8  O   UNL     1       2.578   6.780  17.814  0.00  0.00    +0.000 OA
ATOM      9  H   UNL     1       3.196   2.968  19.916  0.00  0.00    +0.000 HD
ATOM     10  H   UNL     1       2.556   3.611  22.052  0.00  0.00    +0.000 HD
ENDROOT
BRANCH   1  11
ATOM     11  C   UNL     1       4.850   4.645  17.947  0.00  0.00    +0.000 A 
ATOM     12  C   UNL     1       5.819   5.241  18.769  0.00  0.00    +0.000 A 
ATOM     13  C   UNL     1       7.094   5.518  18.284  0.00  0.00    +0.000 A 
ATOM     14  C   UNL     1       7.410   5.242  16.952  0.00  0.00    +0.000 A 
ATOM     15  C   UNL     1       6.482   4.634  16.092  0.00  0.00    +0.000 A 
ATOM     16  C   UNL     1       5.232   4.284  16.642  0.00  0.00    +0.000 A 
BRANCH  15  17
ATOM     17  C   UNL     1       6.751   4.478  14.637  0.00  0.00    +0.000 A 
ATOM     18  C   UNL     1       7.739   5.221  13.968  0.00  0.00    +0.000 A 
ATOM     19  C   UNL     1       7.887   5.158  12.576  0.00  0.00    +0.000 A 
ATOM     20  C   UNL     1       7.066   4.323  11.823  0.00  0.00    +0.000 A 
ATOM     21  C   UNL     1       6.108   3.553  12.467  0.00  0.00    +0.000 A 
ATOM     22 CL   UNL     1       5.084   2.513  11.549  0.00  0.00    +0.000 Cl
ATOM     23  C   UNL     1       5.949   3.628  13.848  0.00  0.00    +0.000 A 
ENDBRANCH  15  17
ENDBRANCH   1  11
BRANCH   1  25
ATOM     24  C   UNL     1       2.664   2.125  17.744  0.00  0.00    +0.000 C 
ATOM     25  C   UNL     1       2.547   3.634  17.448  0.00  0.00    +0.000 C 
ATOM     26  C   UNL     1       1.059   4.008  17.418  0.00  0.00    +0.000 C 
ENDBRANCH   1  25
TORSDOF 3
ENDMDL
MODEL 2
REMARK VINA RESULT:      -8.5      4.406      7.995
REMARK  Name = 
REMARK  6 active torsions:
REMARK  status: ('A' for Active; 'I' for Inactive)
REMARK    1  A    between atoms: C_1  and  C_2
REMARK    2  A    between atoms: C_2  and  C_3
REMARK    3  A    between atoms: C_2  and  C_4
REMARK    4  A    between atoms: C_4  and  C_5
REMARK    5  A    between atoms: C_9  and  C_10
REMARK    6  A    between atoms: N_21  and  C_22
REMARK                            x       y       z     vdW  Elec       q    Type
REMARK                         _______ _______ _______ _____ _____    ______ ____
ROOT
ATOM      1  C   UNL     1       2.962   5.408  19.046  0.00  0.00    +0.000 C 
ATOM      2  N   UNL     1       3.072   5.056  20.471  0.00  0.00    +0.000 N 
ATOM      3  C   UNL     1       2.349   3.943  20.742  0.00  0.00    +0.000 C 
ATOM      4  N   UNL     1       2.379   3.278  21.831  0.00  0.00    +0.000 NA
ATOM      5  N   UNL     1       1.596   3.581  19.681  0.00  0.00    +0.000 N 
ATOM      6  C   UNL     1       0.625   2.515  19.650  0.00  0.00    +0.000 C 
ATOM      7  C   UNL     1       1.918   4.347  18.579  0.00  0.00    +0.000 C 
ATOM      8  O   UNL     1       1.494   4.190  17.442  0.00  0.00    +0.000 OA
ATOM      9  H   UNL     1       3.949   5.202  20.947  0.00  0.00    +0.000 HD
ATOM     10  H   UNL     1       3.024   3.732  22.487  0.00  0.00    +0.000 HD
ENDROOT
BRANCH   1  11
ATOM     11  C   UNL     1       2.403   6.823  18.849  0.00  0.00    +0.000 A 
ATOM     12  C   UNL     1       2.796   7.597  17.745  0.00  0.00    +0.000 A 
ATOM     13  C   UNL     1       2.426   8.934  17.643  0.00  0.00    +0.000 A 
ATOM     14  C   UNL     1       1.689   9.536  18.664  0.00  0.00    +0.000 A 
ATOM     15  C   UNL     1       1.259   8.804  19.783  0.00  0.00    +0.000 A 
ATOM     16  C   UNL     1       1.574   7.430  19.810  0.00  0.00    +0.000 A 
BRANCH  15  17
ATOM     17  C   UNL     1       0.611   9.466  20.947  0.00  0.00    +0.000 A 
ATOM     18  C   UNL     1       0.710   8.959  22.255  0.00  0.00    +0.000 A 
ATOM     19  C   UNL     1      -0.015   9.519  23.315  0.00  0.00    +0.000 A 
ATOM     20  C   UNL     1      -0.836  10.621  23.095  0.00  0.00    +0.000 A 
ATOM     21  C   UNL     1      -0.921  11.160  21.819  0.00  0.00    +0.000 A 
ATOM     22 CL   UNL     1      -1.933  12.526  21.530  0.00  0.00    +0.000 Cl
ATOM     23  C   UNL     1      -0.214  10.594  20.761  0.00  0.00    +0.000 A 
ENDBRANCH  15  17
ENDBRANCH   1  11
BRANCH   1  25
ATOM     24  C   UNL     1       5.534   5.498  19.288  0.00  0.00    +0.000 C 
ATOM     25  C   UNL     1       4.348   5.231  18.340  0.00  0.00    +0.000 C 
ATOM     26  C   UNL     1       4.542   3.854  17.694  0.00  0.00    +0.000 C 
ENDBRANCH   1  25
TORSDOF 3
ENDMDL
MODEL 3
REMARK VINA RESULT:      -8.0      1.450      2.375
REMARK  Name = 
REMARK  6 active torsions:
REMARK  status: ('A' for Active; 'I' for Inactive)
REMARK    1  A    between atoms: C_1  and  C_2
REMARK    2  A    between atoms: C_2  and  C_3
REMARK    3  A    between atoms: C_2  and  C_4
REMARK    4  A    between atoms: C_4  and  C_5
REMARK    5  A    between atoms: C_9  and  C_10
REMARK    6  A    between atoms: N_21  and  C_22
REMARK                            x       y       z     vdW  Elec       q    Type
REMARK                         _______ _______ _______ _____ _____    ______ ____
ROOT
ATOM      1  C   UNL     1       3.107   4.907  18.374  0.00  0.00    +0.000 C 
ATOM      2  N   UNL     1       2.234   3.986  17.629  0.00  0.00    +0.000 N 
ATOM      3  C   UNL     1       1.549   3.187  18.482  0.00  0.00    +0.000 C 
ATOM      4  N   UNL     1       0.584   2.412  18.170  0.00  0.00    +0.000 NA
ATOM      5  N   UNL     1       1.991   3.336  19.749  0.00  0.00    +0.000 N 
ATOM      6  C   UNL     1       1.568   2.566  20.894  0.00  0.00    +0.000 C 
ATOM      7  C   UNL     1       2.886   4.383  19.827  0.00  0.00    +0.000 C 
ATOM      8  O   UNL     1       3.377   4.839  20.851  0.00  0.00    +0.000 OA
ATOM      9  H   UNL     1       1.782   4.309  16.787  0.00  0.00    +0.000 HD
ATOM     10  H   UNL     1       0.418   2.469  17.158  0.00  0.00    +0.000 HD
ENDROOT
BRANCH   1  11
ATOM     11  C   UNL     1       4.580   4.749  17.973  0.00  0.00    +0.000 A 
ATOM     12  C   UNL     1       5.603   5.054  18.885  0.00  0.00    +0.000 A 
ATOM     13  C   UNL     1       6.935   5.072  18.483  0.00  0.00    +0.000 A 
ATOM     14  C   UNL     1       7.266   4.827  17.149  0.00  0.00    +0.000 A 
ATOM     15  C   UNL     1       6.283   4.504  16.199  0.00  0.00    +0.000 A 
ATOM     16  C   UNL     1       4.954   4.405  16.661  0.00  0.00    +0.000 A 
BRANCH  15  17
ATOM     17  C   UNL     1       6.602   4.394  14.751  0.00  0.00    +0.000 A 
ATOM     18  C   UNL     1       7.604   5.167  14.138  0.00  0.00    +0.000 A 
ATOM     19  C   UNL     1       7.799   5.146  12.750  0.00  0.00    +0.000 A 
ATOM     20  C   UNL     1       7.012   4.328  11.946  0.00  0.00    +0.000 A 
ATOM     21  C   UNL     1       6.040   3.530  12.533  0.00  0.00    +0.000 A 
ATOM     22 CL   UNL     1       5.058   2.509  11.551  0.00  0.00    +0.000 Cl
ATOM     23  C   UNL     1       5.834   3.562  13.910  0.00  0.00    +0.000 A 
ENDBRANCH  15  17
ENDBRANCH   1  11
BRANCH   1  25
ATOM     24  C   UNL     1       2.209   7.041  19.524  0.00  0.00    +0.000 C 
ATOM     25  C   UNL     1       2.614   6.381  18.191  0.00  0.00    +0.000 C 
ATOM     26  C   UNL     1       3.629   7.291  17.488  0.00  0.00    +0.000 C 
ENDBRANCH   1  25
TORSDOF 3
ENDMDL
MODEL 4
REMARK VINA RESULT:      -8.0      2.016      2.731
REMARK  Name = 
REMARK  6 active torsions:
REMARK  status: ('A' for Active; 'I' for Inactive)
REMARK    1  A    between atoms: C_1  and  C_2
REMARK    2  A    between atoms: C_2  and  C_3
REMARK    3  A    between atoms: C_2  and  C_4
REMARK    4  A    between atoms: C_4  and  C_5
REMARK    5  A    between atoms: C_9  and  C_10
REMARK    6  A    between atoms: N_21  and  C_22
REMARK                            x       y       z     vdW  Elec       q    Type
REMARK                         _______ _______ _______ _____ _____    ______ ____
ROOT
ATOM      1  C   UNL     1       3.287   3.841  18.423  0.00  0.00    +0.000 C 
ATOM      2  N   UNL     1       3.339   2.488  17.847  0.00  0.00    +0.000 N 
ATOM      3  C   UNL     1       3.850   1.610  18.743  0.00  0.00    +0.000 C 
ATOM      4  N   UNL     1       3.861   0.339  18.624  0.00  0.00    +0.000 NA
ATOM      5  N   UNL     1       4.329   2.250  19.832  0.00  0.00    +0.000 N 
ATOM      6  C   UNL     1       5.041   1.643  20.931  0.00  0.00    +0.000 C 
ATOM      7  C   UNL     1       3.999   3.588  19.788  0.00  0.00    +0.000 C 
ATOM      8  O   UNL     1       4.191   4.409  20.675  0.00  0.00    +0.000 OA
ATOM      9  H   UNL     1       2.601   2.187  17.230  0.00  0.00    +0.000 HD
ATOM     10  H   UNL     1       3.438   0.081  17.725  0.00  0.00    +0.000 HD
ENDROOT
BRANCH   1  11
ATOM     11  C   UNL     1       4.088   4.849  17.587  0.00  0.00    +0.000 A 
ATOM     12  C   UNL     1       3.906   6.229  17.770  0.00  0.00    +0.000 A 
ATOM     13  C   UNL     1       4.501   7.147  16.910  0.00  0.00    +0.000 A 
ATOM     14  C   UNL     1       5.257   6.701  15.825  0.00  0.00    +0.000 A 
ATOM     15  C   UNL     1       5.481   5.332  15.605  0.00  0.00    +0.000 A 
ATOM     16  C   UNL     1       4.939   4.434  16.547  0.00  0.00    +0.000 A 
BRANCH  15  17
ATOM     17  C   UNL     1       6.150   4.838  14.371  0.00  0.00    +0.000 A 
ATOM     18  C   UNL     1       7.334   5.411  13.873  0.00  0.00    +0.000 A 
ATOM     19  C   UNL     1       7.875   5.021  12.641  0.00  0.00    +0.000 A 
ATOM     20  C   UNL     1       7.257   4.025  11.890  0.00  0.00    +0.000 A 
ATOM     21  C   UNL     1       6.107   3.421  12.379  0.00  0.00    +0.000 A 
ATOM     22 CL   UNL     1       5.331   2.185  11.462  0.00  0.00    +0.000 Cl
ATOM     23  C   UNL     1       5.560   3.819  13.596  0.00  0.00    +0.000 A 
ENDBRANCH  15  17
ENDBRANCH   1  11
BRANCH   1  25
ATOM     24  C   UNL     1       0.990   4.200  17.292  0.00  0.00    +0.000 C 
ATOM     25  C   UNL     1       1.799   4.292  18.601  0.00  0.00    +0.000 C 
ATOM     26  C   UNL     1       1.045   3.523  19.693  0.00  0.00    +0.000 C 
ENDBRANCH   1  25
TORSDOF 3
ENDMDL
MODEL 5
REMARK VINA RESULT:      -8.0      1.791      2.863
REMARK  Name = 
REMARK  6 active torsions:
REMARK  status: ('A' for Active; 'I' for Inactive)
REMARK    1  A    between atoms: C_1  and  C_2
REMARK    2  A    between atoms: C_2  and  C_3
REMARK    3  A    between atoms: C_2  and  C_4
REMARK    4  A    between atoms: C_4  and  C_5
REMARK    5  A    between atoms: C_9  and  C_10
REMARK    6  A    between atoms: N_21  and  C_22
REMARK                            x       y       z     vdW  Elec       q    Type
REMARK                         _______ _______ _______ _____ _____    ______ ____
ROOT
ATOM      1  C   UNL     1       4.066   4.409  18.553  0.00  0.00    +0.000 C 
ATOM      2  N   UNL     1       3.073   3.935  17.575  0.00  0.00    +0.000 N 
ATOM      3  C   UNL     1       2.779   2.631  17.792  0.00  0.00    +0.000 C 
ATOM      4  N   UNL     1       1.833   1.975  17.240  0.00  0.00    +0.000 NA
ATOM      5  N   UNL     1       3.603   2.093  18.717  0.00  0.00    +0.000 N 
ATOM      6  C   UNL     1       3.650   0.706  19.112  0.00  0.00    +0.000 C 
ATOM      7  C   UNL     1       4.384   3.073  19.294  0.00  0.00    +0.000 C 
ATOM      8  O   UNL     1       5.148   2.926  20.238  0.00  0.00    +0.000 OA
ATOM      9  H   UNL     1       2.343   4.561  17.273  0.00  0.00    +0.000 HD
ATOM     10  H   UNL     1       1.336   2.587  16.583  0.00  0.00    +0.000 HD
ENDROOT
BRANCH   1  11
ATOM     11  C   UNL     1       5.329   4.949  17.869  0.00  0.00    +0.000 A 
ATOM     12  C   UNL     1       6.063   5.994  18.453  0.00  0.00    +0.000 A 
ATOM     13  C   UNL     1       7.111   6.600  17.767  0.00  0.00    +0.000 A 
ATOM     14  C   UNL     1       7.418   6.201  16.465  0.00  0.00    +0.000 A 
ATOM     15  C   UNL     1       6.724   5.152  15.840  0.00  0.00    +0.000 A 
ATOM     16  C   UNL     1       5.730   4.500  16.598  0.00  0.00    +0.000 A 
BRANCH  15  17
ATOM     17  C   UNL     1       6.934   4.822  14.405  0.00  0.00    +0.000 A 
ATOM     18  C   UNL     1       7.810   5.552  13.583  0.00  0.00    +0.000 A 
ATOM     19  C   UNL     1       7.895   5.311  12.205  0.00  0.00    +0.000 A 
ATOM     20  C   UNL     1       7.123   4.311  11.622  0.00  0.00    +0.000 A 
ATOM     21  C   UNL     1       6.277   3.553  12.420  0.00  0.00    +0.000 A 
ATOM     22 CL   UNL     1       5.316   2.309  11.714  0.00  0.00    +0.000 Cl
ATOM     23  C   UNL     1       6.181   3.803  13.787  0.00  0.00    +0.000 A 
ENDBRANCH  15  17
ENDBRANCH   1  11
BRANCH   1  25
ATOM     24  C   UNL     1       2.668   6.578  18.725  0.00  0.00    +0.000 C 
ATOM     25  C   UNL     1       3.420   5.476  19.499  0.00  0.00    +0.000 C 
ATOM     26  C   UNL     1       2.469   4.882  20.545  0.00  0.00    +0.000 C 
ENDBRANCH   1  25
TORSDOF 3
ENDMDL
MODEL 6
REMARK VINA RESULT:      -7.6      1.316      1.652
REMARK  Name = 
REMARK  6 active torsions:
REMARK  status: ('A' for Active; 'I' for Inactive)
REMARK    1  A    between atoms: C_1  and  C_2
REMARK    2  A    between atoms: C_2  and  C_3
REMARK    3  A    between atoms: C_2  and  C_4
REMARK    4  A    between atoms: C_4  and  C_5
REMARK    5  A    between atoms: C_9  and  C_10
REMARK    6  A    between atoms: N_21  and  C_22
REMARK                            x       y       z     vdW  Elec       q    Type
REMARK                         _______ _______ _______ _____ _____    ______ ____
ROOT
ATOM      1  C   UNL     1       3.394   3.757  18.797  0.00  0.00    +0.000 C 
ATOM      2  N   UNL     1       3.467   3.341  20.207  0.00  0.00    +0.000 N 
ATOM      3  C   UNL     1       2.675   4.126  20.975  0.00  0.00    +0.000 C 
ATOM      4  N   UNL     1       2.376   3.919  22.198  0.00  0.00    +0.000 NA
ATOM      5  N   UNL     1       2.191   5.170  20.267  0.00  0.00    +0.000 N 
ATOM      6  C   UNL     1       1.408   6.263  20.791  0.00  0.00    +0.000 C 
ATOM      7  C   UNL     1       2.502   5.031  18.931  0.00  0.00    +0.000 C 
ATOM      8  O   UNL     1       2.113   5.749  18.020  0.00  0.00    +0.000 OA
ATOM      9  H   UNL     1       3.549   2.360  20.426  0.00  0.00    +0.000 HD
ATOM     10  H   UNL     1       2.849   3.067  22.522  0.00  0.00    +0.000 HD
ENDROOT
BRANCH   1  11
ATOM     11  C   UNL     1       4.774   4.134  18.240  0.00  0.00    +0.000 A 
ATOM     12  C   UNL     1       5.704   4.814  19.041  0.00  0.00    +0.000 A 
ATOM     13  C   UNL     1       6.889   5.304  18.500  0.00  0.00    +0.000 A 
ATOM     14  C   UNL     1       7.147   5.158  17.136  0.00  0.00    +0.000 A 
ATOM     15  C   UNL     1       6.256   4.473  16.293  0.00  0.00    +0.000 A 
ATOM     16  C   UNL     1       5.110   3.912  16.892  0.00  0.00    +0.000 A 
BRANCH  15  17
ATOM     17  C   UNL     1       6.442   4.446  14.817  0.00  0.00    +0.000 A 
ATOM     18  C   UNL     1       5.788   3.516  13.991  0.00  0.00    +0.000 A 
ATOM     19  C   UNL     1       6.077   3.419  12.623  0.00  0.00    +0.000 A 
ATOM     20  C   UNL     1       7.010   4.274  12.044  0.00  0.00    +0.000 A 
ATOM     21  C   UNL     1       7.642   5.224  12.834  0.00  0.00    +0.000 A 
ATOM     22 CL   UNL     1       8.799   6.292  12.132  0.00  0.00    +0.000 Cl
ATOM     23  C   UNL     1       7.367   5.310  14.197  0.00  0.00    +0.000 A 
ENDBRANCH  15  17
ENDBRANCH   1  11
BRANCH   1  25
ATOM     24  C   UNL     1       3.416   1.274  18.077  0.00  0.00    +0.000 C 
ATOM     25  C   UNL     1       2.711   2.639  17.941  0.00  0.00    +0.000 C 
ATOM     26  C   UNL     1       1.220   2.448  18.246  0.00  0.00    +0.000 C 
ENDBRANCH   1  25
TORSDOF 3
ENDMDL
MODEL 7
REMARK VINA RESULT:      -7.5      4.274      6.526
REMARK  Name = 
REMARK  6 active torsions:
REMARK  status: ('A' for Active; 'I' for Inactive)
REMARK    1  A    between atoms: C_1  and  C_2
REMARK    2  A    between atoms: C_2  and  C_3
REMARK    3  A    between atoms: C_2  and  C_4
REMARK    4  A    between atoms: C_4  and  C_5
REMARK    5  A    between atoms: C_9  and  C_10
REMARK    6  A    between atoms: N_21  and  C_22
REMARK                            x       y       z     vdW  Elec       q    Type
REMARK                         _______ _______ _______ _____ _____    ______ ____
ROOT
ATOM      1  C   UNL     1       2.579   3.579  18.709  0.00  0.00    +0.000 C 
ATOM      2  N   UNL     1       3.018   2.471  17.846  0.00  0.00    +0.000 N 
ATOM      3  C   UNL     1       3.838   1.635  18.526  0.00  0.00    +0.000 C 
ATOM      4  N   UNL     1       4.242   0.493  18.126  0.00  0.00    +0.000 NA
ATOM      5  N   UNL     1       4.161   2.147  19.733  0.00  0.00    +0.000 N 
ATOM      6  C   UNL     1       5.099   1.583  20.674  0.00  0.00    +0.000 C 
ATOM      7  C   UNL     1       3.422   3.284  19.988  0.00  0.00    +0.000 C 
ATOM      8  O   UNL     1       3.403   3.913  21.037  0.00  0.00    +0.000 OA
ATOM      9  H   UNL     1       2.373   2.088  17.172  0.00  0.00    +0.000 HD
ATOM     10  H   UNL     1       3.865   0.310  17.188  0.00  0.00    +0.000 HD
ENDROOT
BRANCH   1  11
ATOM     11  C   UNL     1       2.962   4.946  18.126  0.00  0.00    +0.000 A 
ATOM     12  C   UNL     1       4.150   5.099  17.393  0.00  0.00    +0.000 A 
ATOM     13  C   UNL     1       4.589   6.360  17.002  0.00  0.00    +0.000 A 
ATOM     14  C   UNL     1       3.869   7.498  17.372  0.00  0.00    +0.000 A 
ATOM     15  C   UNL     1       2.667   7.399  18.093  0.00  0.00    +0.000 A 
ATOM     16  C   UNL     1       2.206   6.101  18.394  0.00  0.00    +0.000 A 
BRANCH  15  17
ATOM     17  C   UNL     1       1.975   8.602  18.626  0.00  0.00    +0.000 A 
ATOM     18  C   UNL     1       1.952   9.828  17.937  0.00  0.00    +0.000 A 
ATOM     19  C   UNL     1       1.411  10.984  18.516  0.00  0.00    +0.000 A 
ATOM     20  C   UNL     1       0.853  10.932  19.789  0.00  0.00    +0.000 A 
ATOM     21  C   UNL     1       0.832   9.725  20.474  0.00  0.00    +0.000 A 
ATOM     22 CL   UNL     1       0.142   9.645  22.051  0.00  0.00    +0.000 Cl
ATOM     23  C   UNL     1       1.384   8.579  19.907  0.00  0.00    +0.000 A 
ENDBRANCH  15  17
ENDBRANCH   1  11
BRANCH   1  25
ATOM     24  C   UNL     1       0.476   2.076  18.660  0.00  0.00    +0.000 C 
ATOM     25  C   UNL     1       1.039   3.476  18.974  0.00  0.00    +0.000 C 
ATOM     26  C   UNL     1       0.630   3.855  20.403  0.00  0.00    +0.000 C 
ENDBRANCH   1  25
TORSDOF 3
ENDMDL
MODEL 8
REMARK VINA RESULT:      -7.5      5.324      8.355
REMARK  Name = 
REMARK  6 active torsions:
REMARK  status: ('A' for Active; 'I' for Inactive)
REMARK    1  A    between atoms: C_1  and  C_2
REMARK    2  A    between atoms: C_2  and  C_3
REMARK    3  A    between atoms: C_2  and  C_4
REMARK    4  A    between atoms: C_4  and  C_5
REMARK    5  A    between atoms: C_9  and  C_10
REMARK    6  A    between atoms: N_21  and  C_22
REMARK                            x       y       z     vdW  Elec       q    Type
REMARK                         _______ _______ _______ _____ _____    ______ ____
ROOT
ATOM      1  C   UNL     1      -0.550  11.666  19.268  0.00  0.00    +0.000 C 
ATOM      2  N   UNL     1      -0.687  11.311  17.847  0.00  0.00    +0.000 N 
ATOM      3  C   UNL     1      -1.967  11.475  17.437  0.00  0.00    +0.000 C 
ATOM      4  N   UNL     1      -2.379  11.428  16.230  0.00  0.00    +0.000 NA
ATOM      5  N   UNL     1      -2.782  11.740  18.481  0.00  0.00    +0.000 N 
ATOM      6  C   UNL     1      -4.219  11.861  18.431  0.00  0.00    +0.000 C 
ATOM      7  C   UNL     1      -2.043  11.939  19.629  0.00  0.00    +0.000 C 
ATOM      8  O   UNL     1      -2.478  12.304  20.714  0.00  0.00    +0.000 OA
ATOM      9  H   UNL     1       0.065  11.529  17.211  0.00  0.00    +0.000 HD
ATOM     10  H   UNL     1      -1.587  11.223  15.610  0.00  0.00    +0.000 HD
ENDROOT
BRANCH   1  11
ATOM     11  C   UNL     1      -0.010  10.495  20.101  0.00  0.00    +0.000 A 
ATOM     12  C   UNL     1      -0.015  10.557  21.503  0.00  0.00    +0.000 A 
ATOM     13  C   UNL     1       0.618   9.578  22.263  0.00  0.00    +0.000 A 
ATOM     14  C   UNL     1       1.306   8.540  21.632  0.00  0.00    +0.000 A 
ATOM     15  C   UNL     1       1.331   8.424  20.233  0.00  0.00    +0.000 A 
ATOM     16  C   UNL     1       0.602   9.382  19.498  0.00  0.00    +0.000 A 
BRANCH  15  17
ATOM     17  C   UNL     1       2.185   7.418  19.547  0.00  0.00    +0.000 A 
ATOM     18  C   UNL     1       2.835   7.684  18.329  0.00  0.00    +0.000 A 
ATOM     19  C   UNL     1       3.525   6.683  17.632  0.00  0.00    +0.000 A 
ATOM     20  C   UNL     1       3.605   5.396  18.156  0.00  0.00    +0.000 A 
ATOM     21  C   UNL     1       3.002   5.120  19.375  0.00  0.00    +0.000 A 
ATOM     22 CL   UNL     1       3.094   3.531  20.038  0.00  0.00    +0.000 Cl
ATOM     23  C   UNL     1       2.302   6.110  20.060  0.00  0.00    +0.000 A 
ENDBRANCH  15  17
ENDBRANCH   1  11
BRANCH   1  25
ATOM     24  C   UNL     1       1.722  12.784  18.750  0.00  0.00    +0.000 C 
ATOM     25  C   UNL     1       0.343  12.942  19.420  0.00  0.00    +0.000 C 
ATOM     26  C   UNL     1      -0.312  14.223  18.887  0.00  0.00    +0.000 C 
ENDBRANCH   1  25
TORSDOF 3
ENDMDL
MODEL 9
REMARK VINA RESULT:      -7.4      4.088      7.084
REMARK  Name = 
REMARK  6 active torsions:
REMARK  status: ('A' for Active; 'I' for Inactive)
REMARK    1  A    between atoms: C_1  and  C_2
REMARK    2  A    between atoms: C_2  and  C_3
REMARK    3  A    between atoms: C_2  and  C_4
REMARK    4  A    between atoms: C_4  and  C_5
REMARK    5  A    between atoms: C_9  and  C_10
REMARK    6  A    between atoms: N_21  and  C_22
REMARK                            x       y       z     vdW  Elec       q    Type
REMARK                         _______ _______ _______ _____ _____    ______ ____
ROOT
ATOM      1  C   UNL     1       3.954   4.685  17.888  0.00  0.00    +0.000 C 
ATOM      2  N   UNL     1       4.392   5.569  16.797  0.00  0.00    +0.000 N 
ATOM      3  C   UNL     1       5.738   5.516  16.654  0.00  0.00    +0.000 C 
ATOM      4  N   UNL     1       6.409   6.018  15.692  0.00  0.00    +0.000 NA
ATOM      5  N   UNL     1       6.306   4.814  17.658  0.00  0.00    +0.000 N 
ATOM      6  C   UNL     1       7.722   4.648  17.886  0.00  0.00    +0.000 C 
ATOM      7  C   UNL     1       5.337   4.212  18.434  0.00  0.00    +0.000 C 
ATOM      8  O   UNL     1       5.531   3.423  19.349  0.00  0.00    +0.000 OA
ATOM      9  H   UNL     1       3.813   5.663  15.977  0.00  0.00    +0.000 HD
ATOM     10  H   UNL     1       5.769   6.495  15.046  0.00  0.00    +0.000 HD
ENDROOT
BRANCH   1  11
ATOM     11  C   UNL     1       3.190   5.452  18.976  0.00  0.00    +0.000 A 
ATOM     12  C   UNL     1       2.633   4.772  20.070  0.00  0.00    +0.000 A 
ATOM     13  C   UNL     1       1.803   5.430  20.972  0.00  0.00    +0.000 A 
ATOM     14  C   UNL     1       1.479   6.773  20.773  0.00  0.00    +0.000 A 
ATOM     15  C   UNL     1       2.020   7.504  19.702  0.00  0.00    +0.000 A 
ATOM     16  C   UNL     1       2.929   6.830  18.861  0.00  0.00    +0.000 A 
BRANCH  15  17
ATOM     17  C   UNL     1       1.565   8.885  19.390  0.00  0.00    +0.000 A 
ATOM     18  C   UNL     1       1.946   9.558  18.215  0.00  0.00    +0.000 A 
ATOM     19  C   UNL     1       1.617  10.903  18.002  0.00  0.00    +0.000 A 
ATOM     20  C   UNL     1       0.872  11.599  18.949  0.00  0.00    +0.000 A 
ATOM     21  C   UNL     1       0.455  10.945  20.100  0.00  0.00    +0.000 A 
ATOM     22 CL   UNL     1      -0.469  11.792  21.282  0.00  0.00    +0.000 Cl
ATOM     23  C   UNL     1       0.796   9.612  20.321  0.00  0.00    +0.000 A 
ENDBRANCH  15  17
ENDBRANCH   1  11
BRANCH   1  25
ATOM     24  C   UNL     1       3.462   2.147  17.957  0.00  0.00    +0.000 C 
ATOM     25  C   UNL     1       3.105   3.502  17.313  0.00  0.00    +0.000 C 
ATOM     26  C   UNL     1       1.590   3.711  17.431  0.00  0.00    +0.000 C 
ENDBRANCH   1  25
TORSDOF 3
ENDMDL
