MODEL 1
REMARK VINA RESULT:      -7.4      0.000      0.000
REMARK  Name = 
REMARK  7 active torsions:
REMARK  status: ('A' for Active; 'I' for Inactive)
REMARK    1  A    between atoms: C_2  and  C_10
REMARK    2  A    between atoms: N_3  and  C_4
REMARK    3  A    between atoms: C_10  and  C_11
REMARK    4  A    between atoms: C_10  and  N_18
REMARK    5  A    between atoms: N_18  and  C_31
REMARK    6  A    between atoms: C_19  and  C_21
REMARK    7  A    between atoms: C_21  and  C_22
REMARK                            x       y       z     vdW  Elec       q    Type
REMARK                         _______ _______ _______ _____ _____    ______ ____
ROOT
ATOM      1  N   UNL     1      -0.602  12.361  21.007  0.00  0.00    +0.000 N 
ATOM      2  C   UNL     1      -0.837  12.561  22.382  0.00  0.00    +0.000 C 
ATOM      3  O   UNL     1      -0.220  13.414  23.047  0.00  0.00    +0.000 OA
ENDROOT
BRANCH   1   4
ATOM      4  C   UNL     1       0.347  13.254  20.386  0.00  0.00    +0.000 A 
ATOM      5  C   UNL     1      -0.108  14.424  19.760  0.00  0.00    +0.000 A 
ATOM      6  C   UNL     1       0.752  15.201  18.979  0.00  0.00    +0.000 A 
ATOM      7  C   UNL     1       2.077  14.813  18.800  0.00  0.00    +0.000 A 
ATOM      8  C   UNL     1       2.555  13.682  19.447  0.00  0.00    +0.000 A 
ATOM      9  C   UNL     1       1.704  12.929  20.261  0.00  0.00    +0.000 A 
ENDBRANCH   1   4
BRANCH   1  10
ATOM     10  C   UNL     1      -1.244  11.278  20.179  0.00  0.00    +0.000 C 
BRANCH  10  11
ATOM     11  C   UNL     1      -0.225  10.259  19.660  0.00  0.00    +0.000 A 
ATOM     12  C   UNL     1       0.088  10.169  18.292  0.00  0.00    +0.000 A 
ATOM     13  C   UNL     1       1.077   9.299  17.834  0.00  0.00    +0.000 A 
ATOM     14  C   UNL     1       1.742   8.480  18.737  0.00  0.00    +0.000 A 
ATOM     15 CL   UNL     1       2.984   7.430  18.177  0.00  0.00    +0.000 Cl
ATOM     16  C   UNL     1       1.415   8.513  20.091  0.00  0.00    +0.000 A 
ATOM     17  C   UNL     1       0.440   9.404  20.554  0.00  0.00    +0.000 A 
ENDBRANCH  10  11
BRANCH  10  19
ATOM     18  O   UNL     1      -1.820  12.069  17.920  0.00  0.00    +0.000 OA
ATOM     19  C   UNL     1      -2.202  11.766  19.048  0.00  0.00    +0.000 C 
ATOM     20  N   UNL     1      -3.529  11.771  19.401  0.00  0.00    +0.000 N 
ATOM     21  H   UNL     1      -3.741  11.516  20.359  0.00  0.00    +0.000 HD
BRANCH  20  22
ATOM     22  C   UNL     1      -4.593  12.377  18.606  0.00  0.00    +0.000 C 
ATOM     23  C   UNL     1      -5.358  11.335  17.792  0.00  0.00    +0.000 C 
ATOM     24  C   UNL     1      -5.941  10.269  18.714  0.00  0.00    +0.000 C 
ATOM     25  C   UNL     1      -6.811  10.866  19.822  0.00  0.00    +0.000 C 
ATOM     26  C   UNL     1      -6.233  12.106  20.512  0.00  0.00    +0.000 C 
ATOM     27  C   UNL     1      -5.573  13.090  19.544  0.00  0.00    +0.000 C 
ENDBRANCH  20  22
ENDBRANCH  10  19
ENDBRANCH   1  10
BRANCH   2  28
ATOM     28  C   UNL     1      -1.983  11.847  23.070  0.00  0.00    +0.000 C 
BRANCH  28  29
ATOM     29  C   UNL     1      -3.169  12.690  23.409  0.00  0.00    +0.000 A 
ATOM     30  C   UNL     1      -4.096  12.371  24.387  0.00  0.00    +0.000 A 
ATOM     31  N   UNL     1      -5.108  13.291  24.348  0.00  0.00    +0.000 N 
ATOM     32  C   UNL     1      -4.872  14.216  23.361  0.00  0.00    +0.000 A 
ATOM     33  C   UNL     1      -5.652  15.306  22.959  0.00  0.00    +0.000 A 
ATOM     34  C   UNL     1      -5.174  16.096  21.912  0.00  0.00    +0.000 A 
ATOM     35  C   UNL     1      -3.966  15.798  21.289  0.00  0.00    +0.000 A 
ATOM     36  C   UNL     1      -3.209  14.689  21.690  0.00  0.00    +0.000 A 
ATOM     37  C   UNL     1      -3.657  13.879  22.756  0.00  0.00    +0.000 A 
ATOM     38  H   UNL     1      -5.929  13.280  24.936  0.00  0.00    +0.000 HD
ENDBRANCH  28  29
ENDBRANCH   2  28
TORSDOF 7
ENDMDL
MODEL 2
REMARK VINA RESULT:      -7.3      2.128      5.506
REMARK  Name = 
REMARK  7 active torsions:
REMARK  status: ('A' for Active; 'I' for Inactive)
REMARK    1  A    between atoms: C_2  and  C_10
REMARK    2  A    between atoms: N_3  and  C_4
REMARK    3  A    between atoms: C_10  and  C_11
REMARK    4  A    between atoms: C_10  and  N_18
REMARK    5  A    between atoms: N_18  and  C_31
REMARK    6  A    between atoms: C_19  and  C_21
REMARK    7  A    between atoms: C_21  and  C_22
REMARK                            x       y       z     vdW  Elec       q    Type
REMARK                         _______ _______ _______ _____ _____    ______ ____
ROOT
ATOM      1  N   UNL     1      -0.631  11.933  20.152  0.00  0.00    +0.000 N 
ATOM      2  C   UNL     1      -1.157  11.254  19.036  0.00  0.00    +0.000 C 
ATOM      3  O   UNL     1      -1.216  10.012  18.977  0.00  0.00    +0.000 OA
ENDROOT
BRANCH   1   4
ATOM      4  C   UNL     1      -0.228  11.110  21.268  0.00  0.00    +0.000 A 
ATOM      5  C   UNL     1       0.940  10.341  21.177  0.00  0.00    +0.000 A 
ATOM      6  C   UNL     1       1.248   9.385  22.150  0.00  0.00    +0.000 A 
ATOM      7  C   UNL     1       0.385   9.174  23.221  0.00  0.00    +0.000 A 
ATOM      8  C   UNL     1      -0.754   9.957  23.350  0.00  0.00    +0.000 A 
ATOM      9  C   UNL     1      -1.039  10.939  22.398  0.00  0.00    +0.000 A 
ENDBRANCH   1   4
BRANCH   1  10
ATOM     10  C   UNL     1      -0.440  13.426  20.233  0.00  0.00    +0.000 C 
BRANCH  10  11
ATOM     11  C   UNL     1       0.803  13.898  19.473  0.00  0.00    +0.000 A 
ATOM     12  C   UNL     1       0.977  15.249  19.123  0.00  0.00    +0.000 A 
ATOM     13  C   UNL     1       2.148  15.689  18.506  0.00  0.00    +0.000 A 
ATOM     14  C   UNL     1       3.148  14.774  18.200  0.00  0.00    +0.000 A 
ATOM     15 CL   UNL     1       4.605  15.321  17.469  0.00  0.00    +0.000 Cl
ATOM     16  C   UNL     1       2.978  13.422  18.491  0.00  0.00    +0.000 A 
ATOM     17  C   UNL     1       1.814  12.985  19.132  0.00  0.00    +0.000 A 
ENDBRANCH  10  11
BRANCH  10  19
ATOM     18  O   UNL     1       0.473  14.212  22.381  0.00  0.00    +0.000 OA
ATOM     19  C   UNL     1      -0.512  14.043  21.666  0.00  0.00    +0.000 C 
ATOM     20  N   UNL     1      -1.771  14.442  22.041  0.00  0.00    +0.000 N 
ATOM     21  H   UNL     1      -2.519  14.246  21.385  0.00  0.00    +0.000 HD
BRANCH  20  22
ATOM     22  C   UNL     1      -2.139  14.848  23.394  0.00  0.00    +0.000 C 
ATOM     23  C   UNL     1      -3.039  16.083  23.391  0.00  0.00    +0.000 C 
ATOM     24  C   UNL     1      -4.296  15.817  22.568  0.00  0.00    +0.000 C 
ATOM     25  C   UNL     1      -5.051  14.572  23.037  0.00  0.00    +0.000 C 
ATOM     26  C   UNL     1      -4.177  13.351  23.338  0.00  0.00    +0.000 C 
ATOM     27  C   UNL     1      -2.882  13.695  24.078  0.00  0.00    +0.000 C 
ENDBRANCH  20  22
ENDBRANCH  10  19
ENDBRANCH   1  10
BRANCH   2  28
ATOM     28  C   UNL     1      -1.828  12.029  17.920  0.00  0.00    +0.000 C 
BRANCH  28  29
ATOM     29  C   UNL     1      -3.244  11.652  17.623  0.00  0.00    +0.000 A 
ATOM     30  C   UNL     1      -3.674  11.134  16.413  0.00  0.00    +0.000 A 
ATOM     31  N   UNL     1      -5.036  11.019  16.445  0.00  0.00    +0.000 N 
ATOM     32  C   UNL     1      -5.522  11.452  17.655  0.00  0.00    +0.000 A 
ATOM     33  C   UNL     1      -6.844  11.532  18.104  0.00  0.00    +0.000 A 
ATOM     34  C   UNL     1      -7.064  12.018  19.394  0.00  0.00    +0.000 A 
ATOM     35  C   UNL     1      -5.998  12.415  20.197  0.00  0.00    +0.000 A 
ATOM     36  C   UNL     1      -4.681  12.347  19.721  0.00  0.00    +0.000 A 
ATOM     37  C   UNL     1      -4.424  11.846  18.427  0.00  0.00    +0.000 A 
ATOM     38  H   UNL     1      -5.612  10.693  15.682  0.00  0.00    +0.000 HD
ENDBRANCH  28  29
ENDBRANCH   2  28
TORSDOF 7
ENDMDL
MODEL 3
REMARK VINA RESULT:      -7.1      2.098      5.489
REMARK  Name = 
REMARK  7 active torsions:
REMARK  status: ('A' for Active; 'I' for Inactive)
REMARK    1  A    between atoms: C_2  and  C_10
REMARK    2  A    between atoms: N_3  and  C_4
REMARK    3  A    between atoms: C_10  and  C_11
REMARK    4  A    between atoms: C_10  and  N_18
REMARK    5  A    between atoms: N_18  and  C_31
REMARK    6  A    between atoms: C_19  and  C_21
REMARK    7  A    between atoms: C_21  and  C_22
REMARK                            x       y       z     vdW  Elec       q    Type
REMARK                         _______ _______ _______ _____ _____    ______ ____
ROOT
ATOM      1  N   UNL     1      -0.735  11.666  20.101  0.00  0.00    +0.000 N 
ATOM      2  C   UNL     1      -1.230  11.106  18.906  0.00  0.00    +0.000 C 
ATOM      3  O   UNL     1      -1.249   9.877  18.703  0.00  0.00    +0.000 OA
ENDROOT
BRANCH   1   4
ATOM      4  C   UNL     1      -0.317  10.731  21.118  0.00  0.00    +0.000 A 
ATOM      5  C   UNL     1      -1.097  10.565  22.271  0.00  0.00    +0.000 A 
ATOM      6  C   UNL     1      -0.623   9.827  23.359  0.00  0.00    +0.000 A 
ATOM      7  C   UNL     1       0.646   9.255  23.316  0.00  0.00    +0.000 A 
ATOM      8  C   UNL     1       1.414   9.372  22.167  0.00  0.00    +0.000 A 
ATOM      9  C   UNL     1       0.921  10.076  21.065  0.00  0.00    +0.000 A 
ENDBRANCH   1   4
BRANCH   1  10
ATOM     10  C   UNL     1      -0.593  13.144  20.357  0.00  0.00    +0.000 C 
BRANCH  10  11
ATOM     11  C   UNL     1       0.625  13.745  19.649  0.00  0.00    +0.000 A 
ATOM     12  C   UNL     1       1.737  12.954  19.306  0.00  0.00    +0.000 A 
ATOM     13  C   UNL     1       2.806  13.487  18.588  0.00  0.00    +0.000 A 
ATOM     14  C   UNL     1       2.794  14.830  18.233  0.00  0.00    +0.000 A 
ATOM     15 CL   UNL     1       4.098  15.480  17.319  0.00  0.00    +0.000 Cl
ATOM     16  C   UNL     1       1.728  15.647  18.605  0.00  0.00    +0.000 A 
ATOM     17  C   UNL     1       0.643  15.106  19.304  0.00  0.00    +0.000 A 
ENDBRANCH  10  11
BRANCH  10  19
ATOM     18  O   UNL     1       0.322  13.815  22.542  0.00  0.00    +0.000 OA
ATOM     19  C   UNL     1      -0.668  13.584  21.853  0.00  0.00    +0.000 C 
ATOM     20  N   UNL     1      -1.947  13.752  22.324  0.00  0.00    +0.000 N 
ATOM     21  H   UNL     1      -2.697  13.523  21.681  0.00  0.00    +0.000 HD
BRANCH  20  22
ATOM     22  C   UNL     1      -2.291  13.951  23.729  0.00  0.00    +0.000 C 
ATOM     23  C   UNL     1      -2.879  15.339  23.978  0.00  0.00    +0.000 C 
ATOM     24  C   UNL     1      -4.112  15.554  23.106  0.00  0.00    +0.000 C 
ATOM     25  C   UNL     1      -5.161  14.456  23.294  0.00  0.00    +0.000 C 
ATOM     26  C   UNL     1      -4.613  13.027  23.338  0.00  0.00    +0.000 C 
ATOM     27  C   UNL     1      -3.319  12.894  24.145  0.00  0.00    +0.000 C 
ENDBRANCH  20  22
ENDBRANCH  10  19
ENDBRANCH   1  10
BRANCH   2  28
ATOM     28  C   UNL     1      -1.915  11.985  17.880  0.00  0.00    +0.000 C 
BRANCH  28  29
ATOM     29  C   UNL     1      -3.343  11.653  17.585  0.00  0.00    +0.000 A 
ATOM     30  C   UNL     1      -3.793  11.162  16.372  0.00  0.00    +0.000 A 
ATOM     31  N   UNL     1      -5.158  11.086  16.408  0.00  0.00    +0.000 N 
ATOM     32  C   UNL     1      -5.625  11.519  17.624  0.00  0.00    +0.000 A 
ATOM     33  C   UNL     1      -6.943  11.634  18.081  0.00  0.00    +0.000 A 
ATOM     34  C   UNL     1      -7.143  12.111  19.377  0.00  0.00    +0.000 A 
ATOM     35  C   UNL     1      -6.063  12.467  20.180  0.00  0.00    +0.000 A 
ATOM     36  C   UNL     1      -4.751  12.367  19.697  0.00  0.00    +0.000 A 
ATOM     37  C   UNL     1      -4.514  11.873  18.396  0.00  0.00    +0.000 A 
ATOM     38  H   UNL     1      -5.746  10.786  15.644  0.00  0.00    +0.000 HD
ENDBRANCH  28  29
ENDBRANCH   2  28
TORSDOF 7
ENDMDL
MODEL 4
REMARK VINA RESULT:      -7.0      2.481      5.345
REMARK  Name = 
REMARK  7 active torsions:
REMARK  status: ('A' for Active; 'I' for Inactive)
REMARK    1  A    between atoms: C_2  and  C_10
REMARK    2  A    between atoms: N_3  and  C_4
REMARK    3  A    between atoms: C_10  and  C_11
REMARK    4  A    between atoms: C_10  and  N_18
REMARK    5  A    between atoms: N_18  and  C_31
REMARK    6  A    between atoms: C_19  and  C_21
REMARK    7  A    between atoms: C_21  and  C_22
REMARK                            x       y       z     vdW  Elec       q    Type
REMARK                         _______ _______ _______ _____ _____    ______ ____
ROOT
ATOM      1  N   UNL     1      -1.363  12.982  20.607  0.00  0.00    +0.000 N 
ATOM      2  C   UNL     1      -0.303  12.286  21.219  0.00  0.00    +0.000 C 
ATOM      3  O   UNL     1       0.841  12.767  21.320  0.00  0.00    +0.000 OA
ENDROOT
BRANCH   1   4
ATOM      4  C   UNL     1      -1.073  14.325  20.165  0.00  0.00    +0.000 A 
ATOM      5  C   UNL     1      -1.651  15.416  20.831  0.00  0.00    +0.000 A 
ATOM      6  C   UNL     1      -1.556  16.709  20.310  0.00  0.00    +0.000 A 
ATOM      7  C   UNL     1      -0.894  16.930  19.106  0.00  0.00    +0.000 A 
ATOM      8  C   UNL     1      -0.278  15.870  18.455  0.00  0.00    +0.000 A 
ATOM      9  C   UNL     1      -0.340  14.585  18.999  0.00  0.00    +0.000 A 
ENDBRANCH   1   4
BRANCH   1  10
ATOM     10  C   UNL     1      -2.736  12.409  20.366  0.00  0.00    +0.000 C 
BRANCH  10  11
ATOM     11  C   UNL     1      -2.927  11.936  18.922  0.00  0.00    +0.000 A 
ATOM     12  C   UNL     1      -1.879  12.002  17.986  0.00  0.00    +0.000 A 
ATOM     13  C   UNL     1      -2.032  11.493  16.697  0.00  0.00    +0.000 A 
ATOM     14  C   UNL     1      -3.249  10.942  16.315  0.00  0.00    +0.000 A 
ATOM     15 CL   UNL     1      -3.427  10.286  14.736  0.00  0.00    +0.000 Cl
ATOM     16  C   UNL     1      -4.318  10.912  17.208  0.00  0.00    +0.000 A 
ATOM     17  C   UNL     1      -4.158  11.399  18.509  0.00  0.00    +0.000 A 
ENDBRANCH  10  11
BRANCH  10  19
ATOM     18  O   UNL     1      -4.116  13.595  22.026  0.00  0.00    +0.000 OA
ATOM     19  C   UNL     1      -3.933  13.288  20.850  0.00  0.00    +0.000 C 
ATOM     20  N   UNL     1      -4.738  13.746  19.836  0.00  0.00    +0.000 N 
ATOM     21  H   UNL     1      -4.510  13.425  18.902  0.00  0.00    +0.000 HD
BRANCH  20  22
ATOM     22  C   UNL     1      -6.027  14.401  20.037  0.00  0.00    +0.000 C 
ATOM     23  C   UNL     1      -6.539  15.050  18.752  0.00  0.00    +0.000 C 
ATOM     24  C   UNL     1      -6.653  14.008  17.644  0.00  0.00    +0.000 C 
ATOM     25  C   UNL     1      -7.514  12.811  18.053  0.00  0.00    +0.000 C 
ATOM     26  C   UNL     1      -7.253  12.266  19.460  0.00  0.00    +0.000 C 
ATOM     27  C   UNL     1      -7.048  13.361  20.509  0.00  0.00    +0.000 C 
ENDBRANCH  20  22
ENDBRANCH  10  19
ENDBRANCH   1  10
BRANCH   2  28
ATOM     28  C   UNL     1      -0.564  10.974  21.931  0.00  0.00    +0.000 C 
BRANCH  28  29
ATOM     29  C   UNL     1       0.286   9.820  21.506  0.00  0.00    +0.000 A 
ATOM     30  C   UNL     1       0.906   8.946  22.383  0.00  0.00    +0.000 A 
ATOM     31  N   UNL     1       1.696   8.091  21.665  0.00  0.00    +0.000 N 
ATOM     32  C   UNL     1       1.615   8.382  20.325  0.00  0.00    +0.000 A 
ATOM     33  C   UNL     1       2.271   7.782  19.245  0.00  0.00    +0.000 A 
ATOM     34  C   UNL     1       2.007   8.280  17.967  0.00  0.00    +0.000 A 
ATOM     35  C   UNL     1       1.127   9.342  17.784  0.00  0.00    +0.000 A 
ATOM     36  C   UNL     1       0.496   9.945  18.881  0.00  0.00    +0.000 A 
ATOM     37  C   UNL     1       0.730   9.455  20.185  0.00  0.00    +0.000 A 
ATOM     38  H   UNL     1       2.282   7.369  22.059  0.00  0.00    +0.000 HD
ENDBRANCH  28  29
ENDBRANCH   2  28
TORSDOF 7
ENDMDL
MODEL 5
REMARK VINA RESULT:      -6.9      5.315     10.282
REMARK  Name = 
REMARK  7 active torsions:
REMARK  status: ('A' for Active; 'I' for Inactive)
REMARK    1  A    between atoms: C_2  and  C_10
REMARK    2  A    between atoms: N_3  and  C_4
REMARK    3  A    between atoms: C_10  and  C_11
REMARK    4  A    between atoms: C_10  and  N_18
REMARK    5  A    between atoms: N_18  and  C_31
REMARK    6  A    between atoms: C_19  and  C_21
REMARK    7  A    between atoms: C_21  and  C_22
REMARK                            x       y       z     vdW  Elec       q    Type
REMARK                         _______ _______ _______ _____ _____    ______ ____
ROOT
ATOM      1  N   UNL     1       4.440  15.919  19.834  0.00  0.00    +0.000 N 
ATOM      2  C   UNL     1       5.713  16.408  19.479  0.00  0.00    +0.000 C 
ATOM      3  O   UNL     1       5.871  17.505  18.910  0.00  0.00    +0.000 OA
ENDROOT
BRANCH   1   4
ATOM      4  C   UNL     1       3.324  16.795  19.570  0.00  0.00    +0.000 A 
ATOM      5  C   UNL     1       2.781  17.561  20.612  0.00  0.00    +0.000 A 
ATOM      6  C   UNL     1       1.582  18.259  20.441  0.00  0.00    +0.000 A 
ATOM      7  C   UNL     1       0.900  18.192  19.229  0.00  0.00    +0.000 A 
ATOM      8  C   UNL     1       1.445  17.475  18.173  0.00  0.00    +0.000 A 
ATOM      9  C   UNL     1       2.664  16.810  18.334  0.00  0.00    +0.000 A 
ENDBRANCH   1   4
BRANCH   1  10
ATOM     10  C   UNL     1       4.183  14.558  20.428  0.00  0.00    +0.000 C 
BRANCH  10  11
ATOM     11  C   UNL     1       2.893  13.924  19.898  0.00  0.00    +0.000 A 
ATOM     12  C   UNL     1       2.850  13.289  18.644  0.00  0.00    +0.000 A 
ATOM     13  C   UNL     1       1.698  12.640  18.204  0.00  0.00    +0.000 A 
ATOM     14  C   UNL     1       0.558  12.648  18.999  0.00  0.00    +0.000 A 
ATOM     15 CL   UNL     1      -0.854  11.821  18.470  0.00  0.00    +0.000 Cl
ATOM     16  C   UNL     1       0.559  13.314  20.223  0.00  0.00    +0.000 A 
ATOM     17  C   UNL     1       1.723  13.944  20.676  0.00  0.00    +0.000 A 
ENDBRANCH  10  11
BRANCH  10  19
ATOM     18  O   UNL     1       3.465  14.994  22.742  0.00  0.00    +0.000 OA
ATOM     19  C   UNL     1       4.276  14.468  21.984  0.00  0.00    +0.000 C 
ATOM     20  N   UNL     1       5.313  13.693  22.439  0.00  0.00    +0.000 N 
ATOM     21  H   UNL     1       5.934  13.313  21.733  0.00  0.00    +0.000 HD
BRANCH  20  22
ATOM     22  C   UNL     1       5.741  13.621  23.833  0.00  0.00    +0.000 C 
ATOM     23  C   UNL     1       6.245  12.227  24.201  0.00  0.00    +0.000 C 
ATOM     24  C   UNL     1       7.394  11.823  23.283  0.00  0.00    +0.000 C 
ATOM     25  C   UNL     1       8.529  12.848  23.281  0.00  0.00    +0.000 C 
ATOM     26  C   UNL     1       8.088  14.313  23.196  0.00  0.00    +0.000 C 
ATOM     27  C   UNL     1       6.868  14.633  24.063  0.00  0.00    +0.000 C 
ENDBRANCH  20  22
ENDBRANCH  10  19
ENDBRANCH   1  10
BRANCH   2  28
ATOM     28  C   UNL     1       6.962  15.680  19.931  0.00  0.00    +0.000 C 
BRANCH  28  29
ATOM     29  C   UNL     1       7.539  14.706  18.954  0.00  0.00    +0.000 A 
ATOM     30  C   UNL     1       6.921  14.329  17.774  0.00  0.00    +0.000 A 
ATOM     31  N   UNL     1       7.661  13.339  17.188  0.00  0.00    +0.000 N 
ATOM     32  C   UNL     1       8.761  13.050  17.958  0.00  0.00    +0.000 A 
ATOM     33  C   UNL     1       9.764  12.096  17.752  0.00  0.00    +0.000 A 
ATOM     34  C   UNL     1      10.781  12.006  18.704  0.00  0.00    +0.000 A 
ATOM     35  C   UNL     1      10.785  12.835  19.822  0.00  0.00    +0.000 A 
ATOM     36  C   UNL     1       9.760  13.769  20.023  0.00  0.00    +0.000 A 
ATOM     37  C   UNL     1       8.725  13.896  19.071  0.00  0.00    +0.000 A 
ATOM     38  H   UNL     1       7.424  12.864  16.329  0.00  0.00    +0.000 HD
ENDBRANCH  28  29
ENDBRANCH   2  28
TORSDOF 7
ENDMDL
MODEL 6
REMARK VINA RESULT:      -6.9      2.315      5.606
REMARK  Name = 
REMARK  7 active torsions:
REMARK  status: ('A' for Active; 'I' for Inactive)
REMARK    1  A    between atoms: C_2  and  C_10
REMARK    2  A    between atoms: N_3  and  C_4
REMARK    3  A    between atoms: C_10  and  C_11
REMARK    4  A    between atoms: C_10  and  N_18
REMARK    5  A    between atoms: N_18  and  C_31
REMARK    6  A    between atoms: C_19  and  C_21
REMARK    7  A    between atoms: C_21  and  C_22
REMARK                            x       y       z     vdW  Elec       q    Type
REMARK                         _______ _______ _______ _____ _____    ______ ____
ROOT
ATOM      1  N   UNL     1      -1.119  13.112  20.711  0.00  0.00    +0.000 N 
ATOM      2  C   UNL     1      -0.143  12.198  21.153  0.00  0.00    +0.000 C 
ATOM      3  O   UNL     1       1.067  12.486  21.203  0.00  0.00    +0.000 OA
ENDROOT
BRANCH   1   4
ATOM      4  C   UNL     1      -0.651  14.438  20.388  0.00  0.00    +0.000 A 
ATOM      5  C   UNL     1      -0.523  15.396  21.404  0.00  0.00    +0.000 A 
ATOM      6  C   UNL     1      -0.270  16.737  21.100  0.00  0.00    +0.000 A 
ATOM      7  C   UNL     1      -0.154  17.143  19.774  0.00  0.00    +0.000 A 
ATOM      8  C   UNL     1      -0.234  16.202  18.757  0.00  0.00    +0.000 A 
ATOM      9  C   UNL     1      -0.447  14.855  19.066  0.00  0.00    +0.000 A 
ENDBRANCH   1   4
BRANCH   1  10
ATOM     10  C   UNL     1      -2.579  12.784  20.532  0.00  0.00    +0.000 C 
BRANCH  10  11
ATOM     11  C   UNL     1      -2.885  12.217  19.142  0.00  0.00    +0.000 A 
ATOM     12  C   UNL     1      -1.856  11.910  18.234  0.00  0.00    +0.000 A 
ATOM     13  C   UNL     1      -2.133  11.316  17.004  0.00  0.00    +0.000 A 
ATOM     14  C   UNL     1      -3.451  11.053  16.650  0.00  0.00    +0.000 A 
ATOM     15 CL   UNL     1      -3.791  10.292  15.146  0.00  0.00    +0.000 Cl
ATOM     16  C   UNL     1      -4.492  11.394  17.510  0.00  0.00    +0.000 A 
ATOM     17  C   UNL     1      -4.212  11.967  18.756  0.00  0.00    +0.000 A 
ENDBRANCH  10  11
BRANCH  10  19
ATOM     18  O   UNL     1      -3.617  15.012  20.383  0.00  0.00    +0.000 OA
ATOM     19  C   UNL     1      -3.582  13.913  20.930  0.00  0.00    +0.000 C 
ATOM     20  N   UNL     1      -4.473  13.551  21.910  0.00  0.00    +0.000 N 
ATOM     21  H   UNL     1      -4.353  12.625  22.307  0.00  0.00    +0.000 HD
BRANCH  20  22
ATOM     22  C   UNL     1      -5.364  14.478  22.601  0.00  0.00    +0.000 C 
ATOM     23  C   UNL     1      -6.754  14.508  21.968  0.00  0.00    +0.000 C 
ATOM     24  C   UNL     1      -7.362  13.109  21.965  0.00  0.00    +0.000 C 
ATOM     25  C   UNL     1      -7.392  12.481  23.360  0.00  0.00    +0.000 C 
ATOM     26  C   UNL     1      -6.112  12.653  24.184  0.00  0.00    +0.000 C 
ATOM     27  C   UNL     1      -5.495  14.049  24.066  0.00  0.00    +0.000 C 
ENDBRANCH  20  22
ENDBRANCH  10  19
ENDBRANCH   1  10
BRANCH   2  28
ATOM     28  C   UNL     1      -0.559  10.866  21.744  0.00  0.00    +0.000 C 
BRANCH  28  29
ATOM     29  C   UNL     1       0.292   9.694  21.377  0.00  0.00    +0.000 A 
ATOM     30  C   UNL     1       0.821   8.800  22.293  0.00  0.00    +0.000 A 
ATOM     31  N   UNL     1       1.643   7.930  21.631  0.00  0.00    +0.000 N 
ATOM     32  C   UNL     1       1.673   8.230  20.291  0.00  0.00    +0.000 A 
ATOM     33  C   UNL     1       2.395   7.620  19.260  0.00  0.00    +0.000 A 
ATOM     34  C   UNL     1       2.242   8.130  17.970  0.00  0.00    +0.000 A 
ATOM     35  C   UNL     1       1.405   9.215  17.727  0.00  0.00    +0.000 A 
ATOM     36  C   UNL     1       0.706   9.827  18.777  0.00  0.00    +0.000 A 
ATOM     37  C   UNL     1       0.827   9.325  20.091  0.00  0.00    +0.000 A 
ATOM     38  H   UNL     1       2.180   7.191  22.063  0.00  0.00    +0.000 HD
ENDBRANCH  28  29
ENDBRANCH   2  28
TORSDOF 7
ENDMDL
MODEL 7
REMARK VINA RESULT:      -6.8      2.497      5.296
REMARK  Name = 
REMARK  7 active torsions:
REMARK  status: ('A' for Active; 'I' for Inactive)
REMARK    1  A    between atoms: C_2  and  C_10
REMARK    2  A    between atoms: N_3  and  C_4
REMARK    3  A    between atoms: C_10  and  C_11
REMARK    4  A    between atoms: C_10  and  N_18
REMARK    5  A    between atoms: N_18  and  C_31
REMARK    6  A    between atoms: C_19  and  C_21
REMARK    7  A    between atoms: C_21  and  C_22
REMARK                            x       y       z     vdW  Elec       q    Type
REMARK                         _______ _______ _______ _____ _____    ______ ____
ROOT
ATOM      1  N   UNL     1      -1.135  12.615  20.453  0.00  0.00    +0.000 N 
ATOM      2  C   UNL     1       0.009  12.139  21.124  0.00  0.00    +0.000 C 
ATOM      3  O   UNL     1       1.072  12.786  21.171  0.00  0.00    +0.000 OA
ENDROOT
BRANCH   1   4
ATOM      4  C   UNL     1      -1.035  13.936  19.881  0.00  0.00    +0.000 A 
ATOM      5  C   UNL     1      -0.300  14.129  18.702  0.00  0.00    +0.000 A 
ATOM      6  C   UNL     1      -0.015  15.415  18.236  0.00  0.00    +0.000 A 
ATOM      7  C   UNL     1      -0.449  16.529  18.949  0.00  0.00    +0.000 A 
ATOM      8  C   UNL     1      -1.214  16.358  20.093  0.00  0.00    +0.000 A 
ATOM      9  C   UNL     1      -1.533  15.071  20.535  0.00  0.00    +0.000 A 
ENDBRANCH   1   4
BRANCH   1  10
ATOM     10  C   UNL     1      -2.410  11.831  20.277  0.00  0.00    +0.000 C 
BRANCH  10  11
ATOM     11  C   UNL     1      -2.597  11.334  18.840  0.00  0.00    +0.000 A 
ATOM     12  C   UNL     1      -3.467  11.986  17.948  0.00  0.00    +0.000 A 
ATOM     13  C   UNL     1      -3.571  11.582  16.617  0.00  0.00    +0.000 A 
ATOM     14  C   UNL     1      -2.829  10.496  16.170  0.00  0.00    +0.000 A 
ATOM     15 CL   UNL     1      -2.932  10.018  14.521  0.00  0.00    +0.000 Cl
ATOM     16  C   UNL     1      -1.998   9.802  17.047  0.00  0.00    +0.000 A 
ATOM     17  C   UNL     1      -1.875  10.223  18.375  0.00  0.00    +0.000 A 
ENDBRANCH  10  11
BRANCH  10  19
ATOM     18  O   UNL     1      -3.890  12.746  22.019  0.00  0.00    +0.000 OA
ATOM     19  C   UNL     1      -3.704  12.508  20.828  0.00  0.00    +0.000 C 
ATOM     20  N   UNL     1      -4.601  12.876  19.856  0.00  0.00    +0.000 N 
ATOM     21  H   UNL     1      -4.361  12.624  18.904  0.00  0.00    +0.000 HD
BRANCH  20  22
ATOM     22  C   UNL     1      -5.964  13.329  20.119  0.00  0.00    +0.000 C 
ATOM     23  C   UNL     1      -6.472  14.264  19.022  0.00  0.00    +0.000 C 
ATOM     24  C   UNL     1      -6.407  13.570  17.666  0.00  0.00    +0.000 C 
ATOM     25  C   UNL     1      -7.152  12.234  17.655  0.00  0.00    +0.000 C 
ATOM     26  C   UNL     1      -6.912  11.340  18.876  0.00  0.00    +0.000 C 
ATOM     27  C   UNL     1      -6.889  12.110  20.199  0.00  0.00    +0.000 C 
ENDBRANCH  20  22
ENDBRANCH  10  19
ENDBRANCH   1  10
BRANCH   2  28
ATOM     28  C   UNL     1      -0.068  10.879  21.962  0.00  0.00    +0.000 C 
BRANCH  28  29
ATOM     29  C   UNL     1       0.553   9.658  21.364  0.00  0.00    +0.000 A 
ATOM     30  C   UNL     1       0.803   8.491  22.064  0.00  0.00    +0.000 A 
ATOM     31  N   UNL     1       1.484   7.628  21.249  0.00  0.00    +0.000 N 
ATOM     32  C   UNL     1       1.693   8.202  20.019  0.00  0.00    +0.000 A 
ATOM     33  C   UNL     1       2.363   7.690  18.902  0.00  0.00    +0.000 A 
ATOM     34  C   UNL     1       2.433   8.493  17.763  0.00  0.00    +0.000 A 
ATOM     35  C   UNL     1       1.862   9.762  17.749  0.00  0.00    +0.000 A 
ATOM     36  C   UNL     1       1.214  10.267  18.885  0.00  0.00    +0.000 A 
ATOM     37  C   UNL     1       1.112   9.473  20.049  0.00  0.00    +0.000 A 
ATOM     38  H   UNL     1       1.816   6.712  21.517  0.00  0.00    +0.000 HD
ENDBRANCH  28  29
ENDBRANCH   2  28
TORSDOF 7
ENDMDL
MODEL 8
REMARK VINA RESULT:      -6.8      2.309      5.549
REMARK  Name = 
REMARK  7 active torsions:
REMARK  status: ('A' for Active; 'I' for Inactive)
REMARK    1  A    between atoms: C_2  and  C_10
REMARK    2  A    between atoms: N_3  and  C_4
REMARK    3  A    between atoms: C_10  and  C_11
REMARK    4  A    between atoms: C_10  and  N_18
REMARK    5  A    between atoms: N_18  and  C_31
REMARK    6  A    between atoms: C_19  and  C_21
REMARK    7  A    between atoms: C_21  and  C_22
REMARK                            x       y       z     vdW  Elec       q    Type
REMARK                         _______ _______ _______ _____ _____    ______ ____
ROOT
ATOM      1  N   UNL     1      -1.283  13.133  20.771  0.00  0.00    +0.000 N 
ATOM      2  C   UNL     1      -0.271  12.266  21.226  0.00  0.00    +0.000 C 
ATOM      3  O   UNL     1       0.925  12.606  21.279  0.00  0.00    +0.000 OA
ENDROOT
BRANCH   1   4
ATOM      4  C   UNL     1      -0.870  14.475  20.437  0.00  0.00    +0.000 A 
ATOM      5  C   UNL     1      -0.506  14.782  19.117  0.00  0.00    +0.000 A 
ATOM      6  C   UNL     1       0.088  16.007  18.802  0.00  0.00    +0.000 A 
ATOM      7  C   UNL     1       0.342  16.939  19.804  0.00  0.00    +0.000 A 
ATOM      8  C   UNL     1      -0.050  16.671  21.108  0.00  0.00    +0.000 A 
ATOM      9  C   UNL     1      -0.681  15.462  21.414  0.00  0.00    +0.000 A 
ENDBRANCH   1   4
BRANCH   1  10
ATOM     10  C   UNL     1      -2.727  12.742  20.588  0.00  0.00    +0.000 C 
BRANCH  10  11
ATOM     11  C   UNL     1      -2.995  12.121  19.213  0.00  0.00    +0.000 A 
ATOM     12  C   UNL     1      -4.305  11.883  18.760  0.00  0.00    +0.000 A 
ATOM     13  C   UNL     1      -4.546  11.397  17.475  0.00  0.00    +0.000 A 
ATOM     14  C   UNL     1      -3.475  11.109  16.638  0.00  0.00    +0.000 A 
ATOM     15 CL   UNL     1      -3.773  10.540  15.043  0.00  0.00    +0.000 Cl
ATOM     16  C   UNL     1      -2.166  11.288  17.082  0.00  0.00    +0.000 A 
ATOM     17  C   UNL     1      -1.925  11.800  18.361  0.00  0.00    +0.000 A 
ENDBRANCH  10  11
BRANCH  10  19
ATOM     18  O   UNL     1      -3.892  14.894  20.319  0.00  0.00    +0.000 OA
ATOM     19  C   UNL     1      -3.779  13.841  20.941  0.00  0.00    +0.000 C 
ATOM     20  N   UNL     1      -4.616  13.503  21.976  0.00  0.00    +0.000 N 
ATOM     21  H   UNL     1      -4.432  12.616  22.432  0.00  0.00    +0.000 HD
BRANCH  20  22
ATOM     22  C   UNL     1      -5.534  14.429  22.631  0.00  0.00    +0.000 C 
ATOM     23  C   UNL     1      -6.838  14.583  21.850  0.00  0.00    +0.000 C 
ATOM     24  C   UNL     1      -7.509  13.225  21.671  0.00  0.00    +0.000 C 
ATOM     25  C   UNL     1      -7.732  12.503  23.001  0.00  0.00    +0.000 C 
ATOM     26  C   UNL     1      -6.550  12.542  23.974  0.00  0.00    +0.000 C 
ATOM     27  C   UNL     1      -5.856  13.905  24.034  0.00  0.00    +0.000 C 
ENDBRANCH  20  22
ENDBRANCH  10  19
ENDBRANCH   1  10
BRANCH   2  28
ATOM     28  C   UNL     1      -0.634  10.924  21.829  0.00  0.00    +0.000 C 
BRANCH  28  29
ATOM     29  C   UNL     1       0.256   9.780  21.460  0.00  0.00    +0.000 A 
ATOM     30  C   UNL     1       0.871   8.946  22.378  0.00  0.00    +0.000 A 
ATOM     31  N   UNL     1       1.702   8.092  21.706  0.00  0.00    +0.000 N 
ATOM     32  C   UNL     1       1.653   8.345  20.357  0.00  0.00    +0.000 A 
ATOM     33  C   UNL     1       2.355   7.734  19.312  0.00  0.00    +0.000 A 
ATOM     34  C   UNL     1       2.116   8.190  18.014  0.00  0.00    +0.000 A 
ATOM     35  C   UNL     1       1.216   9.225  17.777  0.00  0.00    +0.000 A 
ATOM     36  C   UNL     1       0.539   9.840  18.839  0.00  0.00    +0.000 A 
ATOM     37  C   UNL     1       0.746   9.392  20.162  0.00  0.00    +0.000 A 
ATOM     38  H   UNL     1       2.294   7.395  22.135  0.00  0.00    +0.000 HD
ENDBRANCH  28  29
ENDBRANCH   2  28
TORSDOF 7
ENDMDL
MODEL 9
REMARK VINA RESULT:      -6.8      2.977      7.476
REMARK  Name = 
REMARK  7 active torsions:
REMARK  status: ('A' for Active; 'I' for Inactive)
REMARK    1  A    between atoms: C_2  and  C_10
REMARK    2  A    between atoms: N_3  and  C_4
REMARK    3  A    between atoms: C_10  and  C_11
REMARK    4  A    between atoms: C_10  and  N_18
REMARK    5  A    between atoms: N_18  and  C_31
REMARK    6  A    between atoms: C_19  and  C_21
REMARK    7  A    between atoms: C_21  and  C_22
REMARK                            x       y       z     vdW  Elec       q    Type
REMARK                         _______ _______ _______ _____ _____    ______ ____
ROOT
ATOM      1  N   UNL     1       0.842  10.751  19.002  0.00  0.00    +0.000 N 
ATOM      2  C   UNL     1       1.558  10.056  18.007  0.00  0.00    +0.000 C 
ATOM      3  O   UNL     1       2.518  10.564  17.399  0.00  0.00    +0.000 OA
ENDROOT
BRANCH   1   4
ATOM      4  C   UNL     1       1.331  12.067  19.337  0.00  0.00    +0.000 A 
ATOM      5  C   UNL     1       2.179  12.232  20.442  0.00  0.00    +0.000 A 
ATOM      6  C   UNL     1       2.505  13.507  20.914  0.00  0.00    +0.000 A 
ATOM      7  C   UNL     1       1.976  14.637  20.296  0.00  0.00    +0.000 A 
ATOM      8  C   UNL     1       1.171  14.494  19.176  0.00  0.00    +0.000 A 
ATOM      9  C   UNL     1       0.879  13.220  18.681  0.00  0.00    +0.000 A 
ENDBRANCH   1   4
BRANCH   1  10
ATOM     10  C   UNL     1      -0.389  10.225  19.694  0.00  0.00    +0.000 C 
BRANCH  10  11
ATOM     11  C   UNL     1      -1.681  10.643  18.985  0.00  0.00    +0.000 A 
ATOM     12  C   UNL     1      -2.352  11.831  19.325  0.00  0.00    +0.000 A 
ATOM     13  C   UNL     1      -3.480  12.249  18.621  0.00  0.00    +0.000 A 
ATOM     14  C   UNL     1      -3.974  11.463  17.587  0.00  0.00    +0.000 A 
ATOM     15 CL   UNL     1      -5.346  11.994  16.697  0.00  0.00    +0.000 Cl
ATOM     16  C   UNL     1      -3.358  10.256  17.264  0.00  0.00    +0.000 A 
ATOM     17  C   UNL     1      -2.211   9.849  17.954  0.00  0.00    +0.000 A 
ENDBRANCH  10  11
BRANCH  10  19
ATOM     18  O   UNL     1      -0.178   9.636  22.076  0.00  0.00    +0.000 OA
ATOM     19  C   UNL     1      -0.464  10.482  21.233  0.00  0.00    +0.000 C 
ATOM     20  N   UNL     1      -0.820  11.765  21.570  0.00  0.00    +0.000 N 
ATOM     21  H   UNL     1      -1.049  12.385  20.801  0.00  0.00    +0.000 HD
BRANCH  20  22
ATOM     22  C   UNL     1      -1.164  12.199  22.921  0.00  0.00    +0.000 C 
ATOM     23  C   UNL     1      -0.921  13.694  23.115  0.00  0.00    +0.000 C 
ATOM     24  C   UNL     1      -1.720  14.496  22.093  0.00  0.00    +0.000 C 
ATOM     25  C   UNL     1      -3.212  14.160  22.123  0.00  0.00    +0.000 C 
ATOM     26  C   UNL     1      -3.546  12.668  22.213  0.00  0.00    +0.000 C 
ATOM     27  C   UNL     1      -2.644  11.899  23.180  0.00  0.00    +0.000 C 
ENDBRANCH  20  22
ENDBRANCH  10  19
ENDBRANCH   1  10
BRANCH   2  28
ATOM     28  C   UNL     1       1.280   8.588  17.755  0.00  0.00    +0.000 C 
BRANCH  28  29
ATOM     29  C   UNL     1       2.151   7.623  18.492  0.00  0.00    +0.000 A 
ATOM     30  C   UNL     1       1.968   7.266  19.817  0.00  0.00    +0.000 A 
ATOM     31  N   UNL     1       3.008   6.465  20.203  0.00  0.00    +0.000 N 
ATOM     32  C   UNL     1       3.881   6.284  19.158  0.00  0.00    +0.000 A 
ATOM     33  C   UNL     1       5.081   5.565  19.117  0.00  0.00    +0.000 A 
ATOM     34  C   UNL     1       5.784   5.544  17.912  0.00  0.00    +0.000 A 
ATOM     35  C   UNL     1       5.307   6.225  16.796  0.00  0.00    +0.000 A 
ATOM     36  C   UNL     1       4.114   6.958  16.863  0.00  0.00    +0.000 A 
ATOM     37  C   UNL     1       3.370   6.986  18.062  0.00  0.00    +0.000 A 
ATOM     38  H   UNL     1       3.138   6.084  21.129  0.00  0.00    +0.000 HD
ENDBRANCH  28  29
ENDBRANCH   2  28
TORSDOF 7
ENDMDL
