MODEL 1
REMARK VINA RESULT:      -7.6      0.000      0.000
REMARK  Name = 
REMARK  10 active torsions:
REMARK  status: ('A' for Active; 'I' for Inactive)
REMARK    1  A    between atoms: C_1  and  N_2
REMARK    2  A    between atoms: N_2  and  C_3
REMARK    3  A    between atoms: N_2  and  C_4
REMARK    4  A    between atoms: C_4  and  C_5
REMARK    5  A    between atoms: C_5  and  N_6
REMARK    6  A    between atoms: N_9  and  C_10
REMARK    7  A    between atoms: C_14  and  C_15
REMARK    8  A    between atoms: C_15  and  S_16
REMARK    9  A    between atoms: S_16  and  C_18
REMARK   10  A    between atoms: C_18  and  C_19
REMARK                            x       y       z     vdW  Elec       q    Type
REMARK                         _______ _______ _______ _____ _____    ______ ____
ROOT
ATOM      1  C   UNL     1       7.257   6.014  18.020  0.00  0.00    +0.000 A 
ATOM      2  C   UNL     1       7.304   5.786  16.642  0.00  0.00    +0.000 A 
ATOM      3  C   UNL     1       6.472   4.836  16.047  0.00  0.00    +0.000 A 
ATOM      4  C   UNL     1       5.571   4.107  16.820  0.00  0.00    +0.000 A 
ATOM      5  C   UNL     1       5.494   4.315  18.204  0.00  0.00    +0.000 A 
ATOM      6  C   UNL     1       6.369   5.255  18.796  0.00  0.00    +0.000 A 
ENDROOT
BRANCH   1  10
ATOM      7  N   UNL     1       9.021   9.049  19.051  0.00  0.00    +0.000 N 
ATOM      8  C   UNL     1       8.161   8.302  18.274  0.00  0.00    +0.000 C 
ATOM      9  O   UNL     1       7.511   8.832  17.367  0.00  0.00    +0.000 OA
ATOM     10  N   UNL     1       8.072   6.985  18.658  0.00  0.00    +0.000 N 
ATOM     11  H   UNL     1       9.886   8.592  19.323  0.00  0.00    +0.000 HD
ATOM     12  H   UNL     1       8.401   6.777  19.591  0.00  0.00    +0.000 HD
BRANCH   7  13
ATOM     13  C   UNL     1       9.143  10.457  18.700  0.00  0.00    +0.000 C 
BRANCH  13  14
ATOM     14  C   UNL     1       9.879  11.318  19.738  0.00  0.00    +0.000 C 
BRANCH  14  16
ATOM     15  C   UNL     1      12.239  11.902  19.799  0.00  0.00    +0.000 C 
ATOM     16  N   UNL     1      10.943  12.172  19.167  0.00  0.00    +0.000 NA
ATOM     17  C   UNL     1      11.055  11.934  17.723  0.00  0.00    +0.000 C 
ENDBRANCH  14  16
ENDBRANCH  13  14
ENDBRANCH   7  13
ENDBRANCH   1  10
BRANCH   5  18
ATOM     18  C   UNL     1       4.505   3.538  19.053  0.00  0.00    +0.000 C 
BRANCH  18  19
ATOM     19  S   UNL     1       3.482   2.413  18.042  0.00  0.00    +0.000 S 
ATOM     20  O   UNL     1       3.521   1.001  18.732  0.00  0.00    +0.000 OA
BRANCH  19  21
ATOM     21  C   UNL     1       1.844   3.147  18.404  0.00  0.00    +0.000 C 
BRANCH  21  22
ATOM     22  C   UNL     1       1.973   4.586  18.862  0.00  0.00    +0.000 A 
ATOM     23  C   UNL     1       1.736   4.935  20.201  0.00  0.00    +0.000 A 
ATOM     24  C   UNL     1       1.823   6.266  20.621  0.00  0.00    +0.000 A 
ATOM     25  C   UNL     1       2.147   7.268  19.709  0.00  0.00    +0.000 A 
ATOM     26  C   UNL     1       2.379   6.938  18.376  0.00  0.00    +0.000 A 
ATOM     27  C   UNL     1       2.287   5.608  17.953  0.00  0.00    +0.000 A 
ENDBRANCH  21  22
ENDBRANCH  19  21
ENDBRANCH  18  19
ENDBRANCH   5  18
TORSDOF 8
ENDMDL
MODEL 2
REMARK VINA RESULT:      -7.6      0.598      1.131
REMARK  Name = 
REMARK  10 active torsions:
REMARK  status: ('A' for Active; 'I' for Inactive)
REMARK    1  A    between atoms: C_1  and  N_2
REMARK    2  A    between atoms: N_2  and  C_3
REMARK    3  A    between atoms: N_2  and  C_4
REMARK    4  A    between atoms: C_4  and  C_5
REMARK    5  A    between atoms: C_5  and  N_6
REMARK    6  A    between atoms: N_9  and  C_10
REMARK    7  A    between atoms: C_14  and  C_15
REMARK    8  A    between atoms: C_15  and  S_16
REMARK    9  A    between atoms: S_16  and  C_18
REMARK   10  A    between atoms: C_18  and  C_19
REMARK                            x       y       z     vdW  Elec       q    Type
REMARK                         _______ _______ _______ _____ _____    ______ ____
ROOT
ATOM      1  C   UNL     1       7.340   6.086  18.080  0.00  0.00    +0.000 A 
ATOM      2  C   UNL     1       7.320   5.909  16.694  0.00  0.00    +0.000 A 
ATOM      3  C   UNL     1       6.478   4.961  16.109  0.00  0.00    +0.000 A 
ATOM      4  C   UNL     1       5.634   4.186  16.900  0.00  0.00    +0.000 A 
ATOM      5  C   UNL     1       5.624   4.344  18.293  0.00  0.00    +0.000 A 
ATOM      6  C   UNL     1       6.509   5.281  18.872  0.00  0.00    +0.000 A 
ENDROOT
BRANCH   1  10
ATOM      7  N   UNL     1       9.121   9.114  19.103  0.00  0.00    +0.000 N 
ATOM      8  C   UNL     1       8.247   8.374  18.337  0.00  0.00    +0.000 C 
ATOM      9  O   UNL     1       7.578   8.910  17.449  0.00  0.00    +0.000 OA
ATOM     10  N   UNL     1       8.167   7.053  18.711  0.00  0.00    +0.000 N 
ATOM     11  H   UNL     1       9.992   8.656  19.353  0.00  0.00    +0.000 HD
ATOM     12  H   UNL     1       8.515   6.836  19.635  0.00  0.00    +0.000 HD
BRANCH   7  13
ATOM     13  C   UNL     1       9.235  10.526  18.763  0.00  0.00    +0.000 C 
BRANCH  13  14
ATOM     14  C   UNL     1       9.605  11.444  19.938  0.00  0.00    +0.000 C 
BRANCH  14  16
ATOM     15  C   UNL     1      11.675  11.683  18.686  0.00  0.00    +0.000 C 
ATOM     16  N   UNL     1      10.795  12.286  19.693  0.00  0.00    +0.000 NA
ATOM     17  C   UNL     1      10.382  13.617  19.231  0.00  0.00    +0.000 C 
ENDBRANCH  14  16
ENDBRANCH  13  14
ENDBRANCH   7  13
ENDBRANCH   1  10
BRANCH   5  18
ATOM     18  C   UNL     1       4.697   3.515  19.163  0.00  0.00    +0.000 C 
BRANCH  18  19
ATOM     19  S   UNL     1       3.452   2.623  18.167  0.00  0.00    +0.000 S 
ATOM     20  O   UNL     1       3.563   1.100  18.538  0.00  0.00    +0.000 OA
BRANCH  19  21
ATOM     21  C   UNL     1       1.946   3.270  18.984  0.00  0.00    +0.000 C 
BRANCH  21  22
ATOM     22  C   UNL     1       2.009   4.776  19.145  0.00  0.00    +0.000 A 
ATOM     23  C   UNL     1       2.316   5.601  18.051  0.00  0.00    +0.000 A 
ATOM     24  C   UNL     1       2.407   6.988  18.202  0.00  0.00    +0.000 A 
ATOM     25  C   UNL     1       2.193   7.571  19.449  0.00  0.00    +0.000 A 
ATOM     26  C   UNL     1       1.893   6.765  20.545  0.00  0.00    +0.000 A 
ATOM     27  C   UNL     1       1.807   5.378  20.397  0.00  0.00    +0.000 A 
ENDBRANCH  21  22
ENDBRANCH  19  21
ENDBRANCH  18  19
ENDBRANCH   5  18
TORSDOF 8
ENDMDL
MODEL 3
REMARK VINA RESULT:      -7.1      1.449      2.066
REMARK  Name = 
REMARK  10 active torsions:
REMARK  status: ('A' for Active; 'I' for Inactive)
REMARK    1  A    between atoms: C_1  and  N_2
REMARK    2  A    between atoms: N_2  and  C_3
REMARK    3  A    between atoms: N_2  and  C_4
REMARK    4  A    between atoms: C_4  and  C_5
REMARK    5  A    between atoms: C_5  and  N_6
REMARK    6  A    between atoms: N_9  and  C_10
REMARK    7  A    between atoms: C_14  and  C_15
REMARK    8  A    between atoms: C_15  and  S_16
REMARK    9  A    between atoms: S_16  and  C_18
REMARK   10  A    between atoms: C_18  and  C_19
REMARK                            x       y       z     vdW  Elec       q    Type
REMARK                         _______ _______ _______ _____ _____    ______ ____
ROOT
ATOM      1  C   UNL     1       7.005   5.658  17.238  0.00  0.00    +0.000 A 
ATOM      2  C   UNL     1       7.126   5.394  15.870  0.00  0.00    +0.000 A 
ATOM      3  C   UNL     1       6.238   4.527  15.230  0.00  0.00    +0.000 A 
ATOM      4  C   UNL     1       5.208   3.921  15.944  0.00  0.00    +0.000 A 
ATOM      5  C   UNL     1       5.054   4.170  17.316  0.00  0.00    +0.000 A 
ATOM      6  C   UNL     1       5.984   5.020  17.957  0.00  0.00    +0.000 A 
ENDROOT
BRANCH   1  10
ATOM      7  N   UNL     1       8.747   8.566  18.614  0.00  0.00    +0.000 N 
ATOM      8  C   UNL     1       7.788   7.919  17.865  0.00  0.00    +0.000 C 
ATOM      9  O   UNL     1       6.919   8.560  17.266  0.00  0.00    +0.000 OA
ATOM     10  N   UNL     1       7.875   6.548  17.920  0.00  0.00    +0.000 N 
ATOM     11  H   UNL     1       9.680   8.165  18.585  0.00  0.00    +0.000 HD
ATOM     12  H   UNL     1       8.417   6.173  18.688  0.00  0.00    +0.000 HD
BRANCH   7  13
ATOM     13  C   UNL     1       8.695  10.021  18.605  0.00  0.00    +0.000 C 
BRANCH  13  14
ATOM     14  C   UNL     1      10.032  10.713  18.301  0.00  0.00    +0.000 C 
BRANCH  14  16
ATOM     15  C   UNL     1      10.389  12.673  19.695  0.00  0.00    +0.000 C 
ATOM     16  N   UNL     1       9.977  12.189  18.373  0.00  0.00    +0.000 NA
ATOM     17  C   UNL     1      10.857  12.774  17.354  0.00  0.00    +0.000 C 
ENDBRANCH  14  16
ENDBRANCH  13  14
ENDBRANCH   7  13
ENDBRANCH   1  10
BRANCH   5  18
ATOM     18  C   UNL     1       3.925   3.527  18.101  0.00  0.00    +0.000 C 
BRANCH  18  19
ATOM     19  S   UNL     1       2.423   4.566  18.101  0.00  0.00    +0.000 S 
ATOM     20  O   UNL     1       1.236   3.671  18.610  0.00  0.00    +0.000 OA
BRANCH  19  21
ATOM     21  C   UNL     1       2.879   5.690  19.473  0.00  0.00    +0.000 C 
BRANCH  21  22
ATOM     22  C   UNL     1       2.333   7.086  19.247  0.00  0.00    +0.000 A 
ATOM     23  C   UNL     1       2.491   7.725  18.006  0.00  0.00    +0.000 A 
ATOM     24  C   UNL     1       2.017   9.025  17.803  0.00  0.00    +0.000 A 
ATOM     25  C   UNL     1       1.378   9.706  18.837  0.00  0.00    +0.000 A 
ATOM     26  C   UNL     1       1.220   9.087  20.075  0.00  0.00    +0.000 A 
ATOM     27  C   UNL     1       1.698   7.790  20.282  0.00  0.00    +0.000 A 
ENDBRANCH  21  22
ENDBRANCH  19  21
ENDBRANCH  18  19
ENDBRANCH   5  18
TORSDOF 8
ENDMDL
MODEL 4
REMARK VINA RESULT:      -7.1      4.546      7.213
REMARK  Name = 
REMARK  10 active torsions:
REMARK  status: ('A' for Active; 'I' for Inactive)
REMARK    1  A    between atoms: C_1  and  N_2
REMARK    2  A    between atoms: N_2  and  C_3
REMARK    3  A    between atoms: N_2  and  C_4
REMARK    4  A    between atoms: C_4  and  C_5
REMARK    5  A    between atoms: C_5  and  N_6
REMARK    6  A    between atoms: N_9  and  C_10
REMARK    7  A    between atoms: C_14  and  C_15
REMARK    8  A    between atoms: C_15  and  S_16
REMARK    9  A    between atoms: S_16  and  C_18
REMARK   10  A    between atoms: C_18  and  C_19
REMARK                            x       y       z     vdW  Elec       q    Type
REMARK                         _______ _______ _______ _____ _____    ______ ____
ROOT
ATOM      1  C   UNL     1       2.326   5.141  19.510  0.00  0.00    +0.000 A 
ATOM      2  C   UNL     1       1.682   4.492  18.452  0.00  0.00    +0.000 A 
ATOM      3  C   UNL     1       2.407   3.724  17.539  0.00  0.00    +0.000 A 
ATOM      4  C   UNL     1       3.786   3.582  17.678  0.00  0.00    +0.000 A 
ATOM      5  C   UNL     1       4.461   4.213  18.731  0.00  0.00    +0.000 A 
ATOM      6  C   UNL     1       3.718   5.018  19.625  0.00  0.00    +0.000 A 
ENDROOT
BRANCH   1  10
ATOM      7  N   UNL     1       0.795   7.806  21.494  0.00  0.00    +0.000 N 
ATOM      8  C   UNL     1       1.536   7.286  20.455  0.00  0.00    +0.000 C 
ATOM      9  O   UNL     1       2.008   8.026  19.586  0.00  0.00    +0.000 OA
ATOM     10  N   UNL     1       1.621   5.914  20.470  0.00  0.00    +0.000 N 
ATOM     11  H   UNL     1       0.927   7.366  22.399  0.00  0.00    +0.000 HD
ATOM     12  H   UNL     1       0.934   5.438  21.038  0.00  0.00    +0.000 HD
BRANCH   7  13
ATOM     13  C   UNL     1       0.657   9.256  21.521  0.00  0.00    +0.000 C 
BRANCH  13  14
ATOM     14  C   UNL     1       0.138   9.829  22.849  0.00  0.00    +0.000 C 
BRANCH  14  16
ATOM     15  C   UNL     1       0.020  11.816  21.452  0.00  0.00    +0.000 C 
ATOM     16  N   UNL     1      -0.271  11.248  22.773  0.00  0.00    +0.000 NA
ATOM     17  C   UNL     1      -1.710  11.370  23.040  0.00  0.00    +0.000 C 
ENDBRANCH  14  16
ENDBRANCH  13  14
ENDBRANCH   7  13
ENDBRANCH   1  10
BRANCH   5  18
ATOM     18  C   UNL     1       5.961   4.052  18.901  0.00  0.00    +0.000 C 
BRANCH  18  19
ATOM     19  S   UNL     1       6.757   5.615  19.409  0.00  0.00    +0.000 S 
ATOM     20  O   UNL     1       7.848   5.256  20.482  0.00  0.00    +0.000 OA
BRANCH  19  21
ATOM     21  C   UNL     1       7.636   5.986  17.846  0.00  0.00    +0.000 C 
BRANCH  21  22
ATOM     22  C   UNL     1       6.835   5.533  16.642  0.00  0.00    +0.000 A 
ATOM     23  C   UNL     1       7.149   4.333  15.982  0.00  0.00    +0.000 A 
ATOM     24  C   UNL     1       6.433   3.928  14.852  0.00  0.00    +0.000 A 
ATOM     25  C   UNL     1       5.393   4.716  14.363  0.00  0.00    +0.000 A 
ATOM     26  C   UNL     1       5.074   5.911  15.003  0.00  0.00    +0.000 A 
ATOM     27  C   UNL     1       5.792   6.321  16.130  0.00  0.00    +0.000 A 
ENDBRANCH  21  22
ENDBRANCH  19  21
ENDBRANCH  18  19
ENDBRANCH   5  18
TORSDOF 8
ENDMDL
MODEL 5
REMARK VINA RESULT:      -7.0      5.085      7.227
REMARK  Name = 
REMARK  10 active torsions:
REMARK  status: ('A' for Active; 'I' for Inactive)
REMARK    1  A    between atoms: C_1  and  N_2
REMARK    2  A    between atoms: N_2  and  C_3
REMARK    3  A    between atoms: N_2  and  C_4
REMARK    4  A    between atoms: C_4  and  C_5
REMARK    5  A    between atoms: C_5  and  N_6
REMARK    6  A    between atoms: N_9  and  C_10
REMARK    7  A    between atoms: C_14  and  C_15
REMARK    8  A    between atoms: C_15  and  S_16
REMARK    9  A    between atoms: S_16  and  C_18
REMARK   10  A    between atoms: C_18  and  C_19
REMARK                            x       y       z     vdW  Elec       q    Type
REMARK                         _______ _______ _______ _____ _____    ______ ____
ROOT
ATOM      1  C   UNL     1       2.053   7.472  19.751  0.00  0.00    +0.000 A 
ATOM      2  C   UNL     1       2.024   8.401  18.707  0.00  0.00    +0.000 A 
ATOM      3  C   UNL     1       2.843   8.241  17.587  0.00  0.00    +0.000 A 
ATOM      4  C   UNL     1       3.694   7.143  17.489  0.00  0.00    +0.000 A 
ATOM      5  C   UNL     1       3.742   6.189  18.516  0.00  0.00    +0.000 A 
ATOM      6  C   UNL     1       2.934   6.386  19.659  0.00  0.00    +0.000 A 
ENDROOT
BRANCH   1  10
ATOM      7  N   UNL     1       0.118   8.626  22.634  0.00  0.00    +0.000 N 
ATOM      8  C   UNL     1       0.954   8.770  21.547  0.00  0.00    +0.000 C 
ATOM      9  O   UNL     1       1.349   9.888  21.201  0.00  0.00    +0.000 OA
ATOM     10  N   UNL     1       1.221   7.590  20.896  0.00  0.00    +0.000 N 
ATOM     11  H   UNL     1       0.279   7.810  23.215  0.00  0.00    +0.000 HD
ATOM     12  H   UNL     1       0.586   6.827  21.090  0.00  0.00    +0.000 HD
BRANCH   7  13
ATOM     13  C   UNL     1      -0.214   9.848  23.355  0.00  0.00    +0.000 C 
BRANCH  13  14
ATOM     14  C   UNL     1      -1.061  10.855  22.561  0.00  0.00    +0.000 C 
BRANCH  14  16
ATOM     15  C   UNL     1      -0.793  13.271  22.558  0.00  0.00    +0.000 C 
ATOM     16  N   UNL     1      -1.331  12.116  23.284  0.00  0.00    +0.000 NA
ATOM     17  C   UNL     1      -2.777  12.293  23.461  0.00  0.00    +0.000 C 
ENDBRANCH  14  16
ENDBRANCH  13  14
ENDBRANCH   7  13
ENDBRANCH   1  10
BRANCH   5  18
ATOM     18  C   UNL     1       4.655   4.981  18.412  0.00  0.00    +0.000 C 
BRANCH  18  19
ATOM     19  S   UNL     1       4.226   3.931  16.980  0.00  0.00    +0.000 S 
ATOM     20  O   UNL     1       5.552   3.673  16.178  0.00  0.00    +0.000 OA
BRANCH  19  21
ATOM     21  C   UNL     1       3.837   2.389  17.890  0.00  0.00    +0.000 C 
BRANCH  21  22
ATOM     22  C   UNL     1       2.923   2.660  19.069  0.00  0.00    +0.000 A 
ATOM     23  C   UNL     1       3.389   2.510  20.386  0.00  0.00    +0.000 A 
ATOM     24  C   UNL     1       2.541   2.728  21.476  0.00  0.00    +0.000 A 
ATOM     25  C   UNL     1       1.215   3.099  21.267  0.00  0.00    +0.000 A 
ATOM     26  C   UNL     1       0.737   3.247  19.966  0.00  0.00    +0.000 A 
ATOM     27  C   UNL     1       1.582   3.024  18.875  0.00  0.00    +0.000 A 
ENDBRANCH  21  22
ENDBRANCH  19  21
ENDBRANCH  18  19
ENDBRANCH   5  18
TORSDOF 8
ENDMDL
MODEL 6
REMARK VINA RESULT:      -7.0      4.429      7.027
REMARK  Name = 
REMARK  10 active torsions:
REMARK  status: ('A' for Active; 'I' for Inactive)
REMARK    1  A    between atoms: C_1  and  N_2
REMARK    2  A    between atoms: N_2  and  C_3
REMARK    3  A    between atoms: N_2  and  C_4
REMARK    4  A    between atoms: C_4  and  C_5
REMARK    5  A    between atoms: C_5  and  N_6
REMARK    6  A    between atoms: N_9  and  C_10
REMARK    7  A    between atoms: C_14  and  C_15
REMARK    8  A    between atoms: C_15  and  S_16
REMARK    9  A    between atoms: S_16  and  C_18
REMARK   10  A    between atoms: C_18  and  C_19
REMARK                            x       y       z     vdW  Elec       q    Type
REMARK                         _______ _______ _______ _____ _____    ______ ____
ROOT
ATOM      1  C   UNL     1       2.469   5.432  19.676  0.00  0.00    +0.000 A 
ATOM      2  C   UNL     1       1.728   4.686  18.755  0.00  0.00    +0.000 A 
ATOM      3  C   UNL     1       2.359   3.788  17.892  0.00  0.00    +0.000 A 
ATOM      4  C   UNL     1       3.739   3.612  17.946  0.00  0.00    +0.000 A 
ATOM      5  C   UNL     1       4.512   4.339  18.863  0.00  0.00    +0.000 A 
ATOM      6  C   UNL     1       3.862   5.271  19.704  0.00  0.00    +0.000 A 
ENDROOT
BRANCH   1  10
ATOM      7  N   UNL     1       1.131   8.365  21.405  0.00  0.00    +0.000 N 
ATOM      8  C   UNL     1       1.763   7.696  20.380  0.00  0.00    +0.000 C 
ATOM      9  O   UNL     1       2.135   8.299  19.368  0.00  0.00    +0.000 OA
ATOM     10  N   UNL     1       1.862   6.340  20.583  0.00  0.00    +0.000 N 
ATOM     11  H   UNL     1       1.361   8.059  22.346  0.00  0.00    +0.000 HD
ATOM     12  H   UNL     1       1.242   5.955  21.283  0.00  0.00    +0.000 HD
BRANCH   7  13
ATOM     13  C   UNL     1       0.983   9.805  21.237  0.00  0.00    +0.000 C 
BRANCH  13  14
ATOM     14  C   UNL     1      -0.439  10.270  20.889  0.00  0.00    +0.000 C 
BRANCH  14  16
ATOM     15  C   UNL     1       0.516  11.551  19.056  0.00  0.00    +0.000 C 
ATOM     16  N   UNL     1      -0.487  11.536  20.126  0.00  0.00    +0.000 NA
ATOM     17  C   UNL     1      -1.820  11.714  19.535  0.00  0.00    +0.000 C 
ENDBRANCH  14  16
ENDBRANCH  13  14
ENDBRANCH   7  13
ENDBRANCH   1  10
BRANCH   5  18
ATOM     18  C   UNL     1       6.015   4.143  18.942  0.00  0.00    +0.000 C 
BRANCH  18  19
ATOM     19  S   UNL     1       6.864   5.651  19.523  0.00  0.00    +0.000 S 
ATOM     20  O   UNL     1       7.989   5.197  20.522  0.00  0.00    +0.000 OA
BRANCH  19  21
ATOM     21  C   UNL     1       7.689   6.113  17.954  0.00  0.00    +0.000 C 
BRANCH  21  22
ATOM     22  C   UNL     1       6.885   5.655  16.753  0.00  0.00    +0.000 A 
ATOM     23  C   UNL     1       7.211   4.464  16.084  0.00  0.00    +0.000 A 
ATOM     24  C   UNL     1       6.492   4.055  14.957  0.00  0.00    +0.000 A 
ATOM     25  C   UNL     1       5.437   4.829  14.481  0.00  0.00    +0.000 A 
ATOM     26  C   UNL     1       5.105   6.016  15.131  0.00  0.00    +0.000 A 
ATOM     27  C   UNL     1       5.826   6.430  16.255  0.00  0.00    +0.000 A 
ENDBRANCH  21  22
ENDBRANCH  19  21
ENDBRANCH  18  19
ENDBRANCH   5  18
TORSDOF 8
ENDMDL
MODEL 7
REMARK VINA RESULT:      -7.0      1.951      2.968
REMARK  Name = 
REMARK  10 active torsions:
REMARK  status: ('A' for Active; 'I' for Inactive)
REMARK    1  A    between atoms: C_1  and  N_2
REMARK    2  A    between atoms: N_2  and  C_3
REMARK    3  A    between atoms: N_2  and  C_4
REMARK    4  A    between atoms: C_4  and  C_5
REMARK    5  A    between atoms: C_5  and  N_6
REMARK    6  A    between atoms: N_9  and  C_10
REMARK    7  A    between atoms: C_14  and  C_15
REMARK    8  A    between atoms: C_15  and  S_16
REMARK    9  A    between atoms: S_16  and  C_18
REMARK   10  A    between atoms: C_18  and  C_19
REMARK                            x       y       z     vdW  Elec       q    Type
REMARK                         _______ _______ _______ _____ _____    ______ ____
ROOT
ATOM      1  C   UNL     1       6.860   6.126  17.788  0.00  0.00    +0.000 A 
ATOM      2  C   UNL     1       7.163   5.083  16.909  0.00  0.00    +0.000 A 
ATOM      3  C   UNL     1       6.145   4.346  16.300  0.00  0.00    +0.000 A 
ATOM      4  C   UNL     1       4.809   4.651  16.551  0.00  0.00    +0.000 A 
ATOM      5  C   UNL     1       4.472   5.696  17.423  0.00  0.00    +0.000 A 
ATOM      6  C   UNL     1       5.514   6.407  18.060  0.00  0.00    +0.000 A 
ENDROOT
BRANCH   1  10
ATOM      7  N   UNL     1       9.113   8.788  18.897  0.00  0.00    +0.000 N 
ATOM      8  C   UNL     1       8.074   8.248  18.170  0.00  0.00    +0.000 C 
ATOM      9  O   UNL     1       7.388   8.959  17.429  0.00  0.00    +0.000 OA
ATOM     10  N   UNL     1       7.867   6.911  18.411  0.00  0.00    +0.000 N 
ATOM     11  H   UNL     1       9.940   8.207  18.991  0.00  0.00    +0.000 HD
ATOM     12  H   UNL     1       8.282   6.548  19.259  0.00  0.00    +0.000 HD
BRANCH   7  13
ATOM     13  C   UNL     1       9.369  10.208  18.694  0.00  0.00    +0.000 C 
BRANCH  13  14
ATOM     14  C   UNL     1       9.617  11.008  19.982  0.00  0.00    +0.000 C 
BRANCH  14  16
ATOM     15  C   UNL     1       9.866  13.307  20.734  0.00  0.00    +0.000 C 
ATOM     16  N   UNL     1      10.307  12.298  19.765  0.00  0.00    +0.000 NA
ATOM     17  C   UNL     1      11.759  12.118  19.889  0.00  0.00    +0.000 C 
ENDBRANCH  14  16
ENDBRANCH  13  14
ENDBRANCH   7  13
ENDBRANCH   1  10
BRANCH   5  18
ATOM     18  C   UNL     1       3.019   6.046  17.692  0.00  0.00    +0.000 C 
BRANCH  18  19
ATOM     19  S   UNL     1       2.754   6.548  19.427  0.00  0.00    +0.000 S 
ATOM     20  O   UNL     1       1.761   7.766  19.414  0.00  0.00    +0.000 OA
BRANCH  19  21
ATOM     21  C   UNL     1       1.807   5.084  19.985  0.00  0.00    +0.000 C 
BRANCH  21  22
ATOM     22  C   UNL     1       2.412   3.800  19.454  0.00  0.00    +0.000 A 
ATOM     23  C   UNL     1       1.756   3.057  18.457  0.00  0.00    +0.000 A 
ATOM     24  C   UNL     1       2.295   1.856  17.987  0.00  0.00    +0.000 A 
ATOM     25  C   UNL     1       3.497   1.378  18.504  0.00  0.00    +0.000 A 
ATOM     26  C   UNL     1       4.156   2.100  19.497  0.00  0.00    +0.000 A 
ATOM     27  C   UNL     1       3.616   3.299  19.973  0.00  0.00    +0.000 A 
ENDBRANCH  21  22
ENDBRANCH  19  21
ENDBRANCH  18  19
ENDBRANCH   5  18
TORSDOF 8
ENDMDL
MODEL 8
REMARK VINA RESULT:      -6.8      4.869      7.820
REMARK  Name = 
REMARK  10 active torsions:
REMARK  status: ('A' for Active; 'I' for Inactive)
REMARK    1  A    between atoms: C_1  and  N_2
REMARK    2  A    between atoms: N_2  and  C_3
REMARK    3  A    between atoms: N_2  and  C_4
REMARK    4  A    between atoms: C_4  and  C_5
REMARK    5  A    between atoms: C_5  and  N_6
REMARK    6  A    between atoms: N_9  and  C_10
REMARK    7  A    between atoms: C_14  and  C_15
REMARK    8  A    between atoms: C_15  and  S_16
REMARK    9  A    between atoms: S_16  and  C_18
REMARK   10  A    between atoms: C_18  and  C_19
REMARK                            x       y       z     vdW  Elec       q    Type
REMARK                         _______ _______ _______ _____ _____    ______ ____
ROOT
ATOM      1  C   UNL     1       1.814   7.692  20.438  0.00  0.00    +0.000 A 
ATOM      2  C   UNL     1       2.045   8.307  19.204  0.00  0.00    +0.000 A 
ATOM      3  C   UNL     1       2.406   7.551  18.087  0.00  0.00    +0.000 A 
ATOM      4  C   UNL     1       2.529   6.167  18.184  0.00  0.00    +0.000 A 
ATOM      5  C   UNL     1       2.298   5.518  19.406  0.00  0.00    +0.000 A 
ATOM      6  C   UNL     1       1.970   6.302  20.535  0.00  0.00    +0.000 A 
ENDROOT
BRANCH   1  10
ATOM      7  N   UNL     1       0.111   9.772  22.920  0.00  0.00    +0.000 N 
ATOM      8  C   UNL     1       0.263   9.148  21.701  0.00  0.00    +0.000 C 
ATOM      9  O   UNL     1      -0.623   9.218  20.843  0.00  0.00    +0.000 OA
ATOM     10  N   UNL     1       1.426   8.424  21.592  0.00  0.00    +0.000 N 
ATOM     11  H   UNL     1       0.949  10.190  23.314  0.00  0.00    +0.000 HD
ATOM     12  H   UNL     1       1.886   8.197  22.463  0.00  0.00    +0.000 HD
BRANCH   7  13
ATOM     13  C   UNL     1      -1.112  10.543  23.099  0.00  0.00    +0.000 C 
BRANCH  13  14
ATOM     14  C   UNL     1      -0.997  12.030  22.732  0.00  0.00    +0.000 C 
BRANCH  14  16
ATOM     15  C   UNL     1      -3.327  12.558  22.280  0.00  0.00    +0.000 C 
ATOM     16  N   UNL     1      -1.975  12.477  21.717  0.00  0.00    +0.000 NA
ATOM     17  C   UNL     1      -1.592  13.796  21.199  0.00  0.00    +0.000 C 
ENDBRANCH  14  16
ENDBRANCH  13  14
ENDBRANCH   7  13
ENDBRANCH   1  10
BRANCH   5  18
ATOM     18  C   UNL     1       2.414   4.009  19.519  0.00  0.00    +0.000 C 
BRANCH  18  19
ATOM     19  S   UNL     1       4.138   3.445  19.307  0.00  0.00    +0.000 S 
ATOM     20  O   UNL     1       4.268   2.058  20.034  0.00  0.00    +0.000 OA
BRANCH  19  21
ATOM     21  C   UNL     1       4.089   3.110  17.507  0.00  0.00    +0.000 C 
BRANCH  21  22
ATOM     22  C   UNL     1       5.148   3.903  16.769  0.00  0.00    +0.000 A 
ATOM     23  C   UNL     1       5.208   3.885  15.365  0.00  0.00    +0.000 A 
ATOM     24  C   UNL     1       6.203   4.590  14.681  0.00  0.00    +0.000 A 
ATOM     25  C   UNL     1       7.154   5.323  15.389  0.00  0.00    +0.000 A 
ATOM     26  C   UNL     1       7.111   5.346  16.781  0.00  0.00    +0.000 A 
ATOM     27  C   UNL     1       6.120   4.637  17.467  0.00  0.00    +0.000 A 
ENDBRANCH  21  22
ENDBRANCH  19  21
ENDBRANCH  18  19
ENDBRANCH   5  18
TORSDOF 8
ENDMDL
MODEL 9
REMARK VINA RESULT:      -6.8      4.579      6.971
REMARK  Name = 
REMARK  10 active torsions:
REMARK  status: ('A' for Active; 'I' for Inactive)
REMARK    1  A    between atoms: C_1  and  N_2
REMARK    2  A    between atoms: N_2  and  C_3
REMARK    3  A    between atoms: N_2  and  C_4
REMARK    4  A    between atoms: C_4  and  C_5
REMARK    5  A    between atoms: C_5  and  N_6
REMARK    6  A    between atoms: N_9  and  C_10
REMARK    7  A    between atoms: C_14  and  C_15
REMARK    8  A    between atoms: C_15  and  S_16
REMARK    9  A    between atoms: S_16  and  C_18
REMARK   10  A    between atoms: C_18  and  C_19
REMARK                            x       y       z     vdW  Elec       q    Type
REMARK                         _______ _______ _______ _____ _____    ______ ____
ROOT
ATOM      1  C   UNL     1       2.573   6.164  18.415  0.00  0.00    +0.000 A 
ATOM      2  C   UNL     1       1.789   5.197  17.778  0.00  0.00    +0.000 A 
ATOM      3  C   UNL     1       2.241   3.881  17.656  0.00  0.00    +0.000 A 
ATOM      4  C   UNL     1       3.477   3.510  18.180  0.00  0.00    +0.000 A 
ATOM      5  C   UNL     1       4.284   4.453  18.830  0.00  0.00    +0.000 A 
ATOM      6  C   UNL     1       3.829   5.789  18.912  0.00  0.00    +0.000 A 
ENDROOT
BRANCH   1  10
ATOM      7  N   UNL     1       1.306   9.364  19.657  0.00  0.00    +0.000 N 
ATOM      8  C   UNL     1       1.664   8.036  19.752  0.00  0.00    +0.000 C 
ATOM      9  O   UNL     1       1.599   7.442  20.833  0.00  0.00    +0.000 OA
ATOM     10  N   UNL     1       2.140   7.507  18.576  0.00  0.00    +0.000 N 
ATOM     11  H   UNL     1       0.825   9.635  18.806  0.00  0.00    +0.000 HD
ATOM     12  H   UNL     1       2.435   8.178  17.880  0.00  0.00    +0.000 HD
BRANCH   7  13
ATOM     13  C   UNL     1       0.809   9.984  20.878  0.00  0.00    +0.000 C 
BRANCH  13  14
ATOM     14  C   UNL     1      -0.544  10.696  20.734  0.00  0.00    +0.000 C 
BRANCH  14  16
ATOM     15  C   UNL     1      -0.973  12.282  22.526  0.00  0.00    +0.000 C 
ATOM     16  N   UNL     1      -0.523  12.118  21.140  0.00  0.00    +0.000 NA
ATOM     17  C   UNL     1       0.838  12.655  21.011  0.00  0.00    +0.000 C 
ENDBRANCH  14  16
ENDBRANCH  13  14
ENDBRANCH   7  13
ENDBRANCH   1  10
BRANCH   5  18
ATOM     18  C   UNL     1       5.625   4.056  19.418  0.00  0.00    +0.000 C 
BRANCH  18  19
ATOM     19  S   UNL     1       6.834   5.422  19.333  0.00  0.00    +0.000 S 
ATOM     20  O   UNL     1       7.793   5.274  20.569  0.00  0.00    +0.000 OA
BRANCH  19  21
ATOM     21  C   UNL     1       7.763   4.863  17.857  0.00  0.00    +0.000 C 
BRANCH  21  22
ATOM     22  C   UNL     1       6.902   4.914  16.611  0.00  0.00    +0.000 A 
ATOM     23  C   UNL     1       6.127   6.050  16.322  0.00  0.00    +0.000 A 
ATOM     24  C   UNL     1       5.307   6.089  15.190  0.00  0.00    +0.000 A 
ATOM     25  C   UNL     1       5.248   4.994  14.331  0.00  0.00    +0.000 A 
ATOM     26  C   UNL     1       6.006   3.859  14.607  0.00  0.00    +0.000 A 
ATOM     27  C   UNL     1       6.822   3.815  15.741  0.00  0.00    +0.000 A 
ENDBRANCH  21  22
ENDBRANCH  19  21
ENDBRANCH  18  19
ENDBRANCH   5  18
TORSDOF 8
ENDMDL
