MODEL 1
REMARK VINA RESULT:      -8.9      0.000      0.000
REMARK  Name = 
REMARK  7 active torsions:
REMARK  status: ('A' for Active; 'I' for Inactive)
REMARK    1  A    between atoms: C_1  and  C_2
REMARK    2  A    between atoms: C_6  and  C_7
REMARK    3  A    between atoms: C_9  and  N_10
REMARK    4  A    between atoms: C_11  and  C_12
REMARK    5  A    between atoms: N_14  and  C_15
REMARK    6  A    between atoms: N_17  and  C_18
REMARK    7  A    between atoms: C_20  and  C_21
REMARK                            x       y       z     vdW  Elec       q    Type
REMARK                         _______ _______ _______ _____ _____    ______ ____
ROOT
ATOM      1  C   UNL     1       0.451  10.853  18.981  0.00  0.00    +0.000 C 
ATOM      2  O   UNL     1       1.355  11.571  18.558  0.00  0.00    +0.000 OA
ATOM      3  N   UNL     1       0.697   9.519  19.313  0.00  0.00    +0.000 N 
ATOM      4  H   UNL     1      -0.132   8.974  19.537  0.00  0.00    +0.000 HD
ENDROOT
BRANCH   1  14
ATOM      5  C   UNL     1      -5.833  14.294  23.552  0.00  0.00    +0.000 C 
ATOM      6  C   UNL     1      -5.282  13.679  22.321  0.00  0.00    +0.000 A 
ATOM      7  N   UNL     1      -6.101  13.523  21.236  0.00  0.00    +0.000 NA
ATOM      8  C   UNL     1      -5.308  12.972  20.351  0.00  0.00    +0.000 A 
ATOM      9  C   UNL     1      -5.545  12.553  19.024  0.00  0.00    +0.000 A 
ATOM     10  C   UNL     1      -4.546  12.004  18.296  0.00  0.00    +0.000 A 
ATOM     11  C   UNL     1      -4.828  11.551  16.902  0.00  0.00    +0.000 C 
ATOM     12  C   UNL     1      -3.210  11.831  18.846  0.00  0.00    +0.000 A 
ATOM     13  C   UNL     1      -2.008  11.268  18.300  0.00  0.00    +0.000 A 
ATOM     14  C   UNL     1      -0.939  11.291  19.196  0.00  0.00    +0.000 A 
ATOM     15  S   UNL     1      -1.436  11.956  20.724  0.00  0.00    +0.000 S 
ATOM     16  C   UNL     1      -2.995  12.233  20.155  0.00  0.00    +0.000 A 
ATOM     17  N   UNL     1      -4.044  12.797  20.885  0.00  0.00    +0.000 N 
ATOM     18  N   UNL     1      -4.013  13.249  22.161  0.00  0.00    +0.000 NA
BRANCH  13  19
ATOM     19  N   UNL     1      -1.872  10.743  17.051  0.00  0.00    +0.000 N 
ATOM     20  H   UNL     1      -1.242   9.968  16.887  0.00  0.00    +0.000 HD
ATOM     21  H   UNL     1      -1.760  11.414  16.287  0.00  0.00    +0.000 HD
ENDBRANCH  13  19
ENDBRANCH   1  14
BRANCH   3  22
ATOM     22  C   UNL     1       2.009   8.843  19.141  0.00  0.00    +0.000 C 
ATOM     23  C   UNL     1       2.118   7.402  19.666  0.00  0.00    +0.000 C 
ATOM     24  N   UNL     1       2.702   7.031  18.408  0.00  0.00    +0.000 N 
ATOM     25  C   UNL     1       2.292   8.230  17.748  0.00  0.00    +0.000 C 
BRANCH  24  26
ATOM     26  C   UNL     1       3.521   5.939  18.046  0.00  0.00    +0.000 A 
ATOM     27  C   UNL     1       4.920   6.120  18.053  0.00  0.00    +0.000 A 
ATOM     28  C   UNL     1       5.796   5.091  17.685  0.00  0.00    +0.000 A 
ATOM     29  N   UNL     1       5.333   3.868  17.316  0.00  0.00    +0.000 NA
ATOM     30  C   UNL     1       3.990   3.690  17.320  0.00  0.00    +0.000 A 
ATOM     31  C   UNL     1       3.059   4.669  17.668  0.00  0.00    +0.000 A 
ATOM     32 CL   UNL     1       1.396   4.211  17.640  0.00  0.00    +0.000 Cl
BRANCH  28  33
ATOM     33  C   UNL     1       7.302   5.340  17.704  0.00  0.00    +0.000 C 
ATOM     34  F   UNL     1       7.683   6.392  16.918  0.00  0.00    +0.000 F 
ATOM     35  F   UNL     1       7.779   5.631  18.949  0.00  0.00    +0.000 F 
ATOM     36  F   UNL     1       8.029   4.276  17.259  0.00  0.00    +0.000 F 
ENDBRANCH  28  33
ENDBRANCH  24  26
ENDBRANCH   3  22
TORSDOF 5
ENDMDL
MODEL 2
REMARK VINA RESULT:      -8.5      1.134      1.377
REMARK  Name = 
REMARK  7 active torsions:
REMARK  status: ('A' for Active; 'I' for Inactive)
REMARK    1  A    between atoms: C_1  and  C_2
REMARK    2  A    between atoms: C_6  and  C_7
REMARK    3  A    between atoms: C_9  and  N_10
REMARK    4  A    between atoms: C_11  and  C_12
REMARK    5  A    between atoms: N_14  and  C_15
REMARK    6  A    between atoms: N_17  and  C_18
REMARK    7  A    between atoms: C_20  and  C_21
REMARK                            x       y       z     vdW  Elec       q    Type
REMARK                         _______ _______ _______ _____ _____    ______ ____
ROOT
ATOM      1  C   UNL     1       0.299  10.767  19.473  0.00  0.00    +0.000 C 
ATOM      2  O   UNL     1       1.204  11.528  19.810  0.00  0.00    +0.000 OA
ATOM      3  N   UNL     1       0.545   9.405  19.285  0.00  0.00    +0.000 N 
ATOM      4  H   UNL     1      -0.232   8.881  18.891  0.00  0.00    +0.000 HD
ENDROOT
BRANCH   1  14
ATOM      5  C   UNL     1      -6.976  14.569  21.673  0.00  0.00    +0.000 C 
ATOM      6  C   UNL     1      -6.119  13.805  20.736  0.00  0.00    +0.000 A 
ATOM      7  N   UNL     1      -6.623  13.457  19.512  0.00  0.00    +0.000 NA
ATOM      8  C   UNL     1      -5.623  12.818  18.958  0.00  0.00    +0.000 A 
ATOM      9  C   UNL     1      -5.501  12.199  17.695  0.00  0.00    +0.000 A 
ATOM     10  C   UNL     1      -4.344  11.593  17.345  0.00  0.00    +0.000 A 
ATOM     11  C   UNL     1      -4.247  10.930  16.011  0.00  0.00    +0.000 C 
ATOM     12  C   UNL     1      -3.200  11.558  18.243  0.00  0.00    +0.000 A 
ATOM     13  C   UNL     1      -1.895  10.974  18.121  0.00  0.00    +0.000 A 
ATOM     14  C   UNL     1      -1.100  11.172  19.250  0.00  0.00    +0.000 A 
ATOM     15  S   UNL     1      -1.984  12.032  20.476  0.00  0.00    +0.000 S 
ATOM     16  C   UNL     1      -3.339  12.157  19.486  0.00  0.00    +0.000 A 
ATOM     17  N   UNL     1      -4.544  12.775  19.823  0.00  0.00    +0.000 N 
ATOM     18  N   UNL     1      -4.852  13.411  20.980  0.00  0.00    +0.000 NA
BRANCH  13  19
ATOM     19  N   UNL     1      -1.433  10.278  17.046  0.00  0.00    +0.000 N 
ATOM     20  H   UNL     1      -0.448  10.068  16.956  0.00  0.00    +0.000 HD
ATOM     21  H   UNL     1      -1.782  10.575  16.130  0.00  0.00    +0.000 HD
ENDBRANCH  13  19
ENDBRANCH   1  14
BRANCH   3  22
ATOM     22  C   UNL     1       1.884   8.773  19.409  0.00  0.00    +0.000 C 
ATOM     23  C   UNL     1       1.969   7.494  20.258  0.00  0.00    +0.000 C 
ATOM     24  N   UNL     1       2.700   6.881  19.186  0.00  0.00    +0.000 N 
ATOM     25  C   UNL     1       2.338   7.879  18.230  0.00  0.00    +0.000 C 
BRANCH  24  26
ATOM     26  C   UNL     1       3.582   5.777  19.170  0.00  0.00    +0.000 A 
ATOM     27  C   UNL     1       4.928   6.001  18.815  0.00  0.00    +0.000 A 
ATOM     28  C   UNL     1       5.856   4.954  18.756  0.00  0.00    +0.000 A 
ATOM     29  N   UNL     1       5.498   3.676  19.051  0.00  0.00    +0.000 NA
ATOM     30  C   UNL     1       4.208   3.462  19.403  0.00  0.00    +0.000 A 
ATOM     31  C   UNL     1       3.229   4.454  19.478  0.00  0.00    +0.000 A 
ATOM     32 CL   UNL     1       1.657   3.962  19.988  0.00  0.00    +0.000 Cl
BRANCH  28  33
ATOM     33  C   UNL     1       7.301   5.248  18.359  0.00  0.00    +0.000 C 
ATOM     34  F   UNL     1       8.118   5.467  19.433  0.00  0.00    +0.000 F 
ATOM     35  F   UNL     1       7.882   4.225  17.669  0.00  0.00    +0.000 F 
ATOM     36  F   UNL     1       7.429   6.356  17.575  0.00  0.00    +0.000 F 
ENDBRANCH  28  33
ENDBRANCH  24  26
ENDBRANCH   3  22
TORSDOF 5
ENDMDL
MODEL 3
REMARK VINA RESULT:      -8.5      1.379      2.582
REMARK  Name = 
REMARK  7 active torsions:
REMARK  status: ('A' for Active; 'I' for Inactive)
REMARK    1  A    between atoms: C_1  and  C_2
REMARK    2  A    between atoms: C_6  and  C_7
REMARK    3  A    between atoms: C_9  and  N_10
REMARK    4  A    between atoms: C_11  and  C_12
REMARK    5  A    between atoms: N_14  and  C_15
REMARK    6  A    between atoms: N_17  and  C_18
REMARK    7  A    between atoms: C_20  and  C_21
REMARK                            x       y       z     vdW  Elec       q    Type
REMARK                         _______ _______ _______ _____ _____    ______ ____
ROOT
ATOM      1  C   UNL     1       0.803  10.790  19.154  0.00  0.00    +0.000 C 
ATOM      2  O   UNL     1       1.690  11.440  18.604  0.00  0.00    +0.000 OA
ATOM      3  N   UNL     1       1.008   9.451  19.497  0.00  0.00    +0.000 N 
ATOM      4  H   UNL     1       0.181   8.965  19.835  0.00  0.00    +0.000 HD
ENDROOT
BRANCH   1  14
ATOM      5  C   UNL     1      -7.335  12.684  17.604  0.00  0.00    +0.000 C 
ATOM      6  C   UNL     1      -6.141  12.614  18.480  0.00  0.00    +0.000 A 
ATOM      7  N   UNL     1      -6.249  13.032  19.779  0.00  0.00    +0.000 NA
ATOM      8  C   UNL     1      -5.044  12.828  20.249  0.00  0.00    +0.000 A 
ATOM      9  C   UNL     1      -4.494  13.060  21.528  0.00  0.00    +0.000 A 
ATOM     10  C   UNL     1      -3.198  12.759  21.775  0.00  0.00    +0.000 A 
ATOM     11  C   UNL     1      -2.636  13.032  23.131  0.00  0.00    +0.000 C 
ATOM     12  C   UNL     1      -2.338  12.194  20.747  0.00  0.00    +0.000 A 
ATOM     13  C   UNL     1      -0.954  11.816  20.748  0.00  0.00    +0.000 A 
ATOM     14  C   UNL     1      -0.523  11.319  19.519  0.00  0.00    +0.000 A 
ATOM     15  S   UNL     1      -1.812  11.371  18.353  0.00  0.00    +0.000 S 
ATOM     16  C   UNL     1      -2.887  11.985  19.491  0.00  0.00    +0.000 A 
ATOM     17  N   UNL     1      -4.227  12.304  19.262  0.00  0.00    +0.000 N 
ATOM     18  N   UNL     1      -4.925  12.161  18.110  0.00  0.00    +0.000 NA
BRANCH  13  19
ATOM     19  N   UNL     1      -0.102  11.920  21.806  0.00  0.00    +0.000 N 
ATOM     20  H   UNL     1       0.635  11.240  21.940  0.00  0.00    +0.000 HD
ATOM     21  H   UNL     1      -0.530  12.113  22.715  0.00  0.00    +0.000 HD
ENDBRANCH  13  19
ENDBRANCH   1  14
BRANCH   3  22
ATOM     22  C   UNL     1       2.247   8.690  19.191  0.00  0.00    +0.000 C 
ATOM     23  C   UNL     1       2.282   7.219  19.635  0.00  0.00    +0.000 C 
ATOM     24  N   UNL     1       2.741   6.875  18.320  0.00  0.00    +0.000 N 
ATOM     25  C   UNL     1       2.379   8.135  17.752  0.00  0.00    +0.000 C 
BRANCH  24  26
ATOM     26  C   UNL     1       3.444   5.747  17.842  0.00  0.00    +0.000 A 
ATOM     27  C   UNL     1       4.820   5.884  17.562  0.00  0.00    +0.000 A 
ATOM     28  C   UNL     1       5.578   4.817  17.066  0.00  0.00    +0.000 A 
ATOM     29  N   UNL     1       5.021   3.598  16.844  0.00  0.00    +0.000 NA
ATOM     30  C   UNL     1       3.703   3.462  17.122  0.00  0.00    +0.000 A 
ATOM     31  C   UNL     1       2.885   4.481  17.613  0.00  0.00    +0.000 A 
ATOM     32 CL   UNL     1       1.240   4.074  17.936  0.00  0.00    +0.000 Cl
BRANCH  28  33
ATOM     33  C   UNL     1       7.064   5.019  16.773  0.00  0.00    +0.000 C 
ATOM     34  F   UNL     1       7.878   4.385  17.669  0.00  0.00    +0.000 F 
ATOM     35  F   UNL     1       7.435   4.542  15.550  0.00  0.00    +0.000 F 
ATOM     36  F   UNL     1       7.445   6.327  16.802  0.00  0.00    +0.000 F 
ENDBRANCH  28  33
ENDBRANCH  24  26
ENDBRANCH   3  22
TORSDOF 5
ENDMDL
MODEL 4
REMARK VINA RESULT:      -8.4      1.383      2.622
REMARK  Name = 
REMARK  7 active torsions:
REMARK  status: ('A' for Active; 'I' for Inactive)
REMARK    1  A    between atoms: C_1  and  C_2
REMARK    2  A    between atoms: C_6  and  C_7
REMARK    3  A    between atoms: C_9  and  N_10
REMARK    4  A    between atoms: C_11  and  C_12
REMARK    5  A    between atoms: N_14  and  C_15
REMARK    6  A    between atoms: N_17  and  C_18
REMARK    7  A    between atoms: C_20  and  C_21
REMARK                            x       y       z     vdW  Elec       q    Type
REMARK                         _______ _______ _______ _____ _____    ______ ____
ROOT
ATOM      1  C   UNL     1       0.518  10.668  20.438  0.00  0.00    +0.000 C 
ATOM      2  O   UNL     1       1.411  10.891  21.252  0.00  0.00    +0.000 OA
ATOM      3  N   UNL     1       0.722   9.779  19.380  0.00  0.00    +0.000 N 
ATOM      4  H   UNL     1      -0.028   9.752  18.693  0.00  0.00    +0.000 HD
ENDROOT
BRANCH   1  14
ATOM      5  C   UNL     1      -6.986  12.799  17.065  0.00  0.00    +0.000 C 
ATOM      6  C   UNL     1      -6.015  12.729  18.183  0.00  0.00    +0.000 A 
ATOM      7  N   UNL     1      -6.379  13.221  19.407  0.00  0.00    +0.000 NA
ATOM      8  C   UNL     1      -5.316  12.995  20.138  0.00  0.00    +0.000 A 
ATOM      9  C   UNL     1      -5.045  13.274  21.494  0.00  0.00    +0.000 A 
ATOM     10  C   UNL     1      -3.850  12.936  22.032  0.00  0.00    +0.000 A 
ATOM     11  C   UNL     1      -3.582  13.259  23.464  0.00  0.00    +0.000 C 
ATOM     12  C   UNL     1      -2.818  12.282  21.242  0.00  0.00    +0.000 A 
ATOM     13  C   UNL     1      -1.488  11.849  21.563  0.00  0.00    +0.000 A 
ATOM     14  C   UNL     1      -0.827  11.269  20.481  0.00  0.00    +0.000 A 
ATOM     15  S   UNL     1      -1.829  11.308  19.060  0.00  0.00    +0.000 S 
ATOM     16  C   UNL     1      -3.093  12.027  19.907  0.00  0.00    +0.000 A 
ATOM     17  N   UNL     1      -4.333  12.386  19.378  0.00  0.00    +0.000 N 
ATOM     18  N   UNL     1      -4.772  12.208  18.108  0.00  0.00    +0.000 NA
BRANCH  13  19
ATOM     19  N   UNL     1      -0.881  11.976  22.775  0.00  0.00    +0.000 N 
ATOM     20  H   UNL     1       0.069  12.319  22.839  0.00  0.00    +0.000 HD
ATOM     21  H   UNL     1      -0.981  11.186  23.417  0.00  0.00    +0.000 HD
ENDBRANCH  13  19
ENDBRANCH   1  14
BRANCH   3  22
ATOM     22  C   UNL     1       2.009   9.087  19.107  0.00  0.00    +0.000 C 
ATOM     23  C   UNL     1       2.173   7.677  19.696  0.00  0.00    +0.000 C 
ATOM     24  N   UNL     1       2.621   7.235  18.406  0.00  0.00    +0.000 N 
ATOM     25  C   UNL     1       2.142   8.398  17.727  0.00  0.00    +0.000 C 
BRANCH  24  26
ATOM     26  C   UNL     1       3.397   6.120  18.019  0.00  0.00    +0.000 A 
ATOM     27  C   UNL     1       4.800   6.260  17.988  0.00  0.00    +0.000 A 
ATOM     28  C   UNL     1       5.635   5.206  17.594  0.00  0.00    +0.000 A 
ATOM     29  N   UNL     1       5.126   3.998  17.237  0.00  0.00    +0.000 NA
ATOM     30  C   UNL     1       3.779   3.860  17.278  0.00  0.00    +0.000 A 
ATOM     31  C   UNL     1       2.887   4.865  17.653  0.00  0.00    +0.000 A 
ATOM     32 CL   UNL     1       1.212   4.456  17.671  0.00  0.00    +0.000 Cl
BRANCH  28  33
ATOM     33  C   UNL     1       7.148   5.411  17.571  0.00  0.00    +0.000 C 
ATOM     34  F   UNL     1       7.556   6.291  16.609  0.00  0.00    +0.000 F 
ATOM     35  F   UNL     1       7.636   5.908  18.744  0.00  0.00    +0.000 F 
ATOM     36  F   UNL     1       7.842   4.263  17.328  0.00  0.00    +0.000 F 
ENDBRANCH  28  33
ENDBRANCH  24  26
ENDBRANCH   3  22
TORSDOF 5
ENDMDL
MODEL 5
REMARK VINA RESULT:      -8.3      5.292     10.892
REMARK  Name = 
REMARK  7 active torsions:
REMARK  status: ('A' for Active; 'I' for Inactive)
REMARK    1  A    between atoms: C_1  and  C_2
REMARK    2  A    between atoms: C_6  and  C_7
REMARK    3  A    between atoms: C_9  and  N_10
REMARK    4  A    between atoms: C_11  and  C_12
REMARK    5  A    between atoms: N_14  and  C_15
REMARK    6  A    between atoms: N_17  and  C_18
REMARK    7  A    between atoms: C_20  and  C_21
REMARK                            x       y       z     vdW  Elec       q    Type
REMARK                         _______ _______ _______ _____ _____    ______ ____
ROOT
ATOM      1  C   UNL     1       1.567   8.180  20.166  0.00  0.00    +0.000 C 
ATOM      2  O   UNL     1       1.418   8.243  21.385  0.00  0.00    +0.000 OA
ATOM      3  N   UNL     1       1.091   9.198  19.335  0.00  0.00    +0.000 N 
ATOM      4  H   UNL     1       1.153   9.000  18.339  0.00  0.00    +0.000 HD
ENDROOT
BRANCH   1  14
ATOM      5  C   UNL     1       6.735   5.000  14.216  0.00  0.00    +0.000 C 
ATOM      6  C   UNL     1       5.824   4.869  15.378  0.00  0.00    +0.000 A 
ATOM      7  N   UNL     1       5.601   3.626  15.907  0.00  0.00    +0.000 NA
ATOM      8  C   UNL     1       4.780   3.876  16.896  0.00  0.00    +0.000 A 
ATOM      9  C   UNL     1       4.165   3.017  17.833  0.00  0.00    +0.000 A 
ATOM     10  C   UNL     1       3.342   3.523  18.779  0.00  0.00    +0.000 A 
ATOM     11  C   UNL     1       2.689   2.591  19.746  0.00  0.00    +0.000 C 
ATOM     12  C   UNL     1       3.065   4.949  18.865  0.00  0.00    +0.000 A 
ATOM     13  C   UNL     1       2.230   5.718  19.743  0.00  0.00    +0.000 A 
ATOM     14  C   UNL     1       2.250   7.083  19.458  0.00  0.00    +0.000 A 
ATOM     15  S   UNL     1       3.255   7.404  18.076  0.00  0.00    +0.000 S 
ATOM     16  C   UNL     1       3.664   5.779  17.930  0.00  0.00    +0.000 A 
ATOM     17  N   UNL     1       4.509   5.231  16.964  0.00  0.00    +0.000 N 
ATOM     18  N   UNL     1       5.179   5.887  15.985  0.00  0.00    +0.000 NA
BRANCH  13  19
ATOM     19  N   UNL     1       1.469   5.219  20.756  0.00  0.00    +0.000 N 
ATOM     20  H   UNL     1       0.791   4.489  20.577  0.00  0.00    +0.000 HD
ATOM     21  H   UNL     1       1.041   5.906  21.383  0.00  0.00    +0.000 HD
ENDBRANCH  13  19
ENDBRANCH   1  14
BRANCH   3  22
ATOM     22  C   UNL     1       0.334  10.383  19.815  0.00  0.00    +0.000 C 
ATOM     23  C   UNL     1       1.161  11.605  20.244  0.00  0.00    +0.000 C 
ATOM     24  N   UNL     1       0.298  12.421  19.439  0.00  0.00    +0.000 N 
ATOM     25  C   UNL     1      -0.256  11.312  18.728  0.00  0.00    +0.000 C 
BRANCH  24  26
ATOM     26  C   UNL     1       0.012  13.803  19.483  0.00  0.00    +0.000 A 
ATOM     27  C   UNL     1       0.896  14.691  18.835  0.00  0.00    +0.000 A 
ATOM     28  C   UNL     1       0.690  16.076  18.853  0.00  0.00    +0.000 A 
ATOM     29  N   UNL     1      -0.379  16.623  19.489  0.00  0.00    +0.000 NA
ATOM     30  C   UNL     1      -1.234  15.770  20.102  0.00  0.00    +0.000 A 
ATOM     31  C   UNL     1      -1.090  14.383  20.130  0.00  0.00    +0.000 A 
ATOM     32 CL   UNL     1      -2.322  13.485  20.938  0.00  0.00    +0.000 Cl
BRANCH  28  33
ATOM     33  C   UNL     1       1.680  16.995  18.141  0.00  0.00    +0.000 C 
ATOM     34  F   UNL     1       1.097  17.765  17.174  0.00  0.00    +0.000 F 
ATOM     35  F   UNL     1       2.289  17.878  18.984  0.00  0.00    +0.000 F 
ATOM     36  F   UNL     1       2.682  16.321  17.509  0.00  0.00    +0.000 F 
ENDBRANCH  28  33
ENDBRANCH  24  26
ENDBRANCH   3  22
TORSDOF 5
ENDMDL
MODEL 6
REMARK VINA RESULT:      -8.2      2.112      2.534
REMARK  Name = 
REMARK  7 active torsions:
REMARK  status: ('A' for Active; 'I' for Inactive)
REMARK    1  A    between atoms: C_1  and  C_2
REMARK    2  A    between atoms: C_6  and  C_7
REMARK    3  A    between atoms: C_9  and  N_10
REMARK    4  A    between atoms: C_11  and  C_12
REMARK    5  A    between atoms: N_14  and  C_15
REMARK    6  A    between atoms: N_17  and  C_18
REMARK    7  A    between atoms: C_20  and  C_21
REMARK                            x       y       z     vdW  Elec       q    Type
REMARK                         _______ _______ _______ _____ _____    ______ ____
ROOT
ATOM      1  C   UNL     1       0.463  10.937  18.927  0.00  0.00    +0.000 C 
ATOM      2  O   UNL     1       1.391  11.685  18.624  0.00  0.00    +0.000 OA
ATOM      3  N   UNL     1       0.679   9.569  19.106  0.00  0.00    +0.000 N 
ATOM      4  H   UNL     1      -0.166   9.017  19.235  0.00  0.00    +0.000 HD
ENDROOT
BRANCH   1  14
ATOM      5  C   UNL     1      -5.794  14.476  23.460  0.00  0.00    +0.000 C 
ATOM      6  C   UNL     1      -5.252  13.826  22.243  0.00  0.00    +0.000 A 
ATOM      7  N   UNL     1      -6.083  13.629  21.173  0.00  0.00    +0.000 NA
ATOM      8  C   UNL     1      -5.296  13.056  20.297  0.00  0.00    +0.000 A 
ATOM      9  C   UNL     1      -5.546  12.592  18.988  0.00  0.00    +0.000 A 
ATOM     10  C   UNL     1      -4.550  12.028  18.266  0.00  0.00    +0.000 A 
ATOM     11  C   UNL     1      -4.845  11.528  16.890  0.00  0.00    +0.000 C 
ATOM     12  C   UNL     1      -3.207  11.882  18.805  0.00  0.00    +0.000 A 
ATOM     13  C   UNL     1      -2.007  11.312  18.263  0.00  0.00    +0.000 A 
ATOM     14  C   UNL     1      -0.928  11.371  19.144  0.00  0.00    +0.000 A 
ATOM     15  S   UNL     1      -1.412  12.082  20.656  0.00  0.00    +0.000 S 
ATOM     16  C   UNL     1      -2.980  12.329  20.098  0.00  0.00    +0.000 A 
ATOM     17  N   UNL     1      -4.024  12.907  20.821  0.00  0.00    +0.000 N 
ATOM     18  N   UNL     1      -3.982  13.401  22.082  0.00  0.00    +0.000 NA
BRANCH  13  19
ATOM     19  N   UNL     1      -1.881  10.747  17.030  0.00  0.00    +0.000 N 
ATOM     20  H   UNL     1      -1.837  11.328  16.203  0.00  0.00    +0.000 HD
ATOM     21  H   UNL     1      -2.494   9.952  16.831  0.00  0.00    +0.000 HD
ENDBRANCH  13  19
ENDBRANCH   1  14
BRANCH   3  22
ATOM     22  C   UNL     1       1.987   8.895  18.900  0.00  0.00    +0.000 C 
ATOM     23  C   UNL     1       2.198   7.557  19.628  0.00  0.00    +0.000 C 
ATOM     24  N   UNL     1       2.658   7.001  18.388  0.00  0.00    +0.000 N 
ATOM     25  C   UNL     1       2.142   8.073  17.597  0.00  0.00    +0.000 C 
BRANCH  24  26
ATOM     26  C   UNL     1       3.470   5.879  18.113  0.00  0.00    +0.000 A 
ATOM     27  C   UNL     1       2.923   4.594  18.304  0.00  0.00    +0.000 A 
ATOM     28  C   UNL     1       3.673   3.434  18.073  0.00  0.00    +0.000 A 
ATOM     29  N   UNL     1       4.960   3.499  17.643  0.00  0.00    +0.000 NA
ATOM     30  C   UNL     1       5.483   4.733  17.449  0.00  0.00    +0.000 A 
ATOM     31  C   UNL     1       4.799   5.930  17.663  0.00  0.00    +0.000 A 
ATOM     32 CL   UNL     1       5.648   7.390  17.313  0.00  0.00    +0.000 Cl
BRANCH  28  33
ATOM     33  C   UNL     1       3.035   2.065  18.300  0.00  0.00    +0.000 C 
ATOM     34  F   UNL     1       1.948   1.840  17.503  0.00  0.00    +0.000 F 
ATOM     35  F   UNL     1       3.888   1.031  18.044  0.00  0.00    +0.000 F 
ATOM     36  F   UNL     1       2.591   1.883  19.576  0.00  0.00    +0.000 F 
ENDBRANCH  28  33
ENDBRANCH  24  26
ENDBRANCH   3  22
TORSDOF 5
ENDMDL
MODEL 7
REMARK VINA RESULT:      -8.1      5.326     11.365
REMARK  Name = 
REMARK  7 active torsions:
REMARK  status: ('A' for Active; 'I' for Inactive)
REMARK    1  A    between atoms: C_1  and  C_2
REMARK    2  A    between atoms: C_6  and  C_7
REMARK    3  A    between atoms: C_9  and  N_10
REMARK    4  A    between atoms: C_11  and  C_12
REMARK    5  A    between atoms: N_14  and  C_15
REMARK    6  A    between atoms: N_17  and  C_18
REMARK    7  A    between atoms: C_20  and  C_21
REMARK                            x       y       z     vdW  Elec       q    Type
REMARK                         _______ _______ _______ _____ _____    ______ ____
ROOT
ATOM      1  C   UNL     1       1.833   8.044  19.896  0.00  0.00    +0.000 C 
ATOM      2  O   UNL     1       1.658   8.043  21.113  0.00  0.00    +0.000 OA
ATOM      3  N   UNL     1       1.384   9.109  19.112  0.00  0.00    +0.000 N 
ATOM      4  H   UNL     1       1.465   8.964  18.108  0.00  0.00    +0.000 HD
ENDROOT
BRANCH   1  14
ATOM      5  C   UNL     1       7.129   5.130  13.922  0.00  0.00    +0.000 C 
ATOM      6  C   UNL     1       6.181   4.947  15.048  0.00  0.00    +0.000 A 
ATOM      7  N   UNL     1       5.923   3.680  15.495  0.00  0.00    +0.000 NA
ATOM      8  C   UNL     1       5.076   3.885  16.472  0.00  0.00    +0.000 A 
ATOM      9  C   UNL     1       4.420   2.983  17.338  0.00  0.00    +0.000 A 
ATOM     10  C   UNL     1       3.576   3.446  18.288  0.00  0.00    +0.000 A 
ATOM     11  C   UNL     1       2.880   2.470  19.178  0.00  0.00    +0.000 C 
ATOM     12  C   UNL     1       3.319   4.869  18.450  0.00  0.00    +0.000 A 
ATOM     13  C   UNL     1       2.470   5.599  19.348  0.00  0.00    +0.000 A 
ATOM     14  C   UNL     1       2.519   6.978  19.145  0.00  0.00    +0.000 A 
ATOM     15  S   UNL     1       3.571   7.363  17.815  0.00  0.00    +0.000 S 
ATOM     16  C   UNL     1       3.959   5.742  17.584  0.00  0.00    +0.000 A 
ATOM     17  N   UNL     1       4.824   5.238  16.612  0.00  0.00    +0.000 N 
ATOM     18  N   UNL     1       5.534   5.939  15.694  0.00  0.00    +0.000 NA
BRANCH  13  19
ATOM     19  N   UNL     1       1.671   5.055  20.306  0.00  0.00    +0.000 N 
ATOM     20  H   UNL     1       0.691   5.302  20.358  0.00  0.00    +0.000 HD
ATOM     21  H   UNL     1       2.049   5.041  21.257  0.00  0.00    +0.000 HD
ENDBRANCH  13  19
ENDBRANCH   1  14
BRANCH   3  22
ATOM     22  C   UNL     1       0.628  10.275  19.639  0.00  0.00    +0.000 C 
ATOM     23  C   UNL     1      -0.206  11.074  18.624  0.00  0.00    +0.000 C 
ATOM     24  N   UNL     1      -1.310  11.003  19.537  0.00  0.00    +0.000 N 
ATOM     25  C   UNL     1      -0.723   9.967  20.328  0.00  0.00    +0.000 C 
BRANCH  24  26
ATOM     26  C   UNL     1      -2.467  11.803  19.667  0.00  0.00    +0.000 A 
ATOM     27  C   UNL     1      -3.503  11.641  18.725  0.00  0.00    +0.000 A 
ATOM     28  C   UNL     1      -4.670  12.413  18.775  0.00  0.00    +0.000 A 
ATOM     29  N   UNL     1      -4.858  13.346  19.746  0.00  0.00    +0.000 NA
ATOM     30  C   UNL     1      -3.868  13.494  20.658  0.00  0.00    +0.000 A 
ATOM     31  C   UNL     1      -2.678  12.766  20.667  0.00  0.00    +0.000 A 
ATOM     32 CL   UNL     1      -1.571  13.092  21.949  0.00  0.00    +0.000 Cl
BRANCH  28  33
ATOM     33  C   UNL     1      -5.760  12.203  17.727  0.00  0.00    +0.000 C 
ATOM     34  F   UNL     1      -6.429  13.352  17.410  0.00  0.00    +0.000 F 
ATOM     35  F   UNL     1      -5.275  11.731  16.542  0.00  0.00    +0.000 F 
ATOM     36  F   UNL     1      -6.723  11.322  18.121  0.00  0.00    +0.000 F 
ENDBRANCH  28  33
ENDBRANCH  24  26
ENDBRANCH   3  22
TORSDOF 5
ENDMDL
MODEL 8
REMARK VINA RESULT:      -8.1      4.897      6.038
REMARK  Name = 
REMARK  7 active torsions:
REMARK  status: ('A' for Active; 'I' for Inactive)
REMARK    1  A    between atoms: C_1  and  C_2
REMARK    2  A    between atoms: C_6  and  C_7
REMARK    3  A    between atoms: C_9  and  N_10
REMARK    4  A    between atoms: C_11  and  C_12
REMARK    5  A    between atoms: N_14  and  C_15
REMARK    6  A    between atoms: N_17  and  C_18
REMARK    7  A    between atoms: C_20  and  C_21
REMARK                            x       y       z     vdW  Elec       q    Type
REMARK                         _______ _______ _______ _____ _____    ______ ____
ROOT
ATOM      1  C   UNL     1       0.638  11.421  19.149  0.00  0.00    +0.000 C 
ATOM      2  O   UNL     1      -0.395  10.945  19.617  0.00  0.00    +0.000 OA
ATOM      3  N   UNL     1       1.551  10.613  18.468  0.00  0.00    +0.000 N 
ATOM      4  H   UNL     1       2.427  11.069  18.225  0.00  0.00    +0.000 HD
ENDROOT
BRANCH   1  14
ATOM      5  C   UNL     1       5.935  17.793  21.035  0.00  0.00    +0.000 C 
ATOM      6  C   UNL     1       4.663  17.249  20.502  0.00  0.00    +0.000 A 
ATOM      7  N   UNL     1       3.740  18.116  19.981  0.00  0.00    +0.000 NA
ATOM      8  C   UNL     1       2.772  17.318  19.607  0.00  0.00    +0.000 A 
ATOM      9  C   UNL     1       1.526  17.588  19.001  0.00  0.00    +0.000 A 
ATOM     10  C   UNL     1       0.682  16.574  18.702  0.00  0.00    +0.000 A 
ATOM     11  C   UNL     1      -0.638  16.889  18.079  0.00  0.00    +0.000 C 
ATOM     12  C   UNL     1       1.024  15.190  18.987  0.00  0.00    +0.000 A 
ATOM     13  C   UNL     1       0.310  13.960  18.792  0.00  0.00    +0.000 A 
ATOM     14  C   UNL     1       1.019  12.842  19.229  0.00  0.00    +0.000 A 
ATOM     15  S   UNL     1       2.539  13.317  19.928  0.00  0.00    +0.000 S 
ATOM     16  C   UNL     1       2.245  14.939  19.595  0.00  0.00    +0.000 A 
ATOM     17  N   UNL     1       3.097  16.003  19.894  0.00  0.00    +0.000 N 
ATOM     18  N   UNL     1       4.320  15.945  20.476  0.00  0.00    +0.000 NA
BRANCH  13  19
ATOM     19  N   UNL     1      -0.934  13.840  18.252  0.00  0.00    +0.000 N 
ATOM     20  H   UNL     1      -1.156  14.285  17.371  0.00  0.00    +0.000 HD
ATOM     21  H   UNL     1      -1.721  13.984  18.891  0.00  0.00    +0.000 HD
ENDBRANCH  13  19
ENDBRANCH   1  14
BRANCH   3  22
ATOM     22  C   UNL     1       1.403   9.144  18.299  0.00  0.00    +0.000 C 
ATOM     23  C   UNL     1       2.537   8.415  17.560  0.00  0.00    +0.000 C 
ATOM     24  N   UNL     1       2.556   7.451  18.622  0.00  0.00    +0.000 N 
ATOM     25  C   UNL     1       1.791   8.266  19.513  0.00  0.00    +0.000 C 
BRANCH  24  26
ATOM     26  C   UNL     1       3.029   6.121  18.667  0.00  0.00    +0.000 A 
ATOM     27  C   UNL     1       2.183   5.127  19.199  0.00  0.00    +0.000 A 
ATOM     28  C   UNL     1       2.590   3.790  19.297  0.00  0.00    +0.000 A 
ATOM     29  N   UNL     1       3.817   3.393  18.870  0.00  0.00    +0.000 NA
ATOM     30  C   UNL     1       4.626   4.346  18.348  0.00  0.00    +0.000 A 
ATOM     31  C   UNL     1       4.291   5.695  18.225  0.00  0.00    +0.000 A 
ATOM     32 CL   UNL     1       5.462   6.728  17.493  0.00  0.00    +0.000 Cl
BRANCH  28  33
ATOM     33  C   UNL     1       1.638   2.753  19.887  0.00  0.00    +0.000 C 
ATOM     34  F   UNL     1       1.867   2.504  21.211  0.00  0.00    +0.000 F 
ATOM     35  F   UNL     1       0.328   3.129  19.814  0.00  0.00    +0.000 F 
ATOM     36  F   UNL     1       1.718   1.538  19.273  0.00  0.00    +0.000 F 
ENDBRANCH  28  33
ENDBRANCH  24  26
ENDBRANCH   3  22
TORSDOF 5
ENDMDL
MODEL 9
REMARK VINA RESULT:      -8.0      1.066      1.333
REMARK  Name = 
REMARK  7 active torsions:
REMARK  status: ('A' for Active; 'I' for Inactive)
REMARK    1  A    between atoms: C_1  and  C_2
REMARK    2  A    between atoms: C_6  and  C_7
REMARK    3  A    between atoms: C_9  and  N_10
REMARK    4  A    between atoms: C_11  and  C_12
REMARK    5  A    between atoms: N_14  and  C_15
REMARK    6  A    between atoms: N_17  and  C_18
REMARK    7  A    between atoms: C_20  and  C_21
REMARK                            x       y       z     vdW  Elec       q    Type
REMARK                         _______ _______ _______ _____ _____    ______ ____
ROOT
ATOM      1  C   UNL     1      -0.229  11.449  19.458  0.00  0.00    +0.000 C 
ATOM      2  O   UNL     1       0.658  12.296  19.536  0.00  0.00    +0.000 OA
ATOM      3  N   UNL     1       0.082  10.111  19.208  0.00  0.00    +0.000 N 
ATOM      4  H   UNL     1      -0.720   9.509  19.040  0.00  0.00    +0.000 HD
ENDROOT
BRANCH   1  14
ATOM      5  C   UNL     1      -7.141  13.351  24.022  0.00  0.00    +0.000 C 
ATOM      6  C   UNL     1      -6.443  13.052  22.749  0.00  0.00    +0.000 A 
ATOM      7  N   UNL     1      -7.159  13.062  21.583  0.00  0.00    +0.000 NA
ATOM      8  C   UNL     1      -6.253  12.774  20.684  0.00  0.00    +0.000 A 
ATOM      9  C   UNL     1      -6.348  12.624  19.283  0.00  0.00    +0.000 A 
ATOM     10  C   UNL     1      -5.248  12.320  18.556  0.00  0.00    +0.000 A 
ATOM     11  C   UNL     1      -5.380  12.148  17.079  0.00  0.00    +0.000 C 
ATOM     12  C   UNL     1      -3.948  12.141  19.182  0.00  0.00    +0.000 A 
ATOM     13  C   UNL     1      -2.659  11.802  18.649  0.00  0.00    +0.000 A 
ATOM     14  C   UNL     1      -1.668  11.721  19.626  0.00  0.00    +0.000 A 
ATOM     15  S   UNL     1      -2.340  12.011  21.204  0.00  0.00    +0.000 S 
ATOM     16  C   UNL     1      -3.871  12.277  20.560  0.00  0.00    +0.000 A 
ATOM     17  N   UNL     1      -5.021  12.590  21.287  0.00  0.00    +0.000 N 
ATOM     18  N   UNL     1      -5.130  12.767  22.626  0.00  0.00    +0.000 NA
BRANCH  13  19
ATOM     19  N   UNL     1      -2.379  11.562  17.338  0.00  0.00    +0.000 N 
ATOM     20  H   UNL     1      -3.126  11.389  16.678  0.00  0.00    +0.000 HD
ATOM     21  H   UNL     1      -1.625  10.897  17.150  0.00  0.00    +0.000 HD
ENDBRANCH  13  19
ENDBRANCH   1  14
BRANCH   3  22
ATOM     22  C   UNL     1       1.458   9.605  18.961  0.00  0.00    +0.000 C 
ATOM     23  C   UNL     1       1.831   8.267  19.620  0.00  0.00    +0.000 C 
ATOM     24  N   UNL     1       2.340   7.831  18.351  0.00  0.00    +0.000 N 
ATOM     25  C   UNL     1       1.693   8.873  17.618  0.00  0.00    +0.000 C 
BRANCH  24  26
ATOM     26  C   UNL     1       3.274   6.826  18.016  0.00  0.00    +0.000 A 
ATOM     27  C   UNL     1       4.624   7.196  17.850  0.00  0.00    +0.000 A 
ATOM     28  C   UNL     1       5.605   6.260  17.497  0.00  0.00    +0.000 A 
ATOM     29  N   UNL     1       5.295   4.950  17.311  0.00  0.00    +0.000 NA
ATOM     30  C   UNL     1       4.001   4.592  17.481  0.00  0.00    +0.000 A 
ATOM     31  C   UNL     1       2.972   5.468  17.826  0.00  0.00    +0.000 A 
ATOM     32 CL   UNL     1       1.400   4.788  18.030  0.00  0.00    +0.000 Cl
BRANCH  28  33
ATOM     33  C   UNL     1       7.053   6.713  17.323  0.00  0.00    +0.000 C 
ATOM     34  F   UNL     1       7.862   6.332  18.358  0.00  0.00    +0.000 F 
ATOM     35  F   UNL     1       7.639   6.203  16.202  0.00  0.00    +0.000 F 
ATOM     36  F   UNL     1       7.187   8.067  17.240  0.00  0.00    +0.000 F 
ENDBRANCH  28  33
ENDBRANCH  24  26
ENDBRANCH   3  22
TORSDOF 5
ENDMDL
