MODEL 1
REMARK VINA RESULT:      -8.3      0.000      0.000
REMARK  Name = 
REMARK  11 active torsions:
REMARK  status: ('A' for Active; 'I' for Inactive)
REMARK    1  A    between atoms: C_1  and  O_2
REMARK    2  A    between atoms: O_2  and  C_3
REMARK    3  A    between atoms: N_10  and  C_11
REMARK    4  A    between atoms: C_20  and  O_21
REMARK    5  A    between atoms: O_21  and  C_22
REMARK    6  A    between atoms: C_22  and  C_23
REMARK    7  A    between atoms: C_23  and  C_24
REMARK    8  A    between atoms: C_24  and  C_25
REMARK    9  A    between atoms: C_25  and  C_26
REMARK   10  A    between atoms: C_26  and  C_27
REMARK   11  A    between atoms: N_29  and  O_30
REMARK                            x       y       z     vdW  Elec       q    Type
REMARK                         _______ _______ _______ _____ _____    ______ ____
ROOT
ATOM      1  C   UNL     1       6.032   4.843  16.448  0.00  0.00    +0.000 A 
ATOM      2  C   UNL     1       4.864   4.150  16.783  0.00  0.00    +0.000 A 
ATOM      3  C   UNL     1       3.763   4.788  17.322  0.00  0.00    +0.000 A 
ATOM      4  N   UNL     1       2.659   4.063  17.516  0.00  0.00    +0.000 NA
ATOM      5  C   UNL     1       1.594   4.719  17.977  0.00  0.00    +0.000 A 
ATOM      6  N   UNL     1       1.536   6.023  18.249  0.00  0.00    +0.000 NA
ATOM      7  C   UNL     1       2.658   6.744  18.051  0.00  0.00    +0.000 A 
ATOM      8  N   UNL     1       2.611   8.151  18.264  0.00  0.00    +0.000 N 
ATOM      9  C   UNL     1       3.846   6.156  17.599  0.00  0.00    +0.000 A 
ATOM     10  C   UNL     1       5.071   6.835  17.404  0.00  0.00    +0.000 A 
ATOM     11  C   UNL     1       6.155   6.195  16.802  0.00  0.00    +0.000 A 
ATOM     12  H   UNL     1       2.892   8.620  17.408  0.00  0.00    +0.000 HD
ENDROOT
BRANCH   8  13
ATOM     13  C   UNL     1       1.533   8.804  18.903  0.00  0.00    +0.000 A 
ATOM     14  C   UNL     1       0.681   9.637  18.167  0.00  0.00    +0.000 A 
ATOM     15  C   UNL     1      -0.343  10.349  18.795  0.00  0.00    +0.000 A 
ATOM     16  C   UNL     1      -0.529  10.226  20.169  0.00  0.00    +0.000 A 
ATOM     17  C   UNL     1       0.298   9.374  20.902  0.00  0.00    +0.000 A 
ATOM     18 BR   UNL     1       0.047   9.216  22.770  0.00  0.00    +0.000 Br
ATOM     19  C   UNL     1       1.317   8.653  20.277  0.00  0.00    +0.000 A 
ENDBRANCH   8  13
BRANCH   1  21
ATOM     20  C   UNL     1       7.115   4.374  14.395  0.00  0.00    +0.000 C 
ATOM     21  O   UNL     1       7.066   4.207  15.814  0.00  0.00    +0.000 OA
ENDBRANCH   1  21
BRANCH  11  22
ATOM     22  O   UNL     1       7.249   7.006  16.616  0.00  0.00    +0.000 OA
BRANCH  22  23
ATOM     23  C   UNL     1       7.774   7.541  17.825  0.00  0.00    +0.000 C 
BRANCH  23  24
ATOM     24  C   UNL     1       8.157   9.009  17.661  0.00  0.00    +0.000 C 
BRANCH  24  25
ATOM     25  C   UNL     1       8.947   9.429  18.903  0.00  0.00    +0.000 C 
BRANCH  25  26
ATOM     26  C   UNL     1       9.153  10.932  19.003  0.00  0.00    +0.000 C 
BRANCH  26  27
ATOM     27  C   UNL     1      10.491  11.333  18.377  0.00  0.00    +0.000 C 
BRANCH  27  28
ATOM     28  C   UNL     1      10.364  12.602  17.569  0.00  0.00    +0.000 C 
ATOM     29  O   UNL     1       9.380  13.338  17.584  0.00  0.00    +0.000 OA
ATOM     30  N   UNL     1      11.474  12.892  16.810  0.00  0.00    +0.000 N 
ATOM     31  H   UNL     1      12.130  12.182  16.503  0.00  0.00    +0.000 HD
BRANCH  30  32
ATOM     32  O   UNL     1      11.333  14.018  15.964  0.00  0.00    +0.000 OA
ATOM     33  H   UNL     1      10.400  13.937  15.663  0.00  0.00    +0.000 HD
ENDBRANCH  30  32
ENDBRANCH  27  28
ENDBRANCH  26  27
ENDBRANCH  25  26
ENDBRANCH  24  25
ENDBRANCH  23  24
ENDBRANCH  22  23
ENDBRANCH  11  22
TORSDOF 10
ENDMDL
MODEL 2
REMARK VINA RESULT:      -8.1      1.084      1.392
REMARK  Name = 
REMARK  11 active torsions:
REMARK  status: ('A' for Active; 'I' for Inactive)
REMARK    1  A    between atoms: C_1  and  O_2
REMARK    2  A    between atoms: O_2  and  C_3
REMARK    3  A    between atoms: N_10  and  C_11
REMARK    4  A    between atoms: C_20  and  O_21
REMARK    5  A    between atoms: O_21  and  C_22
REMARK    6  A    between atoms: C_22  and  C_23
REMARK    7  A    between atoms: C_23  and  C_24
REMARK    8  A    between atoms: C_24  and  C_25
REMARK    9  A    between atoms: C_25  and  C_26
REMARK   10  A    between atoms: C_26  and  C_27
REMARK   11  A    between atoms: N_29  and  O_30
REMARK                            x       y       z     vdW  Elec       q    Type
REMARK                         _______ _______ _______ _____ _____    ______ ____
ROOT
ATOM      1  C   UNL     1       6.287   5.139  16.314  0.00  0.00    +0.000 A 
ATOM      2  C   UNL     1       5.168   4.359  16.627  0.00  0.00    +0.000 A 
ATOM      3  C   UNL     1       4.063   4.885  17.267  0.00  0.00    +0.000 A 
ATOM      4  N   UNL     1       3.004   4.089  17.433  0.00  0.00    +0.000 NA
ATOM      5  C   UNL     1       1.930   4.643  17.997  0.00  0.00    +0.000 A 
ATOM      6  N   UNL     1       1.823   5.910  18.396  0.00  0.00    +0.000 NA
ATOM      7  C   UNL     1       2.900   6.703  18.226  0.00  0.00    +0.000 A 
ATOM      8  N   UNL     1       2.796   8.080  18.576  0.00  0.00    +0.000 N 
ATOM      9  C   UNL     1       4.094   6.223  17.672  0.00  0.00    +0.000 A 
ATOM     10  C   UNL     1       5.275   6.979  17.496  0.00  0.00    +0.000 A 
ATOM     11  C   UNL     1       6.360   6.456  16.793  0.00  0.00    +0.000 A 
ATOM     12  H   UNL     1       3.016   8.642  17.760  0.00  0.00    +0.000 HD
ENDROOT
BRANCH   8  13
ATOM     13  C   UNL     1       1.717   8.613  19.317  0.00  0.00    +0.000 A 
ATOM     14  C   UNL     1       1.453   8.142  20.609  0.00  0.00    +0.000 A 
ATOM     15  C   UNL     1       0.347   8.603  21.327  0.00  0.00    +0.000 A 
ATOM     16  C   UNL     1      -0.501   9.549  20.759  0.00  0.00    +0.000 A 
ATOM     17  C   UNL     1      -0.224  10.044  19.485  0.00  0.00    +0.000 A 
ATOM     18 BR   UNL     1      -1.383  11.325  18.714  0.00  0.00    +0.000 Br
ATOM     19  C   UNL     1       0.885   9.594  18.766  0.00  0.00    +0.000 A 
ENDBRANCH   8  13
BRANCH   1  21
ATOM     20  C   UNL     1       7.099   4.543  14.172  0.00  0.00    +0.000 C 
ATOM     21  O   UNL     1       7.321   4.620  15.582  0.00  0.00    +0.000 OA
ENDBRANCH   1  21
BRANCH  11  22
ATOM     22  O   UNL     1       7.406   7.336  16.644  0.00  0.00    +0.000 OA
BRANCH  22  23
ATOM     23  C   UNL     1       7.977   7.756  17.878  0.00  0.00    +0.000 C 
BRANCH  23  24
ATOM     24  C   UNL     1       8.171   9.270  17.911  0.00  0.00    +0.000 C 
BRANCH  24  25
ATOM     25  C   UNL     1       9.266   9.580  18.934  0.00  0.00    +0.000 C 
BRANCH  25  26
ATOM     26  C   UNL     1       9.412  11.065  19.225  0.00  0.00    +0.000 C 
BRANCH  26  27
ATOM     27  C   UNL     1       9.265  11.881  17.939  0.00  0.00    +0.000 C 
BRANCH  27  28
ATOM     28  C   UNL     1      10.488  12.728  17.680  0.00  0.00    +0.000 C 
ATOM     29  O   UNL     1      10.824  13.689  18.367  0.00  0.00    +0.000 OA
ATOM     30  N   UNL     1      11.230  12.316  16.598  0.00  0.00    +0.000 N 
ATOM     31  H   UNL     1      10.835  11.783  15.830  0.00  0.00    +0.000 HD
BRANCH  30  32
ATOM     32  O   UNL     1      12.320  13.160  16.274  0.00  0.00    +0.000 OA
ATOM     33  H   UNL     1      13.086  12.548  16.344  0.00  0.00    +0.000 HD
ENDBRANCH  30  32
ENDBRANCH  27  28
ENDBRANCH  26  27
ENDBRANCH  25  26
ENDBRANCH  24  25
ENDBRANCH  23  24
ENDBRANCH  22  23
ENDBRANCH  11  22
TORSDOF 10
ENDMDL
MODEL 3
REMARK VINA RESULT:      -7.7      1.961      2.414
REMARK  Name = 
REMARK  11 active torsions:
REMARK  status: ('A' for Active; 'I' for Inactive)
REMARK    1  A    between atoms: C_1  and  O_2
REMARK    2  A    between atoms: O_2  and  C_3
REMARK    3  A    between atoms: N_10  and  C_11
REMARK    4  A    between atoms: C_20  and  O_21
REMARK    5  A    between atoms: O_21  and  C_22
REMARK    6  A    between atoms: C_22  and  C_23
REMARK    7  A    between atoms: C_23  and  C_24
REMARK    8  A    between atoms: C_24  and  C_25
REMARK    9  A    between atoms: C_25  and  C_26
REMARK   10  A    between atoms: C_26  and  C_27
REMARK   11  A    between atoms: N_29  and  O_30
REMARK                            x       y       z     vdW  Elec       q    Type
REMARK                         _______ _______ _______ _____ _____    ______ ____
ROOT
ATOM      1  C   UNL     1       5.874   4.482  16.296  0.00  0.00    +0.000 A 
ATOM      2  C   UNL     1       4.683   3.824  16.621  0.00  0.00    +0.000 A 
ATOM      3  C   UNL     1       3.647   4.463  17.275  0.00  0.00    +0.000 A 
ATOM      4  N   UNL     1       2.512   3.784  17.453  0.00  0.00    +0.000 NA
ATOM      5  C   UNL     1       1.510   4.447  18.030  0.00  0.00    +0.000 A 
ATOM      6  N   UNL     1       1.542   5.717  18.431  0.00  0.00    +0.000 NA
ATOM      7  C   UNL     1       2.694   6.392  18.249  0.00  0.00    +0.000 A 
ATOM      8  N   UNL     1       2.741   7.771  18.601  0.00  0.00    +0.000 N 
ATOM      9  C   UNL     1       3.824   5.790  17.680  0.00  0.00    +0.000 A 
ATOM     10  C   UNL     1       5.077   6.417  17.491  0.00  0.00    +0.000 A 
ATOM     11  C   UNL     1       6.092   5.783  16.775  0.00  0.00    +0.000 A 
ATOM     12  H   UNL     1       3.009   8.309  17.782  0.00  0.00    +0.000 HD
ENDROOT
BRANCH   8  13
ATOM     13  C   UNL     1       1.733   8.414  19.355  0.00  0.00    +0.000 A 
ATOM     14  C   UNL     1       1.492   8.026  20.678  0.00  0.00    +0.000 A 
ATOM     15  C   UNL     1       0.451   8.597  21.414  0.00  0.00    +0.000 A 
ATOM     16  C   UNL     1      -0.353   9.573  20.832  0.00  0.00    +0.000 A 
ATOM     17  C   UNL     1      -0.097   9.985  19.525  0.00  0.00    +0.000 A 
ATOM     18 BR   UNL     1      -1.197  11.306  18.735  0.00  0.00    +0.000 Br
ATOM     19  C   UNL     1       0.947   9.424  18.788  0.00  0.00    +0.000 A 
ENDBRANCH   8  13
BRANCH   1  21
ATOM     20  C   UNL     1       6.708   3.997  14.134  0.00  0.00    +0.000 C 
ATOM     21  O   UNL     1       6.839   3.858  15.551  0.00  0.00    +0.000 OA
ENDBRANCH   1  21
BRANCH  11  22
ATOM     22  O   UNL     1       7.223   6.548  16.614  0.00  0.00    +0.000 OA
BRANCH  22  23
ATOM     23  C   UNL     1       7.136   7.829  17.227  0.00  0.00    +0.000 C 
BRANCH  23  24
ATOM     24  C   UNL     1       8.331   8.089  18.140  0.00  0.00    +0.000 C 
BRANCH  24  25
ATOM     25  C   UNL     1       8.592   9.597  18.153  0.00  0.00    +0.000 C 
BRANCH  25  26
ATOM     26  C   UNL     1       9.274  10.077  19.424  0.00  0.00    +0.000 C 
BRANCH  26  27
ATOM     27  C   UNL     1       9.437  11.598  19.403  0.00  0.00    +0.000 C 
BRANCH  27  28
ATOM     28  C   UNL     1       9.548  12.161  20.799  0.00  0.00    +0.000 C 
ATOM     29  O   UNL     1      10.079  13.234  21.074  0.00  0.00    +0.000 OA
ATOM     30  N   UNL     1       8.972  11.370  21.766  0.00  0.00    +0.000 N 
ATOM     31  H   UNL     1       8.843  10.370  21.653  0.00  0.00    +0.000 HD
BRANCH  30  32
ATOM     32  O   UNL     1       9.160  11.827  23.092  0.00  0.00    +0.000 OA
ATOM     33  H   UNL     1       8.332  12.333  23.258  0.00  0.00    +0.000 HD
ENDBRANCH  30  32
ENDBRANCH  27  28
ENDBRANCH  26  27
ENDBRANCH  25  26
ENDBRANCH  24  25
ENDBRANCH  23  24
ENDBRANCH  22  23
ENDBRANCH  11  22
TORSDOF 10
ENDMDL
MODEL 4
REMARK VINA RESULT:      -7.6      4.651      6.014
REMARK  Name = 
REMARK  11 active torsions:
REMARK  status: ('A' for Active; 'I' for Inactive)
REMARK    1  A    between atoms: C_1  and  O_2
REMARK    2  A    between atoms: O_2  and  C_3
REMARK    3  A    between atoms: N_10  and  C_11
REMARK    4  A    between atoms: C_20  and  O_21
REMARK    5  A    between atoms: O_21  and  C_22
REMARK    6  A    between atoms: C_22  and  C_23
REMARK    7  A    between atoms: C_23  and  C_24
REMARK    8  A    between atoms: C_24  and  C_25
REMARK    9  A    between atoms: C_25  and  C_26
REMARK   10  A    between atoms: C_26  and  C_27
REMARK   11  A    between atoms: N_29  and  O_30
REMARK                            x       y       z     vdW  Elec       q    Type
REMARK                         _______ _______ _______ _____ _____    ______ ____
ROOT
ATOM      1  C   UNL     1       2.560   5.355  19.433  0.00  0.00    +0.000 A 
ATOM      2  C   UNL     1       1.898   5.887  20.544  0.00  0.00    +0.000 A 
ATOM      3  C   UNL     1       1.500   7.209  20.596  0.00  0.00    +0.000 A 
ATOM      4  N   UNL     1       0.786   7.602  21.654  0.00  0.00    +0.000 NA
ATOM      5  C   UNL     1       0.363   8.866  21.646  0.00  0.00    +0.000 A 
ATOM      6  N   UNL     1       0.582   9.757  20.679  0.00  0.00    +0.000 NA
ATOM      7  C   UNL     1       1.306   9.350  19.618  0.00  0.00    +0.000 A 
ATOM      8  N   UNL     1       1.498  10.255  18.535  0.00  0.00    +0.000 N 
ATOM      9  C   UNL     1       1.829   8.053  19.531  0.00  0.00    +0.000 A 
ATOM     10  C   UNL     1       2.627   7.563  18.472  0.00  0.00    +0.000 A 
ATOM     11  C   UNL     1       2.969   6.213  18.401  0.00  0.00    +0.000 A 
ATOM     12  H   UNL     1       1.146   9.827  17.685  0.00  0.00    +0.000 HD
ENDROOT
BRANCH   8  13
ATOM     13  C   UNL     1       1.187  11.631  18.609  0.00  0.00    +0.000 A 
ATOM     14  C   UNL     1      -0.150  12.048  18.638  0.00  0.00    +0.000 A 
ATOM     15  C   UNL     1      -0.477  13.406  18.635  0.00  0.00    +0.000 A 
ATOM     16  C   UNL     1       0.535  14.361  18.612  0.00  0.00    +0.000 A 
ATOM     17  C   UNL     1       1.868  13.951  18.615  0.00  0.00    +0.000 A 
ATOM     18 BR   UNL     1       3.241  15.253  18.577  0.00  0.00    +0.000 Br
ATOM     19  C   UNL     1       2.201  12.595  18.627  0.00  0.00    +0.000 A 
ENDBRANCH   8  13
BRANCH   1  21
ATOM     20  C   UNL     1       1.743   3.139  19.613  0.00  0.00    +0.000 C 
ATOM     21  O   UNL     1       2.843   4.017  19.361  0.00  0.00    +0.000 OA
ENDBRANCH   1  21
BRANCH  11  22
ATOM     22  O   UNL     1       3.686   5.877  17.277  0.00  0.00    +0.000 OA
BRANCH  22  23
ATOM     23  C   UNL     1       4.508   6.931  16.790  0.00  0.00    +0.000 C 
BRANCH  23  24
ATOM     24  C   UNL     1       5.326   6.482  15.582  0.00  0.00    +0.000 C 
BRANCH  24  25
ATOM     25  C   UNL     1       5.407   4.954  15.612  0.00  0.00    +0.000 C 
BRANCH  25  26
ATOM     26  C   UNL     1       6.736   4.434  16.136  0.00  0.00    +0.000 C 
BRANCH  26  27
ATOM     27  C   UNL     1       7.206   5.268  17.330  0.00  0.00    +0.000 C 
BRANCH  27  28
ATOM     28  C   UNL     1       6.657   4.729  18.629  0.00  0.00    +0.000 C 
ATOM     29  O   UNL     1       6.925   5.187  19.738  0.00  0.00    +0.000 OA
ATOM     30  N   UNL     1       5.793   3.671  18.472  0.00  0.00    +0.000 N 
ATOM     31  H   UNL     1       5.811   3.061  17.662  0.00  0.00    +0.000 HD
BRANCH  30  32
ATOM     32  O   UNL     1       5.353   3.084  19.683  0.00  0.00    +0.000 OA
ATOM     33  H   UNL     1       4.402   2.909  19.497  0.00  0.00    +0.000 HD
ENDBRANCH  30  32
ENDBRANCH  27  28
ENDBRANCH  26  27
ENDBRANCH  25  26
ENDBRANCH  24  25
ENDBRANCH  23  24
ENDBRANCH  22  23
ENDBRANCH  11  22
TORSDOF 10
ENDMDL
MODEL 5
REMARK VINA RESULT:      -7.6      4.725      7.172
REMARK  Name = 
REMARK  11 active torsions:
REMARK  status: ('A' for Active; 'I' for Inactive)
REMARK    1  A    between atoms: C_1  and  O_2
REMARK    2  A    between atoms: O_2  and  C_3
REMARK    3  A    between atoms: N_10  and  C_11
REMARK    4  A    between atoms: C_20  and  O_21
REMARK    5  A    between atoms: O_21  and  C_22
REMARK    6  A    between atoms: C_22  and  C_23
REMARK    7  A    between atoms: C_23  and  C_24
REMARK    8  A    between atoms: C_24  and  C_25
REMARK    9  A    between atoms: C_25  and  C_26
REMARK   10  A    between atoms: C_26  and  C_27
REMARK   11  A    between atoms: N_29  and  O_30
REMARK                            x       y       z     vdW  Elec       q    Type
REMARK                         _______ _______ _______ _____ _____    ______ ____
ROOT
ATOM      1  C   UNL     1       3.425   6.590  18.189  0.00  0.00    +0.000 A 
ATOM      2  C   UNL     1       3.170   7.801  17.536  0.00  0.00    +0.000 A 
ATOM      3  C   UNL     1       2.390   8.790  18.103  0.00  0.00    +0.000 A 
ATOM      4  N   UNL     1       2.286   9.949  17.451  0.00  0.00    +0.000 NA
ATOM      5  C   UNL     1       1.579  10.906  18.053  0.00  0.00    +0.000 A 
ATOM      6  N   UNL     1       0.983  10.806  19.241  0.00  0.00    +0.000 NA
ATOM      7  C   UNL     1       1.092   9.630  19.889  0.00  0.00    +0.000 A 
ATOM      8  N   UNL     1       0.528   9.512  21.191  0.00  0.00    +0.000 N 
ATOM      9  C   UNL     1       1.785   8.543  19.340  0.00  0.00    +0.000 A 
ATOM     10  C   UNL     1       1.913   7.268  19.938  0.00  0.00    +0.000 A 
ATOM     11  C   UNL     1       2.753   6.301  19.386  0.00  0.00    +0.000 A 
ATOM     12  H   UNL     1       1.259   9.240  21.841  0.00  0.00    +0.000 HD
ENDROOT
BRANCH   8  13
ATOM     13  C   UNL     1      -0.351  10.470  21.746  0.00  0.00    +0.000 A 
ATOM     14  C   UNL     1      -0.889  10.273  23.023  0.00  0.00    +0.000 A 
ATOM     15  C   UNL     1      -1.817  11.171  23.556  0.00  0.00    +0.000 A 
ATOM     16  C   UNL     1      -2.208  12.282  22.815  0.00  0.00    +0.000 A 
ATOM     17  C   UNL     1      -1.652  12.500  21.555  0.00  0.00    +0.000 A 
ATOM     18 BR   UNL     1      -2.192  14.007  20.548  0.00  0.00    +0.000 Br
ATOM     19  C   UNL     1      -0.717  11.610  21.021  0.00  0.00    +0.000 A 
ENDBRANCH   8  13
BRANCH   1  21
ATOM     20  C   UNL     1       5.016   6.111  16.503  0.00  0.00    +0.000 C 
ATOM     21  O   UNL     1       4.290   5.673  17.654  0.00  0.00    +0.000 OA
ENDBRANCH   1  21
BRANCH  11  22
ATOM     22  O   UNL     1       2.826   5.141  20.121  0.00  0.00    +0.000 OA
BRANCH  22  23
ATOM     23  C   UNL     1       1.604   4.793  20.760  0.00  0.00    +0.000 C 
BRANCH  23  24
ATOM     24  C   UNL     1       1.380   3.283  20.741  0.00  0.00    +0.000 C 
BRANCH  24  25
ATOM     25  C   UNL     1       0.906   2.897  19.338  0.00  0.00    +0.000 C 
BRANCH  25  26
ATOM     26  C   UNL     1       2.048   2.587  18.383  0.00  0.00    +0.000 C 
BRANCH  26  27
ATOM     27  C   UNL     1       2.987   1.543  18.991  0.00  0.00    +0.000 C 
BRANCH  27  28
ATOM     28  C   UNL     1       4.282   2.167  19.452  0.00  0.00    +0.000 C 
ATOM     29  O   UNL     1       4.848   1.892  20.507  0.00  0.00    +0.000 OA
ATOM     30  N   UNL     1       4.807   3.078  18.564  0.00  0.00    +0.000 N 
ATOM     31  H   UNL     1       4.240   3.577  17.888  0.00  0.00    +0.000 HD
BRANCH  30  32
ATOM     32  O   UNL     1       5.963   3.752  19.026  0.00  0.00    +0.000 OA
ATOM     33  H   UNL     1       6.157   4.367  18.283  0.00  0.00    +0.000 HD
ENDBRANCH  30  32
ENDBRANCH  27  28
ENDBRANCH  26  27
ENDBRANCH  25  26
ENDBRANCH  24  25
ENDBRANCH  23  24
ENDBRANCH  22  23
ENDBRANCH  11  22
TORSDOF 10
ENDMDL
MODEL 6
REMARK VINA RESULT:      -7.4      1.626      1.909
REMARK  Name = 
REMARK  11 active torsions:
REMARK  status: ('A' for Active; 'I' for Inactive)
REMARK    1  A    between atoms: C_1  and  O_2
REMARK    2  A    between atoms: O_2  and  C_3
REMARK    3  A    between atoms: N_10  and  C_11
REMARK    4  A    between atoms: C_20  and  O_21
REMARK    5  A    between atoms: O_21  and  C_22
REMARK    6  A    between atoms: C_22  and  C_23
REMARK    7  A    between atoms: C_23  and  C_24
REMARK    8  A    between atoms: C_24  and  C_25
REMARK    9  A    between atoms: C_25  and  C_26
REMARK   10  A    between atoms: C_26  and  C_27
REMARK   11  A    between atoms: N_29  and  O_30
REMARK                            x       y       z     vdW  Elec       q    Type
REMARK                         _______ _______ _______ _____ _____    ______ ____
ROOT
ATOM      1  C   UNL     1       6.008   4.684  16.173  0.00  0.00    +0.000 A 
ATOM      2  C   UNL     1       4.865   3.973  16.553  0.00  0.00    +0.000 A 
ATOM      3  C   UNL     1       3.818   4.573  17.225  0.00  0.00    +0.000 A 
ATOM      4  N   UNL     1       2.727   3.840  17.457  0.00  0.00    +0.000 NA
ATOM      5  C   UNL     1       1.710   4.464  18.052  0.00  0.00    +0.000 A 
ATOM      6  N   UNL     1       1.687   5.745  18.421  0.00  0.00    +0.000 NA
ATOM      7  C   UNL     1       2.796   6.474  18.184  0.00  0.00    +0.000 A 
ATOM      8  N   UNL     1       2.780   7.863  18.501  0.00  0.00    +0.000 N 
ATOM      9  C   UNL     1       3.937   5.917  17.593  0.00  0.00    +0.000 A 
ATOM     10  C   UNL     1       5.148   6.604  17.347  0.00  0.00    +0.000 A 
ATOM     11  C   UNL     1       6.172   6.006  16.613  0.00  0.00    +0.000 A 
ATOM     12  H   UNL     1       2.993   8.392  17.662  0.00  0.00    +0.000 HD
ENDROOT
BRANCH   8  13
ATOM     13  C   UNL     1       1.765   8.471  19.273  0.00  0.00    +0.000 A 
ATOM     14  C   UNL     1       1.564   8.080  20.602  0.00  0.00    +0.000 A 
ATOM     15  C   UNL     1       0.518   8.616  21.357  0.00  0.00    +0.000 A 
ATOM     16  C   UNL     1      -0.334   9.558  20.787  0.00  0.00    +0.000 A 
ATOM     17  C   UNL     1      -0.118   9.974  19.473  0.00  0.00    +0.000 A 
ATOM     18 BR   UNL     1      -1.282  11.250  18.701  0.00  0.00    +0.000 Br
ATOM     19  C   UNL     1       0.931   9.448  18.718  0.00  0.00    +0.000 A 
ENDBRANCH   8  13
BRANCH   1  21
ATOM     20  C   UNL     1       6.816   4.218  13.996  0.00  0.00    +0.000 C 
ATOM     21  O   UNL     1       6.980   4.092  15.411  0.00  0.00    +0.000 OA
ENDBRANCH   1  21
BRANCH  11  22
ATOM     22  O   UNL     1       7.255   6.825  16.396  0.00  0.00    +0.000 OA
BRANCH  22  23
ATOM     23  C   UNL     1       7.342   7.910  17.312  0.00  0.00    +0.000 C 
BRANCH  23  24
ATOM     24  C   UNL     1       8.261   7.573  18.483  0.00  0.00    +0.000 C 
BRANCH  24  25
ATOM     25  C   UNL     1       8.883   8.879  18.981  0.00  0.00    +0.000 C 
BRANCH  25  26
ATOM     26  C   UNL     1       8.627  10.058  18.056  0.00  0.00    +0.000 C 
BRANCH  26  27
ATOM     27  C   UNL     1       9.755  11.085  18.170  0.00  0.00    +0.000 C 
BRANCH  27  28
ATOM     28  C   UNL     1       9.546  12.007  19.347  0.00  0.00    +0.000 C 
ATOM     29  O   UNL     1       9.982  11.800  20.477  0.00  0.00    +0.000 OA
ATOM     30  N   UNL     1       8.829  13.141  19.044  0.00  0.00    +0.000 N 
ATOM     31  H   UNL     1       8.180  13.191  18.266  0.00  0.00    +0.000 HD
BRANCH  30  32
ATOM     32  O   UNL     1       8.530  13.965  20.156  0.00  0.00    +0.000 OA
ATOM     33  H   UNL     1       8.121  14.751  19.730  0.00  0.00    +0.000 HD
ENDBRANCH  30  32
ENDBRANCH  27  28
ENDBRANCH  26  27
ENDBRANCH  25  26
ENDBRANCH  24  25
ENDBRANCH  23  24
ENDBRANCH  22  23
ENDBRANCH  11  22
TORSDOF 10
ENDMDL
MODEL 7
REMARK VINA RESULT:      -7.3      4.172      5.149
REMARK  Name = 
REMARK  11 active torsions:
REMARK  status: ('A' for Active; 'I' for Inactive)
REMARK    1  A    between atoms: C_1  and  O_2
REMARK    2  A    between atoms: O_2  and  C_3
REMARK    3  A    between atoms: N_10  and  C_11
REMARK    4  A    between atoms: C_20  and  O_21
REMARK    5  A    between atoms: O_21  and  C_22
REMARK    6  A    between atoms: C_22  and  C_23
REMARK    7  A    between atoms: C_23  and  C_24
REMARK    8  A    between atoms: C_24  and  C_25
REMARK    9  A    between atoms: C_25  and  C_26
REMARK   10  A    between atoms: C_26  and  C_27
REMARK   11  A    between atoms: N_29  and  O_30
REMARK                            x       y       z     vdW  Elec       q    Type
REMARK                         _______ _______ _______ _____ _____    ______ ____
ROOT
ATOM      1  C   UNL     1       2.951   3.879  18.710  0.00  0.00    +0.000 A 
ATOM      2  C   UNL     1       2.551   4.428  19.932  0.00  0.00    +0.000 A 
ATOM      3  C   UNL     1       2.213   5.762  20.062  0.00  0.00    +0.000 A 
ATOM      4  N   UNL     1       1.747   6.173  21.242  0.00  0.00    +0.000 NA
ATOM      5  C   UNL     1       1.370   7.449  21.318  0.00  0.00    +0.000 A 
ATOM      6  N   UNL     1       1.412   8.337  20.324  0.00  0.00    +0.000 NA
ATOM      7  C   UNL     1       1.887   7.911  19.137  0.00  0.00    +0.000 A 
ATOM      8  N   UNL     1       1.879   8.813  18.035  0.00  0.00    +0.000 N 
ATOM      9  C   UNL     1       2.340   6.599  18.948  0.00  0.00    +0.000 A 
ATOM     10  C   UNL     1       2.887   6.088  17.749  0.00  0.00    +0.000 A 
ATOM     11  C   UNL     1       3.164   4.728  17.613  0.00  0.00    +0.000 A 
ATOM     12  H   UNL     1       1.345   8.399  17.278  0.00  0.00    +0.000 HD
ENDROOT
BRANCH   8  13
ATOM     13  C   UNL     1       1.632  10.198  18.168  0.00  0.00    +0.000 A 
ATOM     14  C   UNL     1       2.652  11.121  17.906  0.00  0.00    +0.000 A 
ATOM     15  C   UNL     1       2.449  12.489  18.104  0.00  0.00    +0.000 A 
ATOM     16  C   UNL     1       1.216  12.946  18.559  0.00  0.00    +0.000 A 
ATOM     17  C   UNL     1       0.187  12.033  18.792  0.00  0.00    +0.000 A 
ATOM     18 BR   UNL     1      -1.485  12.659  19.418  0.00  0.00    +0.000 Br
ATOM     19  C   UNL     1       0.382  10.666  18.587  0.00  0.00    +0.000 A 
ENDBRANCH   8  13
BRANCH   1  21
ATOM     20  C   UNL     1       2.267   1.691  19.301  0.00  0.00    +0.000 C 
ATOM     21  O   UNL     1       3.173   2.533  18.585  0.00  0.00    +0.000 OA
ENDBRANCH   1  21
BRANCH  11  22
ATOM     22  O   UNL     1       3.622   4.374  16.365  0.00  0.00    +0.000 OA
BRANCH  22  23
ATOM     23  C   UNL     1       5.017   4.095  16.328  0.00  0.00    +0.000 C 
BRANCH  23  24
ATOM     24  C   UNL     1       5.659   4.652  15.060  0.00  0.00    +0.000 C 
BRANCH  24  25
ATOM     25  C   UNL     1       7.142   4.890  15.351  0.00  0.00    +0.000 C 
BRANCH  25  26
ATOM     26  C   UNL     1       7.513   4.656  16.807  0.00  0.00    +0.000 C 
BRANCH  26  27
ATOM     27  C   UNL     1       7.313   5.935  17.623  0.00  0.00    +0.000 C 
BRANCH  27  28
ATOM     28  C   UNL     1       7.191   5.635  19.098  0.00  0.00    +0.000 C 
ATOM     29  O   UNL     1       6.128   5.598  19.713  0.00  0.00    +0.000 OA
ATOM     30  N   UNL     1       8.393   5.377  19.714  0.00  0.00    +0.000 N 
ATOM     31  H   UNL     1       9.279   5.721  19.359  0.00  0.00    +0.000 HD
BRANCH  30  32
ATOM     32  O   UNL     1       8.312   5.200  21.116  0.00  0.00    +0.000 OA
ATOM     33  H   UNL     1       9.128   5.651  21.431  0.00  0.00    +0.000 HD
ENDBRANCH  30  32
ENDBRANCH  27  28
ENDBRANCH  26  27
ENDBRANCH  25  26
ENDBRANCH  24  25
ENDBRANCH  23  24
ENDBRANCH  22  23
ENDBRANCH  11  22
TORSDOF 10
ENDMDL
MODEL 8
REMARK VINA RESULT:      -7.3      6.181     11.048
REMARK  Name = 
REMARK  11 active torsions:
REMARK  status: ('A' for Active; 'I' for Inactive)
REMARK    1  A    between atoms: C_1  and  O_2
REMARK    2  A    between atoms: O_2  and  C_3
REMARK    3  A    between atoms: N_10  and  C_11
REMARK    4  A    between atoms: C_20  and  O_21
REMARK    5  A    between atoms: O_21  and  C_22
REMARK    6  A    between atoms: C_22  and  C_23
REMARK    7  A    between atoms: C_23  and  C_24
REMARK    8  A    between atoms: C_24  and  C_25
REMARK    9  A    between atoms: C_25  and  C_26
REMARK   10  A    between atoms: C_26  and  C_27
REMARK   11  A    between atoms: N_29  and  O_30
REMARK                            x       y       z     vdW  Elec       q    Type
REMARK                         _______ _______ _______ _____ _____    ______ ____
ROOT
ATOM      1  C   UNL     1      -1.509  11.932  19.954  0.00  0.00    +0.000 A 
ATOM      2  C   UNL     1      -0.958  11.241  21.038  0.00  0.00    +0.000 A 
ATOM      3  C   UNL     1      -0.062  10.203  20.868  0.00  0.00    +0.000 A 
ATOM      4  N   UNL     1       0.488   9.672  21.961  0.00  0.00    +0.000 NA
ATOM      5  C   UNL     1       1.395   8.715  21.762  0.00  0.00    +0.000 A 
ATOM      6  N   UNL     1       1.800   8.257  20.577  0.00  0.00    +0.000 NA
ATOM      7  C   UNL     1       1.236   8.799  19.481  0.00  0.00    +0.000 A 
ATOM      8  N   UNL     1       1.696   8.384  18.199  0.00  0.00    +0.000 N 
ATOM      9  C   UNL     1       0.249   9.790  19.568  0.00  0.00    +0.000 A 
ATOM     10  C   UNL     1      -0.416  10.381  18.469  0.00  0.00    +0.000 A 
ATOM     11  C   UNL     1      -1.270  11.468  18.651  0.00  0.00    +0.000 A 
ATOM     12  H   UNL     1       2.019   9.199  17.687  0.00  0.00    +0.000 HD
ENDROOT
BRANCH   8  13
ATOM     13  C   UNL     1       2.534   7.263  18.001  0.00  0.00    +0.000 A 
ATOM     14  C   UNL     1       3.874   7.443  17.636  0.00  0.00    +0.000 A 
ATOM     15  C   UNL     1       4.696   6.347  17.364  0.00  0.00    +0.000 A 
ATOM     16  C   UNL     1       4.184   5.057  17.464  0.00  0.00    +0.000 A 
ATOM     17  C   UNL     1       2.859   4.871  17.857  0.00  0.00    +0.000 A 
ATOM     18 BR   UNL     1       2.165   3.116  17.985  0.00  0.00    +0.000 Br
ATOM     19  C   UNL     1       2.035   5.963  18.140  0.00  0.00    +0.000 A 
ENDBRANCH   8  13
BRANCH   1  21
ATOM     20  C   UNL     1      -2.248  13.603  21.460  0.00  0.00    +0.000 C 
ATOM     21  O   UNL     1      -2.307  13.027  20.153  0.00  0.00    +0.000 OA
ENDBRANCH   1  21
BRANCH  11  22
ATOM     22  O   UNL     1      -1.784  11.976  17.481  0.00  0.00    +0.000 OA
BRANCH  22  23
ATOM     23  C   UNL     1      -2.470  11.010  16.694  0.00  0.00    +0.000 C 
BRANCH  23  24
ATOM     24  C   UNL     1      -3.975  11.264  16.693  0.00  0.00    +0.000 C 
BRANCH  24  25
ATOM     25  C   UNL     1      -4.549  10.685  17.988  0.00  0.00    +0.000 C 
BRANCH  25  26
ATOM     26  C   UNL     1      -5.652  11.540  18.590  0.00  0.00    +0.000 C 
BRANCH  26  27
ATOM     27  C   UNL     1      -6.929  10.716  18.774  0.00  0.00    +0.000 C 
BRANCH  27  28
ATOM     28  C   UNL     1      -7.147  10.351  20.222  0.00  0.00    +0.000 C 
ATOM     29  O   UNL     1      -7.335   9.207  20.628  0.00  0.00    +0.000 OA
ATOM     30  N   UNL     1      -7.097  11.425  21.080  0.00  0.00    +0.000 N 
ATOM     31  H   UNL     1      -7.289  12.375  20.784  0.00  0.00    +0.000 HD
BRANCH  30  32
ATOM     32  O   UNL     1      -7.406  11.118  22.428  0.00  0.00    +0.000 OA
ATOM     33  H   UNL     1      -7.756  10.201  22.358  0.00  0.00    +0.000 HD
ENDBRANCH  30  32
ENDBRANCH  27  28
ENDBRANCH  26  27
ENDBRANCH  25  26
ENDBRANCH  24  25
ENDBRANCH  23  24
ENDBRANCH  22  23
ENDBRANCH  11  22
TORSDOF 10
ENDMDL
MODEL 9
REMARK VINA RESULT:      -7.2      1.547      1.806
REMARK  Name = 
REMARK  11 active torsions:
REMARK  status: ('A' for Active; 'I' for Inactive)
REMARK    1  A    between atoms: C_1  and  O_2
REMARK    2  A    between atoms: O_2  and  C_3
REMARK    3  A    between atoms: N_10  and  C_11
REMARK    4  A    between atoms: C_20  and  O_21
REMARK    5  A    between atoms: O_21  and  C_22
REMARK    6  A    between atoms: C_22  and  C_23
REMARK    7  A    between atoms: C_23  and  C_24
REMARK    8  A    between atoms: C_24  and  C_25
REMARK    9  A    between atoms: C_25  and  C_26
REMARK   10  A    between atoms: C_26  and  C_27
REMARK   11  A    between atoms: N_29  and  O_30
REMARK                            x       y       z     vdW  Elec       q    Type
REMARK                         _______ _______ _______ _____ _____    ______ ____
ROOT
ATOM      1  C   UNL     1       6.297   5.118  16.477  0.00  0.00    +0.000 A 
ATOM      2  C   UNL     1       5.154   4.378  16.797  0.00  0.00    +0.000 A 
ATOM      3  C   UNL     1       4.021   4.969  17.323  0.00  0.00    +0.000 A 
ATOM      4  N   UNL     1       2.946   4.200  17.503  0.00  0.00    +0.000 NA
ATOM      5  C   UNL     1       1.849   4.811  17.952  0.00  0.00    +0.000 A 
ATOM      6  N   UNL     1       1.736   6.111  18.226  0.00  0.00    +0.000 NA
ATOM      7  C   UNL     1       2.830   6.877  18.043  0.00  0.00    +0.000 A 
ATOM      8  N   UNL     1       2.724   8.281  18.258  0.00  0.00    +0.000 N 
ATOM      9  C   UNL     1       4.047   6.339  17.604  0.00  0.00    +0.000 A 
ATOM     10  C   UNL     1       5.245   7.067  17.425  0.00  0.00    +0.000 A 
ATOM     11  C   UNL     1       6.361   6.473  16.836  0.00  0.00    +0.000 A 
ATOM     12  H   UNL     1       2.995   8.763  17.407  0.00  0.00    +0.000 HD
ENDROOT
BRANCH   8  13
ATOM     13  C   UNL     1       1.613   8.888  18.885  0.00  0.00    +0.000 A 
ATOM     14  C   UNL     1       0.697   9.628  18.127  0.00  0.00    +0.000 A 
ATOM     15  C   UNL     1      -0.365  10.298  18.740  0.00  0.00    +0.000 A 
ATOM     16  C   UNL     1      -0.524  10.224  20.121  0.00  0.00    +0.000 A 
ATOM     17  C   UNL     1       0.367   9.463  20.876  0.00  0.00    +0.000 A 
ATOM     18 BR   UNL     1       0.152   9.371  22.753  0.00  0.00    +0.000 Br
ATOM     19  C   UNL     1       1.425   8.784  20.268  0.00  0.00    +0.000 A 
ENDBRANCH   8  13
BRANCH   1  21
ATOM     20  C   UNL     1       7.361   4.597  14.427  0.00  0.00    +0.000 C 
ATOM     21  O   UNL     1       7.364   4.526  15.855  0.00  0.00    +0.000 OA
ENDBRANCH   1  21
BRANCH  11  22
ATOM     22  O   UNL     1       7.424   7.328  16.664  0.00  0.00    +0.000 OA
BRANCH  22  23
ATOM     23  C   UNL     1       7.659   8.176  17.783  0.00  0.00    +0.000 C 
BRANCH  23  24
ATOM     24  C   UNL     1       8.727   9.220  17.471  0.00  0.00    +0.000 C 
BRANCH  24  25
ATOM     25  C   UNL     1       8.794  10.190  18.653  0.00  0.00    +0.000 C 
BRANCH  25  26
ATOM     26  C   UNL     1       8.779  11.651  18.233  0.00  0.00    +0.000 C 
BRANCH  26  27
ATOM     27  C   UNL     1      10.063  12.351  18.683  0.00  0.00    +0.000 C 
BRANCH  27  28
ATOM     28  C   UNL     1      10.356  12.085  20.140  0.00  0.00    +0.000 C 
ATOM     29  O   UNL     1      11.385  11.557  20.556  0.00  0.00    +0.000 OA
ATOM     30  N   UNL     1       9.365  12.511  20.994  0.00  0.00    +0.000 N 
ATOM     31  H   UNL     1       8.399  12.621  20.704  0.00  0.00    +0.000 HD
BRANCH  30  32
ATOM     32  O   UNL     1       9.572  12.173  22.353  0.00  0.00    +0.000 OA
ATOM     33  H   UNL     1       9.478  11.194  22.342  0.00  0.00    +0.000 HD
ENDBRANCH  30  32
ENDBRANCH  27  28
ENDBRANCH  26  27
ENDBRANCH  25  26
ENDBRANCH  24  25
ENDBRANCH  23  24
ENDBRANCH  22  23
ENDBRANCH  11  22
TORSDOF 10
ENDMDL
