MODEL 1
REMARK VINA RESULT:      -8.1      0.000      0.000
REMARK  Name = 
REMARK  7 active torsions:
REMARK  status: ('A' for Active; 'I' for Inactive)
REMARK    1  A    between atoms: C_1  and  C_2
REMARK    2  A    between atoms: C_9  and  C_10
REMARK    3  A    between atoms: N_11  and  O_12
REMARK    4  A    between atoms: C_13  and  N_14
REMARK    5  A    between atoms: N_14  and  C_15
REMARK    6  A    between atoms: C_18  and  S_19
REMARK    7  A    between atoms: S_19  and  C_20
REMARK                            x       y       z     vdW  Elec       q    Type
REMARK                         _______ _______ _______ _____ _____    ______ ____
ROOT
ATOM      1  C   UNL     1       7.132   7.251  17.429  0.00  0.00    +0.000 C 
ATOM      2  C   UNL     1       6.623   5.957  16.875  0.00  0.00    +0.000 A 
ATOM      3  C   UNL     1       7.221   5.302  15.867  0.00  0.00    +0.000 A 
ATOM      4  C   UNL     1       6.713   4.046  15.391  0.00  0.00    +0.000 A 
ATOM      5  C   UNL     1       5.624   3.515  15.954  0.00  0.00    +0.000 A 
ATOM      6  N   UNL     1       4.938   4.167  16.969  0.00  0.00    +0.000 N 
ATOM      7  C   UNL     1       3.824   3.573  17.518  0.00  0.00    +0.000 A 
ATOM      8  O   UNL     1       3.453   2.426  17.253  0.00  0.00    +0.000 OA
ATOM      9  C   UNL     1       3.038   4.389  18.472  0.00  0.00    +0.000 A 
ATOM     10  C   UNL     1       3.531   5.582  18.888  0.00  0.00    +0.000 A 
ATOM     11  N   UNL     1       4.743   6.021  18.402  0.00  0.00    +0.000 NA
ATOM     12  C   UNL     1       5.367   5.383  17.472  0.00  0.00    +0.000 A 
ENDROOT
BRANCH   9  13
ATOM     13  C   UNL     1       1.688   3.869  18.805  0.00  0.00    +0.000 C 
ATOM     14  N   UNL     1       1.270   3.487  19.969  0.00  0.00    +0.000 NA
BRANCH  14  15
ATOM     15  O   UNL     1      -0.049   3.027  19.807  0.00  0.00    +0.000 OA
ATOM     16  H   UNL     1       0.047   2.273  19.197  0.00  0.00    +0.000 HD
ENDBRANCH  14  15
ENDBRANCH   9  13
BRANCH  10  17
ATOM     17  N   UNL     1       2.829   6.375  19.799  0.00  0.00    +0.000 N 
ATOM     18  H   UNL     1       2.763   5.990  20.743  0.00  0.00    +0.000 HD
BRANCH  17  19
ATOM     19  C   UNL     1       2.138   7.586  19.588  0.00  0.00    +0.000 A 
ATOM     20  C   UNL     1       2.166   8.302  18.384  0.00  0.00    +0.000 A 
ATOM     21  C   UNL     1       1.474   9.510  18.219  0.00  0.00    +0.000 A 
ATOM     22  C   UNL     1       0.722  10.036  19.266  0.00  0.00    +0.000 A 
ATOM     23  C   UNL     1       0.722   9.370  20.492  0.00  0.00    +0.000 A 
ATOM     24  C   UNL     1       1.423   8.163  20.649  0.00  0.00    +0.000 A 
BRANCH  22  25
ATOM     25  S   UNL     1      -0.193  11.543  19.013  0.00  0.00    +0.000 S 
BRANCH  25  26
ATOM     26  C   UNL     1      -1.790  10.840  18.544  0.00  0.00    +0.000 C 
ATOM     27  F   UNL     1      -2.464  11.686  17.723  0.00  0.00    +0.000 F 
ATOM     28  F   UNL     1      -1.600   9.696  17.837  0.00  0.00    +0.000 F 
ENDBRANCH  25  26
ENDBRANCH  22  25
ENDBRANCH  17  19
ENDBRANCH  10  17
TORSDOF 6
ENDMDL
MODEL 2
REMARK VINA RESULT:      -8.1      0.431      1.116
REMARK  Name = 
REMARK  7 active torsions:
REMARK  status: ('A' for Active; 'I' for Inactive)
REMARK    1  A    between atoms: C_1  and  C_2
REMARK    2  A    between atoms: C_9  and  C_10
REMARK    3  A    between atoms: N_11  and  O_12
REMARK    4  A    between atoms: C_13  and  N_14
REMARK    5  A    between atoms: N_14  and  C_15
REMARK    6  A    between atoms: C_18  and  S_19
REMARK    7  A    between atoms: S_19  and  C_20
REMARK                            x       y       z     vdW  Elec       q    Type
REMARK                         _______ _______ _______ _____ _____    ______ ____
ROOT
ATOM      1  C   UNL     1       7.125   7.261  17.264  0.00  0.00    +0.000 C 
ATOM      2  C   UNL     1       6.606   5.944  16.777  0.00  0.00    +0.000 A 
ATOM      3  C   UNL     1       7.156   5.269  15.755  0.00  0.00    +0.000 A 
ATOM      4  C   UNL     1       6.642   3.992  15.345  0.00  0.00    +0.000 A 
ATOM      5  C   UNL     1       5.595   3.463  15.985  0.00  0.00    +0.000 A 
ATOM      6  N   UNL     1       4.959   4.133  17.019  0.00  0.00    +0.000 N 
ATOM      7  C   UNL     1       3.888   3.539  17.648  0.00  0.00    +0.000 A 
ATOM      8  O   UNL     1       3.521   2.380  17.438  0.00  0.00    +0.000 OA
ATOM      9  C   UNL     1       3.145   4.371  18.623  0.00  0.00    +0.000 A 
ATOM     10  C   UNL     1       3.641   5.583  18.976  0.00  0.00    +0.000 A 
ATOM     11  N   UNL     1       4.816   6.025  18.407  0.00  0.00    +0.000 NA
ATOM     12  C   UNL     1       5.396   5.370  17.462  0.00  0.00    +0.000 A 
ENDROOT
BRANCH   9  13
ATOM     13  C   UNL     1       1.825   3.841  19.048  0.00  0.00    +0.000 C 
ATOM     14  N   UNL     1       1.494   3.449  20.236  0.00  0.00    +0.000 NA
BRANCH  14  15
ATOM     15  O   UNL     1       0.169   2.983  20.166  0.00  0.00    +0.000 OA
ATOM     16  H   UNL     1      -0.229   3.537  19.471  0.00  0.00    +0.000 HD
ENDBRANCH  14  15
ENDBRANCH   9  13
BRANCH  10  17
ATOM     17  N   UNL     1       2.980   6.392  19.903  0.00  0.00    +0.000 N 
ATOM     18  H   UNL     1       3.013   6.057  20.868  0.00  0.00    +0.000 HD
BRANCH  17  19
ATOM     19  C   UNL     1       2.214   7.557  19.692  0.00  0.00    +0.000 A 
ATOM     20  C   UNL     1       1.395   8.141  20.667  0.00  0.00    +0.000 A 
ATOM     21  C   UNL     1       0.639   9.294  20.411  0.00  0.00    +0.000 A 
ATOM     22  C   UNL     1       0.689   9.902  19.160  0.00  0.00    +0.000 A 
ATOM     23  C   UNL     1       1.454   9.309  18.156  0.00  0.00    +0.000 A 
ATOM     24  C   UNL     1       2.204   8.150  18.420  0.00  0.00    +0.000 A 
BRANCH  22  25
ATOM     25  S   UNL     1      -0.237  11.397  18.878  0.00  0.00    +0.000 S 
BRANCH  25  26
ATOM     26  C   UNL     1      -1.563  10.731  17.847  0.00  0.00    +0.000 C 
ATOM     27  F   UNL     1      -1.129   9.651  17.147  0.00  0.00    +0.000 F 
ATOM     28  F   UNL     1      -2.580  10.290  18.633  0.00  0.00    +0.000 F 
ENDBRANCH  25  26
ENDBRANCH  22  25
ENDBRANCH  17  19
ENDBRANCH  10  17
TORSDOF 6
ENDMDL
MODEL 3
REMARK VINA RESULT:      -8.0      1.365      1.436
REMARK  Name = 
REMARK  7 active torsions:
REMARK  status: ('A' for Active; 'I' for Inactive)
REMARK    1  A    between atoms: C_1  and  C_2
REMARK    2  A    between atoms: C_9  and  C_10
REMARK    3  A    between atoms: N_11  and  O_12
REMARK    4  A    between atoms: C_13  and  N_14
REMARK    5  A    between atoms: N_14  and  C_15
REMARK    6  A    between atoms: C_18  and  S_19
REMARK    7  A    between atoms: S_19  and  C_20
REMARK                            x       y       z     vdW  Elec       q    Type
REMARK                         _______ _______ _______ _____ _____    ______ ____
ROOT
ATOM      1  C   UNL     1       7.163   7.302  17.284  0.00  0.00    +0.000 C 
ATOM      2  C   UNL     1       6.642   5.995  16.773  0.00  0.00    +0.000 A 
ATOM      3  C   UNL     1       7.195   5.335  15.743  0.00  0.00    +0.000 A 
ATOM      4  C   UNL     1       6.678   4.067  15.308  0.00  0.00    +0.000 A 
ATOM      5  C   UNL     1       5.626   3.531  15.934  0.00  0.00    +0.000 A 
ATOM      6  N   UNL     1       4.986   4.187  16.976  0.00  0.00    +0.000 N 
ATOM      7  C   UNL     1       3.910   3.587  17.589  0.00  0.00    +0.000 A 
ATOM      8  O   UNL     1       3.539   2.433  17.358  0.00  0.00    +0.000 OA
ATOM      9  C   UNL     1       3.164   4.406  18.574  0.00  0.00    +0.000 A 
ATOM     10  C   UNL     1       3.664   5.609  18.949  0.00  0.00    +0.000 A 
ATOM     11  N   UNL     1       4.843   6.056  18.395  0.00  0.00    +0.000 NA
ATOM     12  C   UNL     1       5.426   5.414  17.442  0.00  0.00    +0.000 A 
ENDROOT
BRANCH   9  13
ATOM     13  C   UNL     1       1.841   3.874  18.982  0.00  0.00    +0.000 C 
ATOM     14  N   UNL     1       1.422   3.683  20.192  0.00  0.00    +0.000 NA
BRANCH  14  15
ATOM     15  O   UNL     1       0.134   3.123  20.104  0.00  0.00    +0.000 OA
ATOM     16  H   UNL     1      -0.425   3.883  19.859  0.00  0.00    +0.000 HD
ENDBRANCH  14  15
ENDBRANCH   9  13
BRANCH  10  17
ATOM     17  N   UNL     1       3.001   6.405  19.887  0.00  0.00    +0.000 N 
ATOM     18  H   UNL     1       3.058   6.073  20.851  0.00  0.00    +0.000 HD
BRANCH  17  19
ATOM     19  C   UNL     1       2.206   7.553  19.686  0.00  0.00    +0.000 A 
ATOM     20  C   UNL     1       2.120   8.241  18.469  0.00  0.00    +0.000 A 
ATOM     21  C   UNL     1       1.326   9.386  18.316  0.00  0.00    +0.000 A 
ATOM     22  C   UNL     1       0.584   9.875  19.388  0.00  0.00    +0.000 A 
ATOM     23  C   UNL     1       0.695   9.238  20.624  0.00  0.00    +0.000 A 
ATOM     24  C   UNL     1       1.497   8.095  20.770  0.00  0.00    +0.000 A 
BRANCH  22  25
ATOM     25  S   UNL     1      -0.460  11.298  19.152  0.00  0.00    +0.000 S 
BRANCH  25  26
ATOM     26  C   UNL     1       0.787  12.600  19.283  0.00  0.00    +0.000 C 
ATOM     27  F   UNL     1       1.616  12.365  20.332  0.00  0.00    +0.000 F 
ATOM     28  F   UNL     1       1.570  12.601  18.173  0.00  0.00    +0.000 F 
ENDBRANCH  25  26
ENDBRANCH  22  25
ENDBRANCH  17  19
ENDBRANCH  10  17
TORSDOF 6
ENDMDL
MODEL 4
REMARK VINA RESULT:      -8.0      1.427      1.742
REMARK  Name = 
REMARK  7 active torsions:
REMARK  status: ('A' for Active; 'I' for Inactive)
REMARK    1  A    between atoms: C_1  and  C_2
REMARK    2  A    between atoms: C_9  and  C_10
REMARK    3  A    between atoms: N_11  and  O_12
REMARK    4  A    between atoms: C_13  and  N_14
REMARK    5  A    between atoms: N_14  and  C_15
REMARK    6  A    between atoms: C_18  and  S_19
REMARK    7  A    between atoms: S_19  and  C_20
REMARK                            x       y       z     vdW  Elec       q    Type
REMARK                         _______ _______ _______ _____ _____    ______ ____
ROOT
ATOM      1  C   UNL     1       7.227   7.368  17.352  0.00  0.00    +0.000 C 
ATOM      2  C   UNL     1       6.709   6.066  16.825  0.00  0.00    +0.000 A 
ATOM      3  C   UNL     1       7.258   5.425  15.781  0.00  0.00    +0.000 A 
ATOM      4  C   UNL     1       6.745   4.160  15.332  0.00  0.00    +0.000 A 
ATOM      5  C   UNL     1       5.701   3.609  15.957  0.00  0.00    +0.000 A 
ATOM      6  N   UNL     1       5.066   4.245  17.014  0.00  0.00    +0.000 N 
ATOM      7  C   UNL     1       3.998   3.629  17.627  0.00  0.00    +0.000 A 
ATOM      8  O   UNL     1       3.632   2.477  17.381  0.00  0.00    +0.000 OA
ATOM      9  C   UNL     1       3.255   4.429  18.629  0.00  0.00    +0.000 A 
ATOM     10  C   UNL     1       3.751   5.629  19.019  0.00  0.00    +0.000 A 
ATOM     11  N   UNL     1       4.923   6.092  18.462  0.00  0.00    +0.000 NA
ATOM     12  C   UNL     1       5.502   5.467  17.495  0.00  0.00    +0.000 A 
ENDROOT
BRANCH   9  13
ATOM     13  C   UNL     1       1.938   3.883  19.040  0.00  0.00    +0.000 C 
ATOM     14  N   UNL     1       1.487   3.775  20.249  0.00  0.00    +0.000 NA
BRANCH  14  15
ATOM     15  O   UNL     1       0.223   3.163  20.168  0.00  0.00    +0.000 OA
ATOM     16  H   UNL     1      -0.292   3.780  19.618  0.00  0.00    +0.000 HD
ENDBRANCH  14  15
ENDBRANCH   9  13
BRANCH  10  17
ATOM     17  N   UNL     1       3.090   6.407  19.973  0.00  0.00    +0.000 N 
ATOM     18  H   UNL     1       3.175   6.073  20.935  0.00  0.00    +0.000 HD
BRANCH  17  19
ATOM     19  C   UNL     1       2.267   7.538  19.795  0.00  0.00    +0.000 A 
ATOM     20  C   UNL     1       1.486   8.105  20.811  0.00  0.00    +0.000 A 
ATOM     21  C   UNL     1       0.671   9.223  20.587  0.00  0.00    +0.000 A 
ATOM     22  C   UNL     1       0.620   9.814  19.327  0.00  0.00    +0.000 A 
ATOM     23  C   UNL     1       1.346   9.235  18.286  0.00  0.00    +0.000 A 
ATOM     24  C   UNL     1       2.155   8.111  18.519  0.00  0.00    +0.000 A 
BRANCH  22  25
ATOM     25  S   UNL     1      -0.381  11.267  19.084  0.00  0.00    +0.000 S 
BRANCH  25  26
ATOM     26  C   UNL     1       0.675  12.488  19.897  0.00  0.00    +0.000 C 
ATOM     27  F   UNL     1       0.446  12.505  21.235  0.00  0.00    +0.000 F 
ATOM     28  F   UNL     1       1.980  12.146  19.739  0.00  0.00    +0.000 F 
ENDBRANCH  25  26
ENDBRANCH  22  25
ENDBRANCH  17  19
ENDBRANCH  10  17
TORSDOF 6
ENDMDL
MODEL 5
REMARK VINA RESULT:      -7.7      1.378      1.459
REMARK  Name = 
REMARK  7 active torsions:
REMARK  status: ('A' for Active; 'I' for Inactive)
REMARK    1  A    between atoms: C_1  and  C_2
REMARK    2  A    between atoms: C_9  and  C_10
REMARK    3  A    between atoms: N_11  and  O_12
REMARK    4  A    between atoms: C_13  and  N_14
REMARK    5  A    between atoms: N_14  and  C_15
REMARK    6  A    between atoms: C_18  and  S_19
REMARK    7  A    between atoms: S_19  and  C_20
REMARK                            x       y       z     vdW  Elec       q    Type
REMARK                         _______ _______ _______ _____ _____    ______ ____
ROOT
ATOM      1  C   UNL     1       7.142   7.109  17.457  0.00  0.00    +0.000 C 
ATOM      2  C   UNL     1       6.540   5.882  16.848  0.00  0.00    +0.000 A 
ATOM      3  C   UNL     1       7.051   5.271  15.767  0.00  0.00    +0.000 A 
ATOM      4  C   UNL     1       6.456   4.075  15.237  0.00  0.00    +0.000 A 
ATOM      5  C   UNL     1       5.373   3.559  15.823  0.00  0.00    +0.000 A 
ATOM      6  N   UNL     1       4.775   4.169  16.916  0.00  0.00    +0.000 N 
ATOM      7  C   UNL     1       3.663   3.591  17.486  0.00  0.00    +0.000 A 
ATOM      8  O   UNL     1       3.221   2.484  17.167  0.00  0.00    +0.000 OA
ATOM      9  C   UNL     1       2.970   4.375  18.535  0.00  0.00    +0.000 A 
ATOM     10  C   UNL     1       3.543   5.512  19.001  0.00  0.00    +0.000 A 
ATOM     11  N   UNL     1       4.748   5.927  18.478  0.00  0.00    +0.000 NA
ATOM     12  C   UNL     1       5.290   5.326  17.475  0.00  0.00    +0.000 A 
ENDROOT
BRANCH   9  13
ATOM     13  C   UNL     1       1.616   3.896  18.907  0.00  0.00    +0.000 C 
ATOM     14  N   UNL     1       1.327   2.999  19.795  0.00  0.00    +0.000 NA
BRANCH  14  15
ATOM     15  O   UNL     1      -0.069   2.831  19.779  0.00  0.00    +0.000 OA
ATOM     16  H   UNL     1      -0.329   3.187  18.910  0.00  0.00    +0.000 HD
ENDBRANCH  14  15
ENDBRANCH   9  13
BRANCH  10  17
ATOM     17  N   UNL     1       2.931   6.272  20.001  0.00  0.00    +0.000 N 
ATOM     18  H   UNL     1       3.037   5.904  20.947  0.00  0.00    +0.000 HD
BRANCH  17  19
ATOM     19  C   UNL     1       2.129   7.427  19.885  0.00  0.00    +0.000 A 
ATOM     20  C   UNL     1       2.126   8.267  18.764  0.00  0.00    +0.000 A 
ATOM     21  C   UNL     1       1.322   9.413  18.695  0.00  0.00    +0.000 A 
ATOM     22  C   UNL     1       0.485   9.749  19.756  0.00  0.00    +0.000 A 
ATOM     23  C   UNL     1       0.511   8.959  20.905  0.00  0.00    +0.000 A 
ATOM     24  C   UNL     1       1.325   7.815  20.968  0.00  0.00    +0.000 A 
BRANCH  22  25
ATOM     25  S   UNL     1      -0.567  11.179  19.620  0.00  0.00    +0.000 S 
BRANCH  25  26
ATOM     26  C   UNL     1      -0.719  11.599  21.371  0.00  0.00    +0.000 C 
ATOM     27  F   UNL     1       0.042  12.682  21.672  0.00  0.00    +0.000 F 
ATOM     28  F   UNL     1      -2.002  11.947  21.651  0.00  0.00    +0.000 F 
ENDBRANCH  25  26
ENDBRANCH  22  25
ENDBRANCH  17  19
ENDBRANCH  10  17
TORSDOF 6
ENDMDL
MODEL 6
REMARK VINA RESULT:      -7.3      5.347      8.907
REMARK  Name = 
REMARK  7 active torsions:
REMARK  status: ('A' for Active; 'I' for Inactive)
REMARK    1  A    between atoms: C_1  and  C_2
REMARK    2  A    between atoms: C_9  and  C_10
REMARK    3  A    between atoms: N_11  and  O_12
REMARK    4  A    between atoms: C_13  and  N_14
REMARK    5  A    between atoms: N_14  and  C_15
REMARK    6  A    between atoms: C_18  and  S_19
REMARK    7  A    between atoms: S_19  and  C_20
REMARK                            x       y       z     vdW  Elec       q    Type
REMARK                         _______ _______ _______ _____ _____    ______ ____
ROOT
ATOM      1  C   UNL     1      -2.768   9.550  15.620  0.00  0.00    +0.000 C 
ATOM      2  C   UNL     1      -3.388  10.500  16.596  0.00  0.00    +0.000 A 
ATOM      3  C   UNL     1      -4.628  10.995  16.454  0.00  0.00    +0.000 A 
ATOM      4  C   UNL     1      -5.192  11.880  17.436  0.00  0.00    +0.000 A 
ATOM      5  C   UNL     1      -4.475  12.223  18.509  0.00  0.00    +0.000 A 
ATOM      6  N   UNL     1      -3.173  11.777  18.688  0.00  0.00    +0.000 N 
ATOM      7  C   UNL     1      -2.480  12.157  19.815  0.00  0.00    +0.000 A 
ATOM      8  O   UNL     1      -2.982  12.776  20.757  0.00  0.00    +0.000 OA
ATOM      9  C   UNL     1      -1.044  11.795  19.867  0.00  0.00    +0.000 A 
ATOM     10  C   UNL     1      -0.532  10.976  18.915  0.00  0.00    +0.000 A 
ATOM     11  N   UNL     1      -1.351  10.513  17.908  0.00  0.00    +0.000 NA
ATOM     12  C   UNL     1      -2.564  10.929  17.780  0.00  0.00    +0.000 A 
ENDROOT
BRANCH   9  13
ATOM     13  C   UNL     1      -0.246  12.475  20.917  0.00  0.00    +0.000 C 
ATOM     14  N   UNL     1       0.683  13.357  20.734  0.00  0.00    +0.000 NA
BRANCH  14  15
ATOM     15  O   UNL     1       1.196  13.690  22.001  0.00  0.00    +0.000 OA
ATOM     16  H   UNL     1       0.921  14.617  22.119  0.00  0.00    +0.000 HD
ENDBRANCH  14  15
ENDBRANCH   9  13
BRANCH  10  17
ATOM     17  N   UNL     1       0.812  10.597  18.936  0.00  0.00    +0.000 N 
ATOM     18  H   UNL     1       1.475  11.352  18.750  0.00  0.00    +0.000 HD
BRANCH  17  19
ATOM     19  C   UNL     1       1.381   9.317  19.101  0.00  0.00    +0.000 A 
ATOM     20  C   UNL     1       1.299   8.573  20.285  0.00  0.00    +0.000 A 
ATOM     21  C   UNL     1       1.890   7.308  20.412  0.00  0.00    +0.000 A 
ATOM     22  C   UNL     1       2.581   6.746  19.341  0.00  0.00    +0.000 A 
ATOM     23  C   UNL     1       2.722   7.490  18.170  0.00  0.00    +0.000 A 
ATOM     24  C   UNL     1       2.132   8.759  18.055  0.00  0.00    +0.000 A 
BRANCH  22  25
ATOM     25  S   UNL     1       3.274   5.114  19.510  0.00  0.00    +0.000 S 
BRANCH  25  26
ATOM     26  C   UNL     1       1.828   4.133  19.049  0.00  0.00    +0.000 C 
ATOM     27  F   UNL     1       0.842   4.270  19.971  0.00  0.00    +0.000 F 
ATOM     28  F   UNL     1       1.317   4.590  17.876  0.00  0.00    +0.000 F 
ENDBRANCH  25  26
ENDBRANCH  22  25
ENDBRANCH  17  19
ENDBRANCH  10  17
TORSDOF 6
ENDMDL
MODEL 7
REMARK VINA RESULT:      -7.2      1.433      1.523
REMARK  Name = 
REMARK  7 active torsions:
REMARK  status: ('A' for Active; 'I' for Inactive)
REMARK    1  A    between atoms: C_1  and  C_2
REMARK    2  A    between atoms: C_9  and  C_10
REMARK    3  A    between atoms: N_11  and  O_12
REMARK    4  A    between atoms: C_13  and  N_14
REMARK    5  A    between atoms: N_14  and  C_15
REMARK    6  A    between atoms: C_18  and  S_19
REMARK    7  A    between atoms: S_19  and  C_20
REMARK                            x       y       z     vdW  Elec       q    Type
REMARK                         _______ _______ _______ _____ _____    ______ ____
ROOT
ATOM      1  C   UNL     1       4.833   7.627  16.703  0.00  0.00    +0.000 C 
ATOM      2  C   UNL     1       4.795   6.131  16.708  0.00  0.00    +0.000 A 
ATOM      3  C   UNL     1       5.325   5.378  15.731  0.00  0.00    +0.000 A 
ATOM      4  C   UNL     1       5.292   3.943  15.797  0.00  0.00    +0.000 A 
ATOM      5  C   UNL     1       4.722   3.341  16.845  0.00  0.00    +0.000 A 
ATOM      6  N   UNL     1       4.120   4.066  17.862  0.00  0.00    +0.000 N 
ATOM      7  C   UNL     1       3.552   3.395  18.922  0.00  0.00    +0.000 A 
ATOM      8  O   UNL     1       3.647   2.177  19.098  0.00  0.00    +0.000 OA
ATOM      9  C   UNL     1       2.776   4.210  19.886  0.00  0.00    +0.000 A 
ATOM     10  C   UNL     1       2.807   5.562  19.787  0.00  0.00    +0.000 A 
ATOM     11  N   UNL     1       3.542   6.151  18.782  0.00  0.00    +0.000 NA
ATOM     12  C   UNL     1       4.108   5.450  17.861  0.00  0.00    +0.000 A 
ENDROOT
BRANCH   9  13
ATOM     13  C   UNL     1       1.916   3.449  20.826  0.00  0.00    +0.000 C 
ATOM     14  N   UNL     1       2.168   3.189  22.069  0.00  0.00    +0.000 NA
BRANCH  14  15
ATOM     15  O   UNL     1       1.104   2.407  22.555  0.00  0.00    +0.000 OA
ATOM     16  H   UNL     1       0.709   2.968  23.246  0.00  0.00    +0.000 HD
ENDBRANCH  14  15
ENDBRANCH   9  13
BRANCH  10  17
ATOM     17  N   UNL     1       2.103   6.367  20.686  0.00  0.00    +0.000 N 
ATOM     18  H   UNL     1       1.927   5.943  21.598  0.00  0.00    +0.000 HD
BRANCH  17  19
ATOM     19  C   UNL     1       1.538   7.645  20.492  0.00  0.00    +0.000 A 
ATOM     20  C   UNL     1       1.767   8.438  19.360  0.00  0.00    +0.000 A 
ATOM     21  C   UNL     1       1.195   9.709  19.212  0.00  0.00    +0.000 A 
ATOM     22  C   UNL     1       0.363  10.223  20.203  0.00  0.00    +0.000 A 
ATOM     23  C   UNL     1       0.162   9.476  21.364  0.00  0.00    +0.000 A 
ATOM     24  C   UNL     1       0.745   8.206  21.505  0.00  0.00    +0.000 A 
BRANCH  22  25
ATOM     25  S   UNL     1      -0.396  11.817  19.965  0.00  0.00    +0.000 S 
BRANCH  25  26
ATOM     26  C   UNL     1      -1.831  11.314  18.989  0.00  0.00    +0.000 C 
ATOM     27  F   UNL     1      -1.870  11.991  17.812  0.00  0.00    +0.000 F 
ATOM     28  F   UNL     1      -1.731   9.998  18.667  0.00  0.00    +0.000 F 
ENDBRANCH  25  26
ENDBRANCH  22  25
ENDBRANCH  17  19
ENDBRANCH  10  17
TORSDOF 6
ENDMDL
MODEL 8
REMARK VINA RESULT:      -7.1      0.958      1.123
REMARK  Name = 
REMARK  7 active torsions:
REMARK  status: ('A' for Active; 'I' for Inactive)
REMARK    1  A    between atoms: C_1  and  C_2
REMARK    2  A    between atoms: C_9  and  C_10
REMARK    3  A    between atoms: N_11  and  O_12
REMARK    4  A    between atoms: C_13  and  N_14
REMARK    5  A    between atoms: N_14  and  C_15
REMARK    6  A    between atoms: C_18  and  S_19
REMARK    7  A    between atoms: S_19  and  C_20
REMARK                            x       y       z     vdW  Elec       q    Type
REMARK                         _______ _______ _______ _____ _____    ______ ____
ROOT
ATOM      1  C   UNL     1       5.548   7.384  16.063  0.00  0.00    +0.000 C 
ATOM      2  C   UNL     1       5.432   5.892  16.099  0.00  0.00    +0.000 A 
ATOM      3  C   UNL     1       5.914   5.093  15.133  0.00  0.00    +0.000 A 
ATOM      4  C   UNL     1       5.807   3.664  15.228  0.00  0.00    +0.000 A 
ATOM      5  C   UNL     1       5.214   3.113  16.291  0.00  0.00    +0.000 A 
ATOM      6  N   UNL     1       4.659   3.888  17.298  0.00  0.00    +0.000 N 
ATOM      7  C   UNL     1       4.065   3.269  18.375  0.00  0.00    +0.000 A 
ATOM      8  O   UNL     1       4.098   2.052  18.575  0.00  0.00    +0.000 OA
ATOM      9  C   UNL     1       3.341   4.142  19.328  0.00  0.00    +0.000 A 
ATOM     10  C   UNL     1       3.442   5.488  19.202  0.00  0.00    +0.000 A 
ATOM     11  N   UNL     1       4.198   6.019  18.180  0.00  0.00    +0.000 NA
ATOM     12  C   UNL     1       4.720   5.271  17.270  0.00  0.00    +0.000 A 
ENDROOT
BRANCH   9  13
ATOM     13  C   UNL     1       2.450   3.446  20.289  0.00  0.00    +0.000 C 
ATOM     14  N   UNL     1       1.194   3.684  20.495  0.00  0.00    +0.000 NA
BRANCH  14  15
ATOM     15  O   UNL     1       0.769   2.822  21.521  0.00  0.00    +0.000 OA
ATOM     16  H   UNL     1       1.576   2.685  22.050  0.00  0.00    +0.000 HD
ENDBRANCH  14  15
ENDBRANCH   9  13
BRANCH  10  17
ATOM     17  N   UNL     1       2.788   6.347  20.090  0.00  0.00    +0.000 N 
ATOM     18  H   UNL     1       2.786   6.040  21.064  0.00  0.00    +0.000 HD
BRANCH  17  19
ATOM     19  C   UNL     1       2.069   7.532  19.826  0.00  0.00    +0.000 A 
ATOM     20  C   UNL     1       2.080   8.193  18.591  0.00  0.00    +0.000 A 
ATOM     21  C   UNL     1       1.360   9.376  18.374  0.00  0.00    +0.000 A 
ATOM     22  C   UNL     1       0.597   9.932  19.398  0.00  0.00    +0.000 A 
ATOM     23  C   UNL     1       0.613   9.321  20.652  0.00  0.00    +0.000 A 
ATOM     24  C   UNL     1       1.343   8.138  20.862  0.00  0.00    +0.000 A 
BRANCH  22  25
ATOM     25  S   UNL     1      -0.353  11.404  19.080  0.00  0.00    +0.000 S 
BRANCH  25  26
ATOM     26  C   UNL     1      -1.524  10.743  17.874  0.00  0.00    +0.000 C 
ATOM     27  F   UNL     1      -2.106   9.609  18.343  0.00  0.00    +0.000 F 
ATOM     28  F   UNL     1      -2.532  11.632  17.676  0.00  0.00    +0.000 F 
ENDBRANCH  25  26
ENDBRANCH  22  25
ENDBRANCH  17  19
ENDBRANCH  10  17
TORSDOF 6
ENDMDL
MODEL 9
REMARK VINA RESULT:      -7.1      2.020      4.046
REMARK  Name = 
REMARK  7 active torsions:
REMARK  status: ('A' for Active; 'I' for Inactive)
REMARK    1  A    between atoms: C_1  and  C_2
REMARK    2  A    between atoms: C_9  and  C_10
REMARK    3  A    between atoms: N_11  and  O_12
REMARK    4  A    between atoms: C_13  and  N_14
REMARK    5  A    between atoms: N_14  and  C_15
REMARK    6  A    between atoms: C_18  and  S_19
REMARK    7  A    between atoms: S_19  and  C_20
REMARK                            x       y       z     vdW  Elec       q    Type
REMARK                         _______ _______ _______ _____ _____    ______ ____
ROOT
ATOM      1  C   UNL     1       0.635   3.815  20.235  0.00  0.00    +0.000 C 
ATOM      2  C   UNL     1       1.744   3.241  19.410  0.00  0.00    +0.000 A 
ATOM      3  C   UNL     1       1.951   1.922  19.271  0.00  0.00    +0.000 A 
ATOM      4  C   UNL     1       3.010   1.419  18.441  0.00  0.00    +0.000 A 
ATOM      5  C   UNL     1       3.810   2.273  17.796  0.00  0.00    +0.000 A 
ATOM      6  N   UNL     1       3.671   3.647  17.936  0.00  0.00    +0.000 N 
ATOM      7  C   UNL     1       4.518   4.482  17.244  0.00  0.00    +0.000 A 
ATOM      8  O   UNL     1       5.329   4.096  16.398  0.00  0.00    +0.000 OA
ATOM      9  C   UNL     1       4.436   5.927  17.565  0.00  0.00    +0.000 A 
ATOM     10  C   UNL     1       3.439   6.372  18.369  0.00  0.00    +0.000 A 
ATOM     11  N   UNL     1       2.534   5.471  18.888  0.00  0.00    +0.000 NA
ATOM     12  C   UNL     1       2.678   4.201  18.724  0.00  0.00    +0.000 A 
ENDROOT
BRANCH   9  13
ATOM     13  C   UNL     1       5.553   6.763  17.060  0.00  0.00    +0.000 C 
ATOM     14  N   UNL     1       6.737   6.866  17.572  0.00  0.00    +0.000 NA
BRANCH  14  15
ATOM     15  O   UNL     1       7.447   7.800  16.796  0.00  0.00    +0.000 OA
ATOM     16  H   UNL     1       7.399   8.617  17.326  0.00  0.00    +0.000 HD
ENDBRANCH  14  15
ENDBRANCH   9  13
BRANCH  10  17
ATOM     17  N   UNL     1       3.316   7.727  18.683  0.00  0.00    +0.000 N 
ATOM     18  H   UNL     1       4.199   8.211  18.857  0.00  0.00    +0.000 HD
BRANCH  17  19
ATOM     19  C   UNL     1       2.153   8.503  18.868  0.00  0.00    +0.000 A 
ATOM     20  C   UNL     1       1.508   8.663  20.101  0.00  0.00    +0.000 A 
ATOM     21  C   UNL     1       0.346   9.434  20.240  0.00  0.00    +0.000 A 
ATOM     22  C   UNL     1      -0.205  10.078  19.135  0.00  0.00    +0.000 A 
ATOM     23  C   UNL     1       0.388   9.891  17.886  0.00  0.00    +0.000 A 
ATOM     24  C   UNL     1       1.550   9.111  17.757  0.00  0.00    +0.000 A 
BRANCH  22  25
ATOM     25  S   UNL     1      -1.650  11.097  19.348  0.00  0.00    +0.000 S 
BRANCH  25  26
ATOM     26  C   UNL     1      -2.502  10.724  17.799  0.00  0.00    +0.000 C 
ATOM     27  F   UNL     1      -3.845  10.668  17.992  0.00  0.00    +0.000 F 
ATOM     28  F   UNL     1      -2.289  11.724  16.904  0.00  0.00    +0.000 F 
ENDBRANCH  25  26
ENDBRANCH  22  25
ENDBRANCH  17  19
ENDBRANCH  10  17
TORSDOF 6
ENDMDL
