MODEL 1
REMARK VINA RESULT:      -8.2      0.000      0.000
REMARK  Name = 
REMARK  10 active torsions:
REMARK  status: ('A' for Active; 'I' for Inactive)
REMARK    1  A    between atoms: C_1  and  C_2
REMARK    2  A    between atoms: C_2  and  O_3
REMARK    3  A    between atoms: O_3  and  C_4
REMARK    4  A    between atoms: C_4  and  C_6
REMARK    5  A    between atoms: C_7  and  C_8
REMARK    6  A    between atoms: C_10  and  C_11
REMARK    7  A    between atoms: C_15  and  C_16
REMARK    8  A    between atoms: N_19  and  O_20
REMARK    9  A    between atoms: O_20  and  C_21
REMARK   10  A    between atoms: C_21  and  C_22
REMARK                            x       y       z     vdW  Elec       q    Type
REMARK                         _______ _______ _______ _____ _____    ______ ____
ROOT
ATOM      1  C   UNL     1       3.238   4.038  19.949  0.00  0.00    +0.000 A 
ATOM      2  C   UNL     1       2.300   4.167  20.966  0.00  0.00    +0.000 A 
ATOM      3  C   UNL     1       1.771   3.155  21.917  0.00  0.00    +0.000 C 
ATOM      4  N   UNL     1       1.753   5.429  20.979  0.00  0.00    +0.000 NA
ATOM      5  C   UNL     1       2.317   6.093  19.987  0.00  0.00    +0.000 A 
ATOM      6  N   UNL     1       3.237   5.282  19.342  0.00  0.00    +0.000 N 
ENDROOT
BRANCH   5   7
ATOM      7  C   UNL     1       1.950   7.462  19.577  0.00  0.00    +0.000 A 
ATOM      8  C   UNL     1       2.131   7.929  18.266  0.00  0.00    +0.000 A 
ATOM      9  C   UNL     1       1.794   9.238  17.911  0.00  0.00    +0.000 A 
ATOM     10  C   UNL     1       1.277  10.108  18.867  0.00  0.00    +0.000 A 
ATOM     11  C   UNL     1       1.088   9.669  20.182  0.00  0.00    +0.000 A 
ATOM     12  C   UNL     1       1.423   8.351  20.529  0.00  0.00    +0.000 A 
BRANCH  11  13
ATOM     13  C   UNL     1       0.568  10.566  21.167  0.00  0.00    +0.000 C 
ATOM     14  N   UNL     1       0.159  11.288  21.973  0.00  0.00    +0.000 NA
ENDBRANCH  11  13
ENDBRANCH   5   7
BRANCH   1  15
ATOM     15  C   UNL     1       3.999   2.884  19.555  0.00  0.00    +0.000 C 
ATOM     16  O   UNL     1       5.202   2.733  19.690  0.00  0.00    +0.000 OA
BRANCH  15  17
ATOM     17  O   UNL     1       3.174   1.931  19.039  0.00  0.00    +0.000 OA
BRANCH  17  19
ATOM     18  C   UNL     1       0.829   2.169  18.479  0.00  0.00    +0.000 C 
ATOM     19  C   UNL     1       2.260   2.371  18.020  0.00  0.00    +0.000 C 
ENDBRANCH  17  19
ENDBRANCH  15  17
ENDBRANCH   1  15
BRANCH   6  20
ATOM     20  O   UNL     1       3.744   5.629  18.085  0.00  0.00    +0.000 OA
BRANCH  20  21
ATOM     21  C   UNL     1       5.155   5.811  18.045  0.00  0.00    +0.000 C 
BRANCH  21  22
ATOM     22  C   UNL     1       5.647   5.202  16.747  0.00  0.00    +0.000 A 
ATOM     23  C   UNL     1       6.932   5.502  16.249  0.00  0.00    +0.000 A 
ATOM     24  C   UNL     1       7.343   5.050  15.000  0.00  0.00    +0.000 A 
ATOM     25  C   UNL     1       6.482   4.269  14.249  0.00  0.00    +0.000 A 
ATOM     26  F   UNL     1       6.865   3.849  13.036  0.00  0.00    +0.000 F 
ATOM     27  C   UNL     1       5.222   3.924  14.730  0.00  0.00    +0.000 A 
ATOM     28  C   UNL     1       4.802   4.386  15.981  0.00  0.00    +0.000 A 
ENDBRANCH  21  22
ENDBRANCH  20  21
ENDBRANCH   6  20
TORSDOF 8
ENDMDL
MODEL 2
REMARK VINA RESULT:      -8.1      2.760      6.343
REMARK  Name = 
REMARK  10 active torsions:
REMARK  status: ('A' for Active; 'I' for Inactive)
REMARK    1  A    between atoms: C_1  and  C_2
REMARK    2  A    between atoms: C_2  and  O_3
REMARK    3  A    between atoms: O_3  and  C_4
REMARK    4  A    between atoms: C_4  and  C_6
REMARK    5  A    between atoms: C_7  and  C_8
REMARK    6  A    between atoms: C_10  and  C_11
REMARK    7  A    between atoms: C_15  and  C_16
REMARK    8  A    between atoms: N_19  and  O_20
REMARK    9  A    between atoms: O_20  and  C_21
REMARK   10  A    between atoms: C_21  and  C_22
REMARK                            x       y       z     vdW  Elec       q    Type
REMARK                         _______ _______ _______ _____ _____    ______ ____
ROOT
ATOM      1  C   UNL     1       1.176   8.228  20.312  0.00  0.00    +0.000 A 
ATOM      2  C   UNL     1       1.305   8.966  19.141  0.00  0.00    +0.000 A 
ATOM      3  C   UNL     1       0.515  10.121  18.643  0.00  0.00    +0.000 C 
ATOM      4  N   UNL     1       2.275   8.432  18.324  0.00  0.00    +0.000 NA
ATOM      5  C   UNL     1       2.750   7.371  18.948  0.00  0.00    +0.000 A 
ATOM      6  N   UNL     1       2.113   7.220  20.170  0.00  0.00    +0.000 N 
ENDROOT
BRANCH   5   7
ATOM      7  C   UNL     1       3.744   6.440  18.383  0.00  0.00    +0.000 A 
ATOM      8  C   UNL     1       3.470   5.633  17.267  0.00  0.00    +0.000 A 
ATOM      9  C   UNL     1       4.425   4.743  16.766  0.00  0.00    +0.000 A 
ATOM     10  C   UNL     1       5.669   4.637  17.380  0.00  0.00    +0.000 A 
ATOM     11  C   UNL     1       5.968   5.428  18.495  0.00  0.00    +0.000 A 
ATOM     12  C   UNL     1       5.007   6.324  18.988  0.00  0.00    +0.000 A 
BRANCH  11  13
ATOM     13  C   UNL     1       7.242   5.312  19.133  0.00  0.00    +0.000 C 
ATOM     14  N   UNL     1       8.280   5.215  19.635  0.00  0.00    +0.000 NA
ENDBRANCH  11  13
ENDBRANCH   5   7
BRANCH   1  15
ATOM     15  C   UNL     1       0.256   8.408  21.402  0.00  0.00    +0.000 C 
ATOM     16  O   UNL     1      -0.821   7.852  21.536  0.00  0.00    +0.000 OA
BRANCH  15  17
ATOM     17  O   UNL     1       0.778   9.270  22.320  0.00  0.00    +0.000 OA
BRANCH  17  19
ATOM     18  C   UNL     1      -0.757  11.121  22.612  0.00  0.00    +0.000 C 
ATOM     19  C   UNL     1      -0.161   9.870  23.227  0.00  0.00    +0.000 C 
ENDBRANCH  17  19
ENDBRANCH  15  17
ENDBRANCH   1  15
BRANCH   6  20
ATOM     20  O   UNL     1       2.205   6.021  20.885  0.00  0.00    +0.000 OA
BRANCH  20  21
ATOM     21  C   UNL     1       1.254   5.033  20.510  0.00  0.00    +0.000 C 
BRANCH  21  22
ATOM     22  C   UNL     1       2.016   3.917  19.823  0.00  0.00    +0.000 A 
ATOM     23  C   UNL     1       1.502   3.296  18.664  0.00  0.00    +0.000 A 
ATOM     24  C   UNL     1       2.130   2.191  18.102  0.00  0.00    +0.000 A 
ATOM     25  C   UNL     1       3.295   1.713  18.677  0.00  0.00    +0.000 A 
ATOM     26  F   UNL     1       3.892   0.635  18.151  0.00  0.00    +0.000 F 
ATOM     27  C   UNL     1       3.847   2.328  19.797  0.00  0.00    +0.000 A 
ATOM     28  C   UNL     1       3.212   3.433  20.371  0.00  0.00    +0.000 A 
ENDBRANCH  21  22
ENDBRANCH  20  21
ENDBRANCH   6  20
TORSDOF 8
ENDMDL
MODEL 3
REMARK VINA RESULT:      -8.0      2.657      6.460
REMARK  Name = 
REMARK  10 active torsions:
REMARK  status: ('A' for Active; 'I' for Inactive)
REMARK    1  A    between atoms: C_1  and  C_2
REMARK    2  A    between atoms: C_2  and  O_3
REMARK    3  A    between atoms: O_3  and  C_4
REMARK    4  A    between atoms: C_4  and  C_6
REMARK    5  A    between atoms: C_7  and  C_8
REMARK    6  A    between atoms: C_10  and  C_11
REMARK    7  A    between atoms: C_15  and  C_16
REMARK    8  A    between atoms: N_19  and  O_20
REMARK    9  A    between atoms: O_20  and  C_21
REMARK   10  A    between atoms: C_21  and  C_22
REMARK                            x       y       z     vdW  Elec       q    Type
REMARK                         _______ _______ _______ _____ _____    ______ ____
ROOT
ATOM      1  C   UNL     1       1.407   8.164  20.106  0.00  0.00    +0.000 A 
ATOM      2  C   UNL     1       1.646   8.835  18.913  0.00  0.00    +0.000 A 
ATOM      3  C   UNL     1       0.938   9.988  18.301  0.00  0.00    +0.000 C 
ATOM      4  N   UNL     1       2.653   8.228  18.198  0.00  0.00    +0.000 NA
ATOM      5  C   UNL     1       3.043   7.186  18.908  0.00  0.00    +0.000 A 
ATOM      6  N   UNL     1       2.314   7.120  20.085  0.00  0.00    +0.000 N 
ENDROOT
BRANCH   5   7
ATOM      7  C   UNL     1       4.041   6.194  18.464  0.00  0.00    +0.000 A 
ATOM      8  C   UNL     1       4.940   5.583  19.351  0.00  0.00    +0.000 A 
ATOM      9  C   UNL     1       5.890   4.662  18.899  0.00  0.00    +0.000 A 
ATOM     10  C   UNL     1       5.963   4.343  17.546  0.00  0.00    +0.000 A 
ATOM     11  C   UNL     1       5.079   4.940  16.640  0.00  0.00    +0.000 A 
ATOM     12  C   UNL     1       4.124   5.858  17.102  0.00  0.00    +0.000 A 
BRANCH  11  13
ATOM     13  C   UNL     1       5.161   4.622  15.248  0.00  0.00    +0.000 C 
ATOM     14  N   UNL     1       5.233   4.350  14.126  0.00  0.00    +0.000 NA
ENDBRANCH  11  13
ENDBRANCH   5   7
BRANCH   1  15
ATOM     15  C   UNL     1       0.418   8.430  21.115  0.00  0.00    +0.000 C 
ATOM     16  O   UNL     1      -0.605   7.794  21.308  0.00  0.00    +0.000 OA
BRANCH  15  17
ATOM     17  O   UNL     1       0.802   9.489  21.882  0.00  0.00    +0.000 OA
BRANCH  17  19
ATOM     18  C   UNL     1      -0.707  11.311  21.359  0.00  0.00    +0.000 C 
ATOM     19  C   UNL     1      -0.258  10.308  22.404  0.00  0.00    +0.000 C 
ENDBRANCH  17  19
ENDBRANCH  15  17
ENDBRANCH   1  15
BRANCH   6  20
ATOM     20  O   UNL     1       2.310   5.957  20.863  0.00  0.00    +0.000 OA
BRANCH  20  21
ATOM     21  C   UNL     1       1.267   5.041  20.555  0.00  0.00    +0.000 C 
BRANCH  21  22
ATOM     22  C   UNL     1       1.903   3.865  19.840  0.00  0.00    +0.000 A 
ATOM     23  C   UNL     1       2.882   3.074  20.478  0.00  0.00    +0.000 A 
ATOM     24  C   UNL     1       3.560   2.074  19.789  0.00  0.00    +0.000 A 
ATOM     25  C   UNL     1       3.244   1.838  18.463  0.00  0.00    +0.000 A 
ATOM     26  F   UNL     1       3.910   0.890  17.789  0.00  0.00    +0.000 F 
ATOM     27  C   UNL     1       2.256   2.575  17.817  0.00  0.00    +0.000 A 
ATOM     28  C   UNL     1       1.580   3.588  18.504  0.00  0.00    +0.000 A 
ENDBRANCH  21  22
ENDBRANCH  20  21
ENDBRANCH   6  20
TORSDOF 8
ENDMDL
MODEL 4
REMARK VINA RESULT:      -8.0      0.536      1.058
REMARK  Name = 
REMARK  10 active torsions:
REMARK  status: ('A' for Active; 'I' for Inactive)
REMARK    1  A    between atoms: C_1  and  C_2
REMARK    2  A    between atoms: C_2  and  O_3
REMARK    3  A    between atoms: O_3  and  C_4
REMARK    4  A    between atoms: C_4  and  C_6
REMARK    5  A    between atoms: C_7  and  C_8
REMARK    6  A    between atoms: C_10  and  C_11
REMARK    7  A    between atoms: C_15  and  C_16
REMARK    8  A    between atoms: N_19  and  O_20
REMARK    9  A    between atoms: O_20  and  C_21
REMARK   10  A    between atoms: C_21  and  C_22
REMARK                            x       y       z     vdW  Elec       q    Type
REMARK                         _______ _______ _______ _____ _____    ______ ____
ROOT
ATOM      1  C   UNL     1       3.422   3.851  19.998  0.00  0.00    +0.000 A 
ATOM      2  C   UNL     1       2.407   3.902  20.946  0.00  0.00    +0.000 A 
ATOM      3  C   UNL     1       1.849   2.832  21.813  0.00  0.00    +0.000 C 
ATOM      4  N   UNL     1       1.814   5.143  20.970  0.00  0.00    +0.000 NA
ATOM      5  C   UNL     1       2.424   5.869  20.051  0.00  0.00    +0.000 A 
ATOM      6  N   UNL     1       3.419   5.118  19.445  0.00  0.00    +0.000 N 
ENDROOT
BRANCH   5   7
ATOM      7  C   UNL     1       2.036   7.240  19.671  0.00  0.00    +0.000 A 
ATOM      8  C   UNL     1       2.224   7.743  18.375  0.00  0.00    +0.000 A 
ATOM      9  C   UNL     1       1.866   9.055  18.049  0.00  0.00    +0.000 A 
ATOM     10  C   UNL     1       1.323   9.891  19.020  0.00  0.00    +0.000 A 
ATOM     11  C   UNL     1       1.127   9.415  20.321  0.00  0.00    +0.000 A 
ATOM     12  C   UNL     1       1.482   8.095  20.639  0.00  0.00    +0.000 A 
BRANCH  11  13
ATOM     13  C   UNL     1       0.579  10.277  21.322  0.00  0.00    +0.000 C 
ATOM     14  N   UNL     1       0.149  10.974  22.139  0.00  0.00    +0.000 NA
ENDBRANCH  11  13
ENDBRANCH   5   7
BRANCH   1  15
ATOM     15  C   UNL     1       4.253   2.742  19.616  0.00  0.00    +0.000 C 
ATOM     16  O   UNL     1       5.052   2.159  20.329  0.00  0.00    +0.000 OA
BRANCH  15  17
ATOM     17  O   UNL     1       3.993   2.382  18.327  0.00  0.00    +0.000 OA
BRANCH  17  19
ATOM     18  C   UNL     1       1.960   2.988  17.158  0.00  0.00    +0.000 C 
ATOM     19  C   UNL     1       2.646   1.969  18.046  0.00  0.00    +0.000 C 
ENDBRANCH  17  19
ENDBRANCH  15  17
ENDBRANCH   1  15
BRANCH   6  20
ATOM     20  O   UNL     1       4.003   5.537  18.244  0.00  0.00    +0.000 OA
BRANCH  20  21
ATOM     21  C   UNL     1       5.422   5.434  18.209  0.00  0.00    +0.000 C 
BRANCH  21  22
ATOM     22  C   UNL     1       5.815   5.178  16.767  0.00  0.00    +0.000 A 
ATOM     23  C   UNL     1       4.898   4.609  15.858  0.00  0.00    +0.000 A 
ATOM     24  C   UNL     1       5.287   4.254  14.571  0.00  0.00    +0.000 A 
ATOM     25  C   UNL     1       6.591   4.492  14.172  0.00  0.00    +0.000 A 
ATOM     26  F   UNL     1       6.977   4.132  12.941  0.00  0.00    +0.000 F 
ATOM     27  C   UNL     1       7.508   5.087  15.034  0.00  0.00    +0.000 A 
ATOM     28  C   UNL     1       7.122   5.435  16.332  0.00  0.00    +0.000 A 
ENDBRANCH  21  22
ENDBRANCH  20  21
ENDBRANCH   6  20
TORSDOF 8
ENDMDL
MODEL 5
REMARK VINA RESULT:      -7.9      1.829      2.269
REMARK  Name = 
REMARK  10 active torsions:
REMARK  status: ('A' for Active; 'I' for Inactive)
REMARK    1  A    between atoms: C_1  and  C_2
REMARK    2  A    between atoms: C_2  and  O_3
REMARK    3  A    between atoms: O_3  and  C_4
REMARK    4  A    between atoms: C_4  and  C_6
REMARK    5  A    between atoms: C_7  and  C_8
REMARK    6  A    between atoms: C_10  and  C_11
REMARK    7  A    between atoms: C_15  and  C_16
REMARK    8  A    between atoms: N_19  and  O_20
REMARK    9  A    between atoms: O_20  and  C_21
REMARK   10  A    between atoms: C_21  and  C_22
REMARK                            x       y       z     vdW  Elec       q    Type
REMARK                         _______ _______ _______ _____ _____    ______ ____
ROOT
ATOM      1  C   UNL     1       3.243   3.909  19.740  0.00  0.00    +0.000 A 
ATOM      2  C   UNL     1       2.542   4.176  20.910  0.00  0.00    +0.000 A 
ATOM      3  C   UNL     1       2.158   3.273  22.026  0.00  0.00    +0.000 C 
ATOM      4  N   UNL     1       2.087   5.474  20.930  0.00  0.00    +0.000 NA
ATOM      5  C   UNL     1       2.476   6.026  19.796  0.00  0.00    +0.000 A 
ATOM      6  N   UNL     1       3.194   5.106  19.048  0.00  0.00    +0.000 N 
ENDROOT
BRANCH   5   7
ATOM      7  C   UNL     1       2.117   7.388  19.358  0.00  0.00    +0.000 A 
ATOM      8  C   UNL     1       2.452   7.884  18.089  0.00  0.00    +0.000 A 
ATOM      9  C   UNL     1       2.118   9.187  17.709  0.00  0.00    +0.000 A 
ATOM     10  C   UNL     1       1.448  10.022  18.600  0.00  0.00    +0.000 A 
ATOM     11  C   UNL     1       1.103   9.553  19.872  0.00  0.00    +0.000 A 
ATOM     12  C   UNL     1       1.437   8.242  20.244  0.00  0.00    +0.000 A 
BRANCH  11  13
ATOM     13  C   UNL     1       0.425  10.414  20.791  0.00  0.00    +0.000 C 
ATOM     14  N   UNL     1      -0.118  11.103  21.546  0.00  0.00    +0.000 NA
ENDBRANCH  11  13
ENDBRANCH   5   7
BRANCH   1  15
ATOM     15  C   UNL     1       3.836   2.677  19.297  0.00  0.00    +0.000 C 
ATOM     16  O   UNL     1       4.876   2.188  19.706  0.00  0.00    +0.000 OA
BRANCH  15  17
ATOM     17  O   UNL     1       3.040   2.081  18.365  0.00  0.00    +0.000 OA
BRANCH  17  19
ATOM     18  C   UNL     1       0.645   2.370  18.586  0.00  0.00    +0.000 C 
ATOM     19  C   UNL     1       1.835   1.472  18.860  0.00  0.00    +0.000 C 
ENDBRANCH  17  19
ENDBRANCH  15  17
ENDBRANCH   1  15
BRANCH   6  20
ATOM     20  O   UNL     1       3.453   5.329  17.691  0.00  0.00    +0.000 OA
BRANCH  20  21
ATOM     21  C   UNL     1       4.610   4.668  17.193  0.00  0.00    +0.000 C 
BRANCH  21  22
ATOM     22  C   UNL     1       5.805   5.530  17.549  0.00  0.00    +0.000 A 
ATOM     23  C   UNL     1       6.739   5.108  18.519  0.00  0.00    +0.000 A 
ATOM     24  C   UNL     1       7.765   5.945  18.942  0.00  0.00    +0.000 A 
ATOM     25  C   UNL     1       7.884   7.203  18.378  0.00  0.00    +0.000 A 
ATOM     26  F   UNL     1       8.858   8.021  18.797  0.00  0.00    +0.000 F 
ATOM     27  C   UNL     1       7.002   7.633  17.391  0.00  0.00    +0.000 A 
ATOM     28  C   UNL     1       5.963   6.798  16.971  0.00  0.00    +0.000 A 
ENDBRANCH  21  22
ENDBRANCH  20  21
ENDBRANCH   6  20
TORSDOF 8
ENDMDL
MODEL 6
REMARK VINA RESULT:      -7.8      2.842      5.442
REMARK  Name = 
REMARK  10 active torsions:
REMARK  status: ('A' for Active; 'I' for Inactive)
REMARK    1  A    between atoms: C_1  and  C_2
REMARK    2  A    between atoms: C_2  and  O_3
REMARK    3  A    between atoms: O_3  and  C_4
REMARK    4  A    between atoms: C_4  and  C_6
REMARK    5  A    between atoms: C_7  and  C_8
REMARK    6  A    between atoms: C_10  and  C_11
REMARK    7  A    between atoms: C_15  and  C_16
REMARK    8  A    between atoms: N_19  and  O_20
REMARK    9  A    between atoms: O_20  and  C_21
REMARK   10  A    between atoms: C_21  and  C_22
REMARK                            x       y       z     vdW  Elec       q    Type
REMARK                         _______ _______ _______ _____ _____    ______ ____
ROOT
ATOM      1  C   UNL     1       5.289   5.183  16.352  0.00  0.00    +0.000 A 
ATOM      2  C   UNL     1       6.092   6.200  16.852  0.00  0.00    +0.000 A 
ATOM      3  C   UNL     1       7.540   6.465  16.654  0.00  0.00    +0.000 C 
ATOM      4  N   UNL     1       5.393   6.997  17.729  0.00  0.00    +0.000 NA
ATOM      5  C   UNL     1       4.173   6.498  17.800  0.00  0.00    +0.000 A 
ATOM      6  N   UNL     1       4.067   5.396  16.965  0.00  0.00    +0.000 N 
ENDROOT
BRANCH   5   7
ATOM      7  C   UNL     1       3.116   6.989  18.704  0.00  0.00    +0.000 A 
ATOM      8  C   UNL     1       2.735   6.296  19.863  0.00  0.00    +0.000 A 
ATOM      9  C   UNL     1       1.715   6.774  20.691  0.00  0.00    +0.000 A 
ATOM     10  C   UNL     1       1.049   7.952  20.366  0.00  0.00    +0.000 A 
ATOM     11  C   UNL     1       1.407   8.662  19.214  0.00  0.00    +0.000 A 
ATOM     12  C   UNL     1       2.437   8.179  18.392  0.00  0.00    +0.000 A 
BRANCH  11  13
ATOM     13  C   UNL     1       0.716   9.867  18.874  0.00  0.00    +0.000 C 
ATOM     14  N   UNL     1       0.156  10.845  18.614  0.00  0.00    +0.000 NA
ENDBRANCH  11  13
ENDBRANCH   5   7
BRANCH   1  15
ATOM     15  C   UNL     1       5.632   4.111  15.458  0.00  0.00    +0.000 C 
ATOM     16  O   UNL     1       6.043   3.008  15.777  0.00  0.00    +0.000 OA
BRANCH  15  17
ATOM     17  O   UNL     1       5.387   4.478  14.168  0.00  0.00    +0.000 OA
BRANCH  17  19
ATOM     18  C   UNL     1       5.629   3.177  12.139  0.00  0.00    +0.000 C 
ATOM     19  C   UNL     1       6.332   4.014  13.190  0.00  0.00    +0.000 C 
ENDBRANCH  17  19
ENDBRANCH  15  17
ENDBRANCH   1  15
BRANCH   6  20
ATOM     20  O   UNL     1       2.992   4.508  17.080  0.00  0.00    +0.000 OA
BRANCH  20  21
ATOM     21  C   UNL     1       3.349   3.199  17.507  0.00  0.00    +0.000 C 
BRANCH  21  22
ATOM     22  C   UNL     1       2.666   2.962  18.840  0.00  0.00    +0.000 A 
ATOM     23  C   UNL     1       1.266   3.084  18.966  0.00  0.00    +0.000 A 
ATOM     24  C   UNL     1       0.645   2.993  20.207  0.00  0.00    +0.000 A 
ATOM     25  C   UNL     1       1.417   2.750  21.330  0.00  0.00    +0.000 A 
ATOM     26  F   UNL     1       0.826   2.683  22.530  0.00  0.00    +0.000 F 
ATOM     27  C   UNL     1       2.796   2.586  21.231  0.00  0.00    +0.000 A 
ATOM     28  C   UNL     1       3.424   2.688  19.987  0.00  0.00    +0.000 A 
ENDBRANCH  21  22
ENDBRANCH  20  21
ENDBRANCH   6  20
TORSDOF 8
ENDMDL
MODEL 7
REMARK VINA RESULT:      -7.7      2.745      6.501
REMARK  Name = 
REMARK  10 active torsions:
REMARK  status: ('A' for Active; 'I' for Inactive)
REMARK    1  A    between atoms: C_1  and  C_2
REMARK    2  A    between atoms: C_2  and  O_3
REMARK    3  A    between atoms: O_3  and  C_4
REMARK    4  A    between atoms: C_4  and  C_6
REMARK    5  A    between atoms: C_7  and  C_8
REMARK    6  A    between atoms: C_10  and  C_11
REMARK    7  A    between atoms: C_15  and  C_16
REMARK    8  A    between atoms: N_19  and  O_20
REMARK    9  A    between atoms: O_20  and  C_21
REMARK   10  A    between atoms: C_21  and  C_22
REMARK                            x       y       z     vdW  Elec       q    Type
REMARK                         _______ _______ _______ _____ _____    ______ ____
ROOT
ATOM      1  C   UNL     1       1.549   8.431  19.983  0.00  0.00    +0.000 A 
ATOM      2  C   UNL     1       1.504   8.964  18.700  0.00  0.00    +0.000 A 
ATOM      3  C   UNL     1       0.729  10.112  18.164  0.00  0.00    +0.000 C 
ATOM      4  N   UNL     1       2.248   8.207  17.824  0.00  0.00    +0.000 NA
ATOM      5  C   UNL     1       2.749   7.206  18.524  0.00  0.00    +0.000 A 
ATOM      6  N   UNL     1       2.354   7.314  19.848  0.00  0.00    +0.000 N 
ENDROOT
BRANCH   5   7
ATOM      7  C   UNL     1       3.533   6.094  17.954  0.00  0.00    +0.000 A 
ATOM      8  C   UNL     1       2.966   5.128  17.109  0.00  0.00    +0.000 A 
ATOM      9  C   UNL     1       3.728   4.072  16.601  0.00  0.00    +0.000 A 
ATOM     10  C   UNL     1       5.074   3.958  16.940  0.00  0.00    +0.000 A 
ATOM     11  C   UNL     1       5.664   4.906  17.784  0.00  0.00    +0.000 A 
ATOM     12  C   UNL     1       4.893   5.967  18.284  0.00  0.00    +0.000 A 
BRANCH  11  13
ATOM     13  C   UNL     1       7.043   4.784  18.141  0.00  0.00    +0.000 C 
ATOM     14  N   UNL     1       8.155   4.675  18.441  0.00  0.00    +0.000 NA
ENDBRANCH  11  13
ENDBRANCH   5   7
BRANCH   1  15
ATOM     15  C   UNL     1       0.879   8.875  21.175  0.00  0.00    +0.000 C 
ATOM     16  O   UNL     1       1.299   8.784  22.316  0.00  0.00    +0.000 OA
BRANCH  15  17
ATOM     17  O   UNL     1      -0.304   9.473  20.854  0.00  0.00    +0.000 OA
BRANCH  17  19
ATOM     18  C   UNL     1      -1.059  11.774  20.812  0.00  0.00    +0.000 C 
ATOM     19  C   UNL     1      -0.694  10.584  21.678  0.00  0.00    +0.000 C 
ENDBRANCH  17  19
ENDBRANCH  15  17
ENDBRANCH   1  15
BRANCH   6  20
ATOM     20  O   UNL     1       2.487   6.235  20.728  0.00  0.00    +0.000 OA
BRANCH  20  21
ATOM     21  C   UNL     1       1.400   5.317  20.708  0.00  0.00    +0.000 C 
BRANCH  21  22
ATOM     22  C   UNL     1       1.943   3.992  20.210  0.00  0.00    +0.000 A 
ATOM     23  C   UNL     1       3.258   3.586  20.525  0.00  0.00    +0.000 A 
ATOM     24  C   UNL     1       3.807   2.435  19.970  0.00  0.00    +0.000 A 
ATOM     25  C   UNL     1       3.036   1.664  19.118  0.00  0.00    +0.000 A 
ATOM     26  F   UNL     1       3.567   0.566  18.565  0.00  0.00    +0.000 F 
ATOM     27  C   UNL     1       1.723   2.018  18.820  0.00  0.00    +0.000 A 
ATOM     28  C   UNL     1       1.172   3.180  19.367  0.00  0.00    +0.000 A 
ENDBRANCH  21  22
ENDBRANCH  20  21
ENDBRANCH   6  20
TORSDOF 8
ENDMDL
MODEL 8
REMARK VINA RESULT:      -7.7      2.407      5.731
REMARK  Name = 
REMARK  10 active torsions:
REMARK  status: ('A' for Active; 'I' for Inactive)
REMARK    1  A    between atoms: C_1  and  C_2
REMARK    2  A    between atoms: C_2  and  O_3
REMARK    3  A    between atoms: O_3  and  C_4
REMARK    4  A    between atoms: C_4  and  C_6
REMARK    5  A    between atoms: C_7  and  C_8
REMARK    6  A    between atoms: C_10  and  C_11
REMARK    7  A    between atoms: C_15  and  C_16
REMARK    8  A    between atoms: N_19  and  O_20
REMARK    9  A    between atoms: O_20  and  C_21
REMARK   10  A    between atoms: C_21  and  C_22
REMARK                            x       y       z     vdW  Elec       q    Type
REMARK                         _______ _______ _______ _____ _____    ______ ____
ROOT
ATOM      1  C   UNL     1       1.867   8.097  18.949  0.00  0.00    +0.000 A 
ATOM      2  C   UNL     1       1.649   7.698  20.262  0.00  0.00    +0.000 A 
ATOM      3  C   UNL     1       1.316   8.501  21.466  0.00  0.00    +0.000 C 
ATOM      4  N   UNL     1       1.881   6.350  20.415  0.00  0.00    +0.000 NA
ATOM      5  C   UNL     1       2.250   5.895  19.232  0.00  0.00    +0.000 A 
ATOM      6  N   UNL     1       2.244   6.929  18.309  0.00  0.00    +0.000 N 
ENDROOT
BRANCH   5   7
ATOM      7  C   UNL     1       2.692   4.514  18.964  0.00  0.00    +0.000 A 
ATOM      8  C   UNL     1       2.280   3.799  17.829  0.00  0.00    +0.000 A 
ATOM      9  C   UNL     1       2.697   2.482  17.612  0.00  0.00    +0.000 A 
ATOM     10  C   UNL     1       3.528   1.853  18.535  0.00  0.00    +0.000 A 
ATOM     11  C   UNL     1       3.951   2.543  19.677  0.00  0.00    +0.000 A 
ATOM     12  C   UNL     1       3.534   3.866  19.885  0.00  0.00    +0.000 A 
BRANCH  11  13
ATOM     13  C   UNL     1       4.795   1.893  20.631  0.00  0.00    +0.000 C 
ATOM     14  N   UNL     1       5.466   1.366  21.412  0.00  0.00    +0.000 NA
ENDBRANCH  11  13
ENDBRANCH   5   7
BRANCH   1  15
ATOM     15  C   UNL     1       1.790   9.412  18.374  0.00  0.00    +0.000 C 
ATOM     16  O   UNL     1       2.672  10.254  18.379  0.00  0.00    +0.000 OA
BRANCH  15  17
ATOM     17  O   UNL     1       0.585   9.588  17.763  0.00  0.00    +0.000 OA
BRANCH  17  19
ATOM     18  C   UNL     1      -1.675  10.459  17.705  0.00  0.00    +0.000 C 
ATOM     19  C   UNL     1      -0.424  10.258  18.537  0.00  0.00    +0.000 C 
ENDBRANCH  17  19
ENDBRANCH  15  17
ENDBRANCH   1  15
BRANCH   6  20
ATOM     20  O   UNL     1       2.880   6.791  17.071  0.00  0.00    +0.000 OA
BRANCH  20  21
ATOM     21  C   UNL     1       4.125   7.472  16.965  0.00  0.00    +0.000 C 
BRANCH  21  22
ATOM     22  C   UNL     1       5.217   6.444  17.192  0.00  0.00    +0.000 A 
ATOM     23  C   UNL     1       5.868   6.345  18.440  0.00  0.00    +0.000 A 
ATOM     24  C   UNL     1       6.954   5.495  18.619  0.00  0.00    +0.000 A 
ATOM     25  C   UNL     1       7.380   4.714  17.559  0.00  0.00    +0.000 A 
ATOM     26  F   UNL     1       8.438   3.910  17.720  0.00  0.00    +0.000 F 
ATOM     27  C   UNL     1       6.732   4.761  16.327  0.00  0.00    +0.000 A 
ATOM     28  C   UNL     1       5.648   5.623  16.141  0.00  0.00    +0.000 A 
ENDBRANCH  21  22
ENDBRANCH  20  21
ENDBRANCH   6  20
TORSDOF 8
ENDMDL
MODEL 9
REMARK VINA RESULT:      -7.7      2.105      5.681
REMARK  Name = 
REMARK  10 active torsions:
REMARK  status: ('A' for Active; 'I' for Inactive)
REMARK    1  A    between atoms: C_1  and  C_2
REMARK    2  A    between atoms: C_2  and  O_3
REMARK    3  A    between atoms: O_3  and  C_4
REMARK    4  A    between atoms: C_4  and  C_6
REMARK    5  A    between atoms: C_7  and  C_8
REMARK    6  A    between atoms: C_10  and  C_11
REMARK    7  A    between atoms: C_15  and  C_16
REMARK    8  A    between atoms: N_19  and  O_20
REMARK    9  A    between atoms: O_20  and  C_21
REMARK   10  A    between atoms: C_21  and  C_22
REMARK                            x       y       z     vdW  Elec       q    Type
REMARK                         _______ _______ _______ _____ _____    ______ ____
ROOT
ATOM      1  C   UNL     1       1.833   8.047  19.245  0.00  0.00    +0.000 A 
ATOM      2  C   UNL     1       1.483   7.610  20.517  0.00  0.00    +0.000 A 
ATOM      3  C   UNL     1       1.087   8.382  21.722  0.00  0.00    +0.000 C 
ATOM      4  N   UNL     1       1.634   6.247  20.630  0.00  0.00    +0.000 NA
ATOM      5  C   UNL     1       2.082   5.820  19.464  0.00  0.00    +0.000 A 
ATOM      6  N   UNL     1       2.205   6.888  18.589  0.00  0.00    +0.000 N 
ENDROOT
BRANCH   5   7
ATOM      7  C   UNL     1       2.476   4.428  19.175  0.00  0.00    +0.000 A 
ATOM      8  C   UNL     1       1.929   3.697  18.109  0.00  0.00    +0.000 A 
ATOM      9  C   UNL     1       2.305   2.372  17.872  0.00  0.00    +0.000 A 
ATOM     10  C   UNL     1       3.232   1.751  18.705  0.00  0.00    +0.000 A 
ATOM     11  C   UNL     1       3.792   2.457  19.776  0.00  0.00    +0.000 A 
ATOM     12  C   UNL     1       3.413   3.789  20.004  0.00  0.00    +0.000 A 
BRANCH  11  13
ATOM     13  C   UNL     1       4.735   1.816  20.638  0.00  0.00    +0.000 C 
ATOM     14  N   UNL     1       5.487   1.289  21.342  0.00  0.00    +0.000 NA
ENDBRANCH  11  13
ENDBRANCH   5   7
BRANCH   1  15
ATOM     15  C   UNL     1       1.869   9.386  18.723  0.00  0.00    +0.000 C 
ATOM     16  O   UNL     1       2.718   9.848  17.979  0.00  0.00    +0.000 OA
BRANCH  15  17
ATOM     17  O   UNL     1       0.776  10.084  19.141  0.00  0.00    +0.000 OA
BRANCH  17  19
ATOM     18  C   UNL     1       0.077  11.864  20.629  0.00  0.00    +0.000 C 
ATOM     19  C   UNL     1       1.001  11.458  19.497  0.00  0.00    +0.000 C 
ENDBRANCH  17  19
ENDBRANCH  15  17
ENDBRANCH   1  15
BRANCH   6  20
ATOM     20  O   UNL     1       2.938   6.764  17.403  0.00  0.00    +0.000 OA
BRANCH  20  21
ATOM     21  C   UNL     1       4.346   6.889  17.562  0.00  0.00    +0.000 C 
BRANCH  21  22
ATOM     22  C   UNL     1       4.992   5.911  16.600  0.00  0.00    +0.000 A 
ATOM     23  C   UNL     1       5.282   6.289  15.272  0.00  0.00    +0.000 A 
ATOM     24  C   UNL     1       5.757   5.364  14.348  0.00  0.00    +0.000 A 
ATOM     25  C   UNL     1       5.973   4.059  14.753  0.00  0.00    +0.000 A 
ATOM     26  F   UNL     1       6.409   3.159  13.862  0.00  0.00    +0.000 F 
ATOM     27  C   UNL     1       5.733   3.665  16.066  0.00  0.00    +0.000 A 
ATOM     28  C   UNL     1       5.245   4.590  16.994  0.00  0.00    +0.000 A 
ENDBRANCH  21  22
ENDBRANCH  20  21
ENDBRANCH   6  20
TORSDOF 8
ENDMDL
