MODEL 1
REMARK VINA RESULT:      -8.0      0.000      0.000
REMARK  Name = 
REMARK  5 active torsions:
REMARK  status: ('A' for Active; 'I' for Inactive)
REMARK    1  A    between atoms: C_2  and  C_8
REMARK    2  A    between atoms: N_3  and  C_4
REMARK    3  A    between atoms: C_10  and  N_11
REMARK    4  A    between atoms: C_16  and  N_17
REMARK    5  A    between atoms: N_17  and  C_18
REMARK                            x       y       z     vdW  Elec       q    Type
REMARK                         _______ _______ _______ _____ _____    ______ ____
ROOT
ATOM      1  N   UNL     1      -0.007  10.910  19.909  0.00  0.00    +0.000 N 
ATOM      2  N   UNL     1       0.205  11.397  18.650  0.00  0.00    +0.000 NA
ATOM      3  C   UNL     1       0.999  10.495  18.068  0.00  0.00    +0.000 A 
ATOM      4  C   UNL     1       1.306   9.408  18.903  0.00  0.00    +0.000 A 
ATOM      5  C   UNL     1       2.049   8.214  18.820  0.00  0.00    +0.000 A 
ATOM      6  C   UNL     1       2.063   7.365  19.930  0.00  0.00    +0.000 A 
ATOM      7  C   UNL     1       1.337   7.775  21.056  0.00  0.00    +0.000 A 
ATOM      8  N   UNL     1       0.627   8.917  21.197  0.00  0.00    +0.000 NA
ATOM      9  C   UNL     1       0.647   9.696  20.094  0.00  0.00    +0.000 A 
ENDROOT
BRANCH   1  12
ATOM     10  C   UNL     1      -2.783  12.639  21.634  0.00  0.00    +0.000 A 
ATOM     11  C   UNL     1      -2.152  12.050  20.555  0.00  0.00    +0.000 A 
ATOM     12  C   UNL     1      -0.831  11.601  20.860  0.00  0.00    +0.000 A 
ATOM     13  C   UNL     1      -0.489  11.904  22.162  0.00  0.00    +0.000 A 
ATOM     14  S   UNL     1      -1.749  12.713  22.994  0.00  0.00    +0.000 S 
BRANCH  10  16
ATOM     15  O   UNL     1      -4.609  13.854  20.781  0.00  0.00    +0.000 OA
ATOM     16  C   UNL     1      -4.156  13.125  21.654  0.00  0.00    +0.000 C 
ATOM     17  N   UNL     1      -4.957  12.712  22.710  0.00  0.00    +0.000 N 
ATOM     18  H   UNL     1      -4.523  12.137  23.422  0.00  0.00    +0.000 HD
BRANCH  17  19
ATOM     19  C   UNL     1      -6.368  13.126  22.784  0.00  0.00    +0.000 C 
ATOM     20  C   UNL     1      -7.220  12.397  23.838  0.00  0.00    +0.000 C 
ATOM     21  O   UNL     1      -7.769  13.664  24.298  0.00  0.00    +0.000 OA
ATOM     22  C   UNL     1      -6.680  14.363  23.635  0.00  0.00    +0.000 C 
ENDBRANCH  17  19
ENDBRANCH  10  16
ENDBRANCH   1  12
BRANCH   6  23
ATOM     23  N   UNL     1       2.852   6.200  19.927  0.00  0.00    +0.000 N 
ATOM     24  H   UNL     1       3.841   6.305  20.122  0.00  0.00    +0.000 HD
BRANCH  23  25
ATOM     25  C   UNL     1       2.438   4.888  19.608  0.00  0.00    +0.000 A 
ATOM     26  C   UNL     1       1.598   4.205  20.504  0.00  0.00    +0.000 A 
ATOM     27  C   UNL     1       1.071   2.954  20.194  0.00  0.00    +0.000 A 
ATOM     28  C   UNL     1       1.373   2.360  18.974  0.00  0.00    +0.000 A 
ATOM     29  C   UNL     1       2.223   3.008  18.075  0.00  0.00    +0.000 A 
ATOM     30  C   UNL     1       2.760   4.262  18.393  0.00  0.00    +0.000 A 
ATOM     31 CL   UNL     1       3.779   5.033  17.230  0.00  0.00    +0.000 Cl
ENDBRANCH  23  25
ENDBRANCH   6  23
TORSDOF 5
ENDMDL
MODEL 2
REMARK VINA RESULT:      -8.0      2.828      3.665
REMARK  Name = 
REMARK  5 active torsions:
REMARK  status: ('A' for Active; 'I' for Inactive)
REMARK    1  A    between atoms: C_2  and  C_8
REMARK    2  A    between atoms: N_3  and  C_4
REMARK    3  A    between atoms: C_10  and  N_11
REMARK    4  A    between atoms: C_16  and  N_17
REMARK    5  A    between atoms: N_17  and  C_18
REMARK                            x       y       z     vdW  Elec       q    Type
REMARK                         _______ _______ _______ _____ _____    ______ ____
ROOT
ATOM      1  N   UNL     1       1.228   9.247  19.649  0.00  0.00    +0.000 N 
ATOM      2  N   UNL     1       1.368   9.980  18.504  0.00  0.00    +0.000 NA
ATOM      3  C   UNL     1       2.083   9.200  17.689  0.00  0.00    +0.000 A 
ATOM      4  C   UNL     1       2.406   7.957  18.257  0.00  0.00    +0.000 A 
ATOM      5  C   UNL     1       3.094   6.789  17.873  0.00  0.00    +0.000 A 
ATOM      6  C   UNL     1       3.154   5.728  18.780  0.00  0.00    +0.000 A 
ATOM      7  C   UNL     1       2.527   5.912  20.019  0.00  0.00    +0.000 A 
ATOM      8  N   UNL     1       1.874   7.016  20.447  0.00  0.00    +0.000 NA
ATOM      9  C   UNL     1       1.846   8.006  19.529  0.00  0.00    +0.000 A 
ENDROOT
BRANCH   1  12
ATOM     10  C   UNL     1      -0.831  11.269  21.960  0.00  0.00    +0.000 A 
ATOM     11  C   UNL     1      -0.143  11.019  20.789  0.00  0.00    +0.000 A 
ATOM     12  C   UNL     1       0.501   9.745  20.783  0.00  0.00    +0.000 A 
ATOM     13  C   UNL     1       0.309   9.083  21.978  0.00  0.00    +0.000 A 
ATOM     14  S   UNL     1      -0.636   9.991  23.080  0.00  0.00    +0.000 S 
BRANCH  10  16
ATOM     15  O   UNL     1      -2.579  12.782  21.517  0.00  0.00    +0.000 OA
ATOM     16  C   UNL     1      -1.645  12.446  22.234  0.00  0.00    +0.000 C 
ATOM     17  N   UNL     1      -1.334  13.179  23.370  0.00  0.00    +0.000 N 
ATOM     18  H   UNL     1      -0.532  12.876  23.910  0.00  0.00    +0.000 HD
BRANCH  17  19
ATOM     19  C   UNL     1      -2.131  14.359  23.742  0.00  0.00    +0.000 C 
ATOM     20  C   UNL     1      -3.342  14.085  24.651  0.00  0.00    +0.000 C 
ATOM     21  O   UNL     1      -2.969  15.195  25.515  0.00  0.00    +0.000 OA
ATOM     22  C   UNL     1      -1.635  15.180  24.937  0.00  0.00    +0.000 C 
ENDBRANCH  17  19
ENDBRANCH  10  16
ENDBRANCH   1  12
BRANCH   6  23
ATOM     23  N   UNL     1       3.895   4.571  18.477  0.00  0.00    +0.000 N 
ATOM     24  H   UNL     1       3.667   3.724  18.984  0.00  0.00    +0.000 HD
BRANCH  23  25
ATOM     25  C   UNL     1       4.986   4.463  17.586  0.00  0.00    +0.000 A 
ATOM     26  C   UNL     1       4.750   4.014  16.276  0.00  0.00    +0.000 A 
ATOM     27  C   UNL     1       5.765   3.990  15.324  0.00  0.00    +0.000 A 
ATOM     28  C   UNL     1       7.042   4.421  15.664  0.00  0.00    +0.000 A 
ATOM     29  C   UNL     1       7.309   4.852  16.966  0.00  0.00    +0.000 A 
ATOM     30  C   UNL     1       6.288   4.866  17.925  0.00  0.00    +0.000 A 
ATOM     31 CL   UNL     1       6.665   5.439  19.511  0.00  0.00    +0.000 Cl
ENDBRANCH  23  25
ENDBRANCH   6  23
TORSDOF 5
ENDMDL
MODEL 3
REMARK VINA RESULT:      -8.0      2.566      3.421
REMARK  Name = 
REMARK  5 active torsions:
REMARK  status: ('A' for Active; 'I' for Inactive)
REMARK    1  A    between atoms: C_2  and  C_8
REMARK    2  A    between atoms: N_3  and  C_4
REMARK    3  A    between atoms: C_10  and  N_11
REMARK    4  A    between atoms: C_16  and  N_17
REMARK    5  A    between atoms: N_17  and  C_18
REMARK                            x       y       z     vdW  Elec       q    Type
REMARK                         _______ _______ _______ _____ _____    ______ ____
ROOT
ATOM      1  N   UNL     1       1.259   9.257  19.724  0.00  0.00    +0.000 N 
ATOM      2  N   UNL     1       1.385  10.028  18.603  0.00  0.00    +0.000 NA
ATOM      3  C   UNL     1       2.074   9.270  17.747  0.00  0.00    +0.000 A 
ATOM      4  C   UNL     1       2.393   8.003  18.265  0.00  0.00    +0.000 A 
ATOM      5  C   UNL     1       3.059   6.842  17.826  0.00  0.00    +0.000 A 
ATOM      6  C   UNL     1       3.124   5.749  18.694  0.00  0.00    +0.000 A 
ATOM      7  C   UNL     1       2.524   5.897  19.952  0.00  0.00    +0.000 A 
ATOM      8  N   UNL     1       1.893   6.992  20.431  0.00  0.00    +0.000 NA
ATOM      9  C   UNL     1       1.859   8.015  19.548  0.00  0.00    +0.000 A 
ENDROOT
BRANCH   1  12
ATOM     10  C   UNL     1      -0.648  11.260  22.179  0.00  0.00    +0.000 A 
ATOM     11  C   UNL     1       0.035  11.047  20.997  0.00  0.00    +0.000 A 
ATOM     12  C   UNL     1       0.561   9.724  20.890  0.00  0.00    +0.000 A 
ATOM     13  C   UNL     1       0.290   8.985  22.023  0.00  0.00    +0.000 A 
ATOM     14  S   UNL     1      -0.588   9.881  23.189  0.00  0.00    +0.000 S 
BRANCH  10  16
ATOM     15  O   UNL     1      -0.774  13.514  22.847  0.00  0.00    +0.000 OA
ATOM     16  C   UNL     1      -1.356  12.480  22.544  0.00  0.00    +0.000 C 
ATOM     17  N   UNL     1      -2.743  12.436  22.519  0.00  0.00    +0.000 N 
ATOM     18  H   UNL     1      -3.173  11.547  22.294  0.00  0.00    +0.000 HD
BRANCH  17  19
ATOM     19  C   UNL     1      -3.535  13.636  22.835  0.00  0.00    +0.000 C 
ATOM     20  C   UNL     1      -5.023  13.572  22.449  0.00  0.00    +0.000 C 
ATOM     21  O   UNL     1      -5.404  14.087  23.756  0.00  0.00    +0.000 OA
ATOM     22  C   UNL     1      -4.085  13.744  24.262  0.00  0.00    +0.000 C 
ENDBRANCH  17  19
ENDBRANCH  10  16
ENDBRANCH   1  12
BRANCH   6  23
ATOM     23  N   UNL     1       3.844   4.595  18.336  0.00  0.00    +0.000 N 
ATOM     24  H   UNL     1       3.580   3.722  18.779  0.00  0.00    +0.000 HD
BRANCH  23  25
ATOM     25  C   UNL     1       4.958   4.516  17.471  0.00  0.00    +0.000 A 
ATOM     26  C   UNL     1       4.758   4.109  16.142  0.00  0.00    +0.000 A 
ATOM     27  C   UNL     1       5.798   4.116  15.216  0.00  0.00    +0.000 A 
ATOM     28  C   UNL     1       7.064   4.537  15.603  0.00  0.00    +0.000 A 
ATOM     29  C   UNL     1       7.296   4.927  16.925  0.00  0.00    +0.000 A 
ATOM     30  C   UNL     1       6.250   4.910  17.857  0.00  0.00    +0.000 A 
ATOM     31 CL   UNL     1       6.584   5.432  19.469  0.00  0.00    +0.000 Cl
ENDBRANCH  23  25
ENDBRANCH   6  23
TORSDOF 5
ENDMDL
MODEL 4
REMARK VINA RESULT:      -7.9      2.047      2.450
REMARK  Name = 
REMARK  5 active torsions:
REMARK  status: ('A' for Active; 'I' for Inactive)
REMARK    1  A    between atoms: C_2  and  C_8
REMARK    2  A    between atoms: N_3  and  C_4
REMARK    3  A    between atoms: C_10  and  N_11
REMARK    4  A    between atoms: C_16  and  N_17
REMARK    5  A    between atoms: N_17  and  C_18
REMARK                            x       y       z     vdW  Elec       q    Type
REMARK                         _______ _______ _______ _____ _____    ______ ____
ROOT
ATOM      1  N   UNL     1       0.675  10.452  19.394  0.00  0.00    +0.000 N 
ATOM      2  N   UNL     1       1.198  10.749  18.166  0.00  0.00    +0.000 NA
ATOM      3  C   UNL     1       1.941   9.686  17.850  0.00  0.00    +0.000 A 
ATOM      4  C   UNL     1       1.910   8.679  18.828  0.00  0.00    +0.000 A 
ATOM      5  C   UNL     1       2.462   7.396  19.014  0.00  0.00    +0.000 A 
ATOM      6  C   UNL     1       2.130   6.695  20.176  0.00  0.00    +0.000 A 
ATOM      7  C   UNL     1       1.272   7.331  21.082  0.00  0.00    +0.000 A 
ATOM      8  N   UNL     1       0.733   8.565  20.966  0.00  0.00    +0.000 NA
ATOM      9  C   UNL     1       1.086   9.194  19.823  0.00  0.00    +0.000 A 
ENDROOT
BRANCH   1  12
ATOM     10  C   UNL     1      -2.214  12.481  20.491  0.00  0.00    +0.000 A 
ATOM     11  C   UNL     1      -1.534  11.625  19.647  0.00  0.00    +0.000 A 
ATOM     12  C   UNL     1      -0.201  11.358  20.083  0.00  0.00    +0.000 A 
ATOM     13  C   UNL     1       0.098  12.058  21.233  0.00  0.00    +0.000 A 
ATOM     14  S   UNL     1      -1.215  13.017  21.771  0.00  0.00    +0.000 S 
BRANCH  10  16
ATOM     15  O   UNL     1      -4.177  13.585  21.179  0.00  0.00    +0.000 OA
ATOM     16  C   UNL     1      -3.609  12.882  20.353  0.00  0.00    +0.000 C 
ATOM     17  N   UNL     1      -4.282  12.446  19.220  0.00  0.00    +0.000 N 
ATOM     18  H   UNL     1      -3.775  11.840  18.586  0.00  0.00    +0.000 HD
BRANCH  17  19
ATOM     19  C   UNL     1      -5.681  12.839  18.984  0.00  0.00    +0.000 C 
ATOM     20  C   UNL     1      -6.151  12.778  17.520  0.00  0.00    +0.000 C 
ATOM     21  O   UNL     1      -7.366  12.083  17.919  0.00  0.00    +0.000 OA
ATOM     22  C   UNL     1      -6.746  11.757  19.193  0.00  0.00    +0.000 C 
ENDBRANCH  17  19
ENDBRANCH  10  16
ENDBRANCH   1  12
BRANCH   6  23
ATOM     23  N   UNL     1       2.716   5.444  20.446  0.00  0.00    +0.000 N 
ATOM     24  H   UNL     1       3.265   5.359  21.293  0.00  0.00    +0.000 HD
BRANCH  23  25
ATOM     25  C   UNL     1       2.690   4.293  19.628  0.00  0.00    +0.000 A 
ATOM     26  C   UNL     1       1.469   3.624  19.436  0.00  0.00    +0.000 A 
ATOM     27  C   UNL     1       1.361   2.551  18.557  0.00  0.00    +0.000 A 
ATOM     28  C   UNL     1       2.476   2.125  17.845  0.00  0.00    +0.000 A 
ATOM     29  C   UNL     1       3.707   2.758  18.033  0.00  0.00    +0.000 A 
ATOM     30  C   UNL     1       3.816   3.832  18.926  0.00  0.00    +0.000 A 
ATOM     31 CL   UNL     1       5.354   4.600  19.097  0.00  0.00    +0.000 Cl
ENDBRANCH  23  25
ENDBRANCH   6  23
TORSDOF 5
ENDMDL
MODEL 5
REMARK VINA RESULT:      -7.9      1.024      1.466
REMARK  Name = 
REMARK  5 active torsions:
REMARK  status: ('A' for Active; 'I' for Inactive)
REMARK    1  A    between atoms: C_2  and  C_8
REMARK    2  A    between atoms: N_3  and  C_4
REMARK    3  A    between atoms: C_10  and  N_11
REMARK    4  A    between atoms: C_16  and  N_17
REMARK    5  A    between atoms: N_17  and  C_18
REMARK                            x       y       z     vdW  Elec       q    Type
REMARK                         _______ _______ _______ _____ _____    ______ ____
ROOT
ATOM      1  N   UNL     1      -0.003  11.016  20.010  0.00  0.00    +0.000 N 
ATOM      2  N   UNL     1       0.315  11.496  18.770  0.00  0.00    +0.000 NA
ATOM      3  C   UNL     1       1.102  10.559  18.237  0.00  0.00    +0.000 A 
ATOM      4  C   UNL     1       1.300   9.456  19.084  0.00  0.00    +0.000 A 
ATOM      5  C   UNL     1       1.988   8.227  19.043  0.00  0.00    +0.000 A 
ATOM      6  C   UNL     1       1.887   7.376  20.146  0.00  0.00    +0.000 A 
ATOM      7  C   UNL     1       1.109   7.817  21.224  0.00  0.00    +0.000 A 
ATOM      8  N   UNL     1       0.447   8.991  21.325  0.00  0.00    +0.000 NA
ATOM      9  C   UNL     1       0.578   9.772  20.230  0.00  0.00    +0.000 A 
ENDROOT
BRANCH   1  12
ATOM     10  C   UNL     1      -2.864  12.700  21.638  0.00  0.00    +0.000 A 
ATOM     11  C   UNL     1      -2.218  12.043  20.609  0.00  0.00    +0.000 A 
ATOM     12  C   UNL     1      -0.855  11.744  20.909  0.00  0.00    +0.000 A 
ATOM     13  C   UNL     1      -0.500  12.226  22.152  0.00  0.00    +0.000 A 
ATOM     14  S   UNL     1      -1.799  13.020  22.937  0.00  0.00    +0.000 S 
BRANCH  10  16
ATOM     15  O   UNL     1      -4.803  13.698  20.752  0.00  0.00    +0.000 OA
ATOM     16  C   UNL     1      -4.273  13.070  21.659  0.00  0.00    +0.000 C 
ATOM     17  N   UNL     1      -5.017  12.661  22.757  0.00  0.00    +0.000 N 
ATOM     18  H   UNL     1      -4.523  12.173  23.494  0.00  0.00    +0.000 HD
BRANCH  17  19
ATOM     19  C   UNL     1      -6.457  12.959  22.838  0.00  0.00    +0.000 C 
ATOM     20  C   UNL     1      -7.265  12.077  23.807  0.00  0.00    +0.000 C 
ATOM     21  O   UNL     1      -7.916  13.253  24.364  0.00  0.00    +0.000 OA
ATOM     22  C   UNL     1      -6.876  14.088  23.786  0.00  0.00    +0.000 C 
ENDBRANCH  17  19
ENDBRANCH  10  16
ENDBRANCH   1  12
BRANCH   6  23
ATOM     23  N   UNL     1       2.618   6.174  20.189  0.00  0.00    +0.000 N 
ATOM     24  H   UNL     1       3.136   5.971  21.036  0.00  0.00    +0.000 HD
BRANCH  23  25
ATOM     25  C   UNL     1       2.777   5.233  19.148  0.00  0.00    +0.000 A 
ATOM     26  C   UNL     1       3.803   5.429  18.208  0.00  0.00    +0.000 A 
ATOM     27  C   UNL     1       4.077   4.481  17.226  0.00  0.00    +0.000 A 
ATOM     28  C   UNL     1       3.329   3.311  17.166  0.00  0.00    +0.000 A 
ATOM     29  C   UNL     1       2.289   3.101  18.074  0.00  0.00    +0.000 A 
ATOM     30  C   UNL     1       2.009   4.061  19.056  0.00  0.00    +0.000 A 
ATOM     31 CL   UNL     1       0.732   3.736  20.174  0.00  0.00    +0.000 Cl
ENDBRANCH  23  25
ENDBRANCH   6  23
TORSDOF 5
ENDMDL
MODEL 6
REMARK VINA RESULT:      -7.8      6.459     11.297
REMARK  Name = 
REMARK  5 active torsions:
REMARK  status: ('A' for Active; 'I' for Inactive)
REMARK    1  A    between atoms: C_2  and  C_8
REMARK    2  A    between atoms: N_3  and  C_4
REMARK    3  A    between atoms: C_10  and  N_11
REMARK    4  A    between atoms: C_16  and  N_17
REMARK    5  A    between atoms: N_17  and  C_18
REMARK                            x       y       z     vdW  Elec       q    Type
REMARK                         _______ _______ _______ _____ _____    ______ ____
ROOT
ATOM      1  N   UNL     1       3.728   6.063  18.897  0.00  0.00    +0.000 N 
ATOM      2  N   UNL     1       3.190   5.325  19.913  0.00  0.00    +0.000 NA
ATOM      3  C   UNL     1       2.173   6.063  20.365  0.00  0.00    +0.000 A 
ATOM      4  C   UNL     1       2.008   7.267  19.660  0.00  0.00    +0.000 A 
ATOM      5  C   UNL     1       1.136   8.373  19.686  0.00  0.00    +0.000 A 
ATOM      6  C   UNL     1       1.322   9.384  18.741  0.00  0.00    +0.000 A 
ATOM      7  C   UNL     1       2.379   9.225  17.835  0.00  0.00    +0.000 A 
ATOM      8  N   UNL     1       3.257   8.199  17.779  0.00  0.00    +0.000 NA
ATOM      9  C   UNL     1       3.027   7.250  18.714  0.00  0.00    +0.000 A 
ENDROOT
BRANCH   1  12
ATOM     10  C   UNL     1       6.033   5.035  16.195  0.00  0.00    +0.000 A 
ATOM     11  C   UNL     1       4.820   5.436  16.721  0.00  0.00    +0.000 A 
ATOM     12  C   UNL     1       4.856   5.599  18.139  0.00  0.00    +0.000 A 
ATOM     13  C   UNL     1       6.097   5.274  18.648  0.00  0.00    +0.000 A 
ATOM     14  S   UNL     1       7.193   4.785  17.426  0.00  0.00    +0.000 S 
BRANCH  10  16
ATOM     15  O   UNL     1       7.342   5.304  14.257  0.00  0.00    +0.000 OA
ATOM     16  C   UNL     1       6.328   4.857  14.779  0.00  0.00    +0.000 C 
ATOM     17  N   UNL     1       5.413   4.133  14.028  0.00  0.00    +0.000 N 
ATOM     18  H   UNL     1       4.576   3.814  14.502  0.00  0.00    +0.000 HD
BRANCH  17  19
ATOM     19  C   UNL     1       5.656   3.873  12.600  0.00  0.00    +0.000 C 
ATOM     20  C   UNL     1       6.384   2.556  12.277  0.00  0.00    +0.000 C 
ATOM     21  O   UNL     1       5.414   2.254  11.234  0.00  0.00    +0.000 OA
ATOM     22  C   UNL     1       4.508   3.235  11.810  0.00  0.00    +0.000 C 
ENDBRANCH  17  19
ENDBRANCH  10  16
ENDBRANCH   1  12
BRANCH   6  23
ATOM     23  N   UNL     1       0.528  10.545  18.774  0.00  0.00    +0.000 N 
ATOM     24  H   UNL     1       0.936  11.379  19.181  0.00  0.00    +0.000 HD
BRANCH  23  25
ATOM     25  C   UNL     1      -0.817  10.673  18.365  0.00  0.00    +0.000 A 
ATOM     26  C   UNL     1      -1.310   9.811  17.371  0.00  0.00    +0.000 A 
ATOM     27  C   UNL     1      -2.653   9.818  17.005  0.00  0.00    +0.000 A 
ATOM     28  C   UNL     1      -3.536  10.689  17.633  0.00  0.00    +0.000 A 
ATOM     29  C   UNL     1      -3.069  11.572  18.609  0.00  0.00    +0.000 A 
ATOM     30  C   UNL     1      -1.715  11.570  18.969  0.00  0.00    +0.000 A 
ATOM     31 CL   UNL     1      -1.196  12.660  20.205  0.00  0.00    +0.000 Cl
ENDBRANCH  23  25
ENDBRANCH   6  23
TORSDOF 5
ENDMDL
MODEL 7
REMARK VINA RESULT:      -7.8      0.955      1.038
REMARK  Name = 
REMARK  5 active torsions:
REMARK  status: ('A' for Active; 'I' for Inactive)
REMARK    1  A    between atoms: C_2  and  C_8
REMARK    2  A    between atoms: N_3  and  C_4
REMARK    3  A    between atoms: C_10  and  N_11
REMARK    4  A    between atoms: C_16  and  N_17
REMARK    5  A    between atoms: N_17  and  C_18
REMARK                            x       y       z     vdW  Elec       q    Type
REMARK                         _______ _______ _______ _____ _____    ______ ____
ROOT
ATOM      1  N   UNL     1      -0.189  11.503  20.091  0.00  0.00    +0.000 N 
ATOM      2  N   UNL     1      -0.207  11.750  18.747  0.00  0.00    +0.000 NA
ATOM      3  C   UNL     1       0.434  10.713  18.204  0.00  0.00    +0.000 A 
ATOM      4  C   UNL     1       0.862   9.770  19.153  0.00  0.00    +0.000 A 
ATOM      5  C   UNL     1       1.539   8.534  19.154  0.00  0.00    +0.000 A 
ATOM      6  C   UNL     1       1.738   7.891  20.378  0.00  0.00    +0.000 A 
ATOM      7  C   UNL     1       1.253   8.534  21.524  0.00  0.00    +0.000 A 
ATOM      8  N   UNL     1       0.618   9.726  21.583  0.00  0.00    +0.000 NA
ATOM      9  C   UNL     1       0.451  10.300  20.371  0.00  0.00    +0.000 A 
ENDROOT
BRANCH   1  12
ATOM     10  C   UNL     1      -2.573  13.477  22.113  0.00  0.00    +0.000 A 
ATOM     11  C   UNL     1      -2.205  12.621  21.093  0.00  0.00    +0.000 A 
ATOM     12  C   UNL     1      -0.796  12.400  21.035  0.00  0.00    +0.000 A 
ATOM     13  C   UNL     1      -0.135  13.134  21.997  0.00  0.00    +0.000 A 
ATOM     14  S   UNL     1      -1.206  14.069  22.952  0.00  0.00    +0.000 S 
BRANCH  10  16
ATOM     15  O   UNL     1      -4.393  14.960  22.295  0.00  0.00    +0.000 OA
ATOM     16  C   UNL     1      -3.939  13.837  22.471  0.00  0.00    +0.000 C 
ATOM     17  N   UNL     1      -4.734  12.837  23.013  0.00  0.00    +0.000 N 
ATOM     18  H   UNL     1      -4.300  11.934  23.168  0.00  0.00    +0.000 HD
BRANCH  17  19
ATOM     19  C   UNL     1      -6.138  13.105  23.365  0.00  0.00    +0.000 C 
ATOM     20  C   UNL     1      -7.190  12.375  22.510  0.00  0.00    +0.000 C 
ATOM     21  O   UNL     1      -7.915  11.978  23.708  0.00  0.00    +0.000 OA
ATOM     22  C   UNL     1      -6.735  12.273  24.505  0.00  0.00    +0.000 C 
ENDBRANCH  17  19
ENDBRANCH  10  16
ENDBRANCH   1  12
BRANCH   6  23
ATOM     23  N   UNL     1       2.476   6.695  20.444  0.00  0.00    +0.000 N 
ATOM     24  H   UNL     1       3.375   6.725  20.911  0.00  0.00    +0.000 HD
BRANCH  23  25
ATOM     25  C   UNL     1       2.143   5.452  19.863  0.00  0.00    +0.000 A 
ATOM     26  C   UNL     1       1.311   4.571  20.575  0.00  0.00    +0.000 A 
ATOM     27  C   UNL     1       0.862   3.381  20.010  0.00  0.00    +0.000 A 
ATOM     28  C   UNL     1       1.234   3.048  18.713  0.00  0.00    +0.000 A 
ATOM     29  C   UNL     1       2.079   3.894  17.991  0.00  0.00    +0.000 A 
ATOM     30  C   UNL     1       2.538   5.087  18.565  0.00  0.00    +0.000 A 
ATOM     31 CL   UNL     1       3.553   6.113  17.616  0.00  0.00    +0.000 Cl
ENDBRANCH  23  25
ENDBRANCH   6  23
TORSDOF 5
ENDMDL
MODEL 8
REMARK VINA RESULT:      -7.7      3.541      5.468
REMARK  Name = 
REMARK  5 active torsions:
REMARK  status: ('A' for Active; 'I' for Inactive)
REMARK    1  A    between atoms: C_2  and  C_8
REMARK    2  A    between atoms: N_3  and  C_4
REMARK    3  A    between atoms: C_10  and  N_11
REMARK    4  A    between atoms: C_16  and  N_17
REMARK    5  A    between atoms: N_17  and  C_18
REMARK                            x       y       z     vdW  Elec       q    Type
REMARK                         _______ _______ _______ _____ _____    ______ ____
ROOT
ATOM      1  N   UNL     1       0.485  10.195  20.646  0.00  0.00    +0.000 N 
ATOM      2  N   UNL     1       0.449   9.725  21.929  0.00  0.00    +0.000 NA
ATOM      3  C   UNL     1       1.046   8.533  21.869  0.00  0.00    +0.000 A 
ATOM      4  C   UNL     1       1.497   8.205  20.580  0.00  0.00    +0.000 A 
ATOM      5  C   UNL     1       2.177   7.137  19.960  0.00  0.00    +0.000 A 
ATOM      6  C   UNL     1       2.464   7.240  18.596  0.00  0.00    +0.000 A 
ATOM      7  C   UNL     1       2.042   8.404  17.941  0.00  0.00    +0.000 A 
ATOM      8  N   UNL     1       1.370   9.446  18.480  0.00  0.00    +0.000 NA
ATOM      9  C   UNL     1       1.123   9.293  19.800  0.00  0.00    +0.000 A 
ENDROOT
BRANCH   1  12
ATOM     10  C   UNL     1       0.020  13.704  19.578  0.00  0.00    +0.000 A 
ATOM     11  C   UNL     1       0.756  12.591  19.937  0.00  0.00    +0.000 A 
ATOM     12  C   UNL     1      -0.060  11.475  20.292  0.00  0.00    +0.000 A 
ATOM     13  C   UNL     1      -1.400  11.796  20.228  0.00  0.00    +0.000 A 
ATOM     14  S   UNL     1      -1.658  13.419  19.742  0.00  0.00    +0.000 S 
BRANCH  10  16
ATOM     15  O   UNL     1      -0.122  15.812  18.541  0.00  0.00    +0.000 OA
ATOM     16  C   UNL     1       0.566  14.966  19.097  0.00  0.00    +0.000 C 
ATOM     17  N   UNL     1       1.919  15.192  19.312  0.00  0.00    +0.000 N 
ATOM     18  H   UNL     1       2.448  14.446  19.747  0.00  0.00    +0.000 HD
BRANCH  17  19
ATOM     19  C   UNL     1       2.541  16.459  18.893  0.00  0.00    +0.000 C 
ATOM     20  C   UNL     1       3.943  16.732  19.466  0.00  0.00    +0.000 C 
ATOM     21  O   UNL     1       4.429  17.109  18.147  0.00  0.00    +0.000 OA
ATOM     22  C   UNL     1       3.277  16.454  17.549  0.00  0.00    +0.000 C 
ENDBRANCH  17  19
ENDBRANCH  10  16
ENDBRANCH   1  12
BRANCH   6  23
ATOM     23  N   UNL     1       3.069   6.170  17.912  0.00  0.00    +0.000 N 
ATOM     24  H   UNL     1       3.544   6.380  17.042  0.00  0.00    +0.000 HD
BRANCH  23  25
ATOM     25  C   UNL     1       3.032   4.802  18.261  0.00  0.00    +0.000 A 
ATOM     26  C   UNL     1       1.872   4.061  17.979  0.00  0.00    +0.000 A 
ATOM     27  C   UNL     1       1.817   2.688  18.200  0.00  0.00    +0.000 A 
ATOM     28  C   UNL     1       2.928   2.024  18.707  0.00  0.00    +0.000 A 
ATOM     29  C   UNL     1       4.087   2.740  19.017  0.00  0.00    +0.000 A 
ATOM     30  C   UNL     1       4.137   4.124  18.803  0.00  0.00    +0.000 A 
ATOM     31 CL   UNL     1       5.605   4.955  19.173  0.00  0.00    +0.000 Cl
ENDBRANCH  23  25
ENDBRANCH   6  23
TORSDOF 5
ENDMDL
MODEL 9
REMARK VINA RESULT:      -7.7      2.106      2.632
REMARK  Name = 
REMARK  5 active torsions:
REMARK  status: ('A' for Active; 'I' for Inactive)
REMARK    1  A    between atoms: C_2  and  C_8
REMARK    2  A    between atoms: N_3  and  C_4
REMARK    3  A    between atoms: C_10  and  N_11
REMARK    4  A    between atoms: C_16  and  N_17
REMARK    5  A    between atoms: N_17  and  C_18
REMARK                            x       y       z     vdW  Elec       q    Type
REMARK                         _______ _______ _______ _____ _____    ______ ____
ROOT
ATOM      1  N   UNL     1       0.628  10.617  19.458  0.00  0.00    +0.000 N 
ATOM      2  N   UNL     1       1.152  11.006  18.257  0.00  0.00    +0.000 NA
ATOM      3  C   UNL     1       1.916   9.981  17.874  0.00  0.00    +0.000 A 
ATOM      4  C   UNL     1       1.898   8.909  18.781  0.00  0.00    +0.000 A 
ATOM      5  C   UNL     1       2.473   7.626  18.883  0.00  0.00    +0.000 A 
ATOM      6  C   UNL     1       2.148   6.842  19.993  0.00  0.00    +0.000 A 
ATOM      7  C   UNL     1       1.274   7.400  20.935  0.00  0.00    +0.000 A 
ATOM      8  N   UNL     1       0.713   8.630  20.899  0.00  0.00    +0.000 NA
ATOM      9  C   UNL     1       1.059   9.340  19.803  0.00  0.00    +0.000 A 
ENDROOT
BRANCH   1  12
ATOM     10  C   UNL     1      -2.316  12.481  20.694  0.00  0.00    +0.000 A 
ATOM     11  C   UNL     1      -1.620  11.688  19.802  0.00  0.00    +0.000 A 
ATOM     12  C   UNL     1      -0.269  11.458  20.201  0.00  0.00    +0.000 A 
ATOM     13  C   UNL     1       0.027  12.123  21.372  0.00  0.00    +0.000 A 
ATOM     14  S   UNL     1      -1.312  13.005  21.975  0.00  0.00    +0.000 S 
BRANCH  10  16
ATOM     15  O   UNL     1      -4.337  13.363  21.519  0.00  0.00    +0.000 OA
ATOM     16  C   UNL     1      -3.728  12.830  20.600  0.00  0.00    +0.000 C 
ATOM     17  N   UNL     1      -4.370  12.550  19.402  0.00  0.00    +0.000 N 
ATOM     18  H   UNL     1      -3.828  12.079  18.687  0.00  0.00    +0.000 HD
BRANCH  17  19
ATOM     19  C   UNL     1      -5.785  12.907  19.210  0.00  0.00    +0.000 C 
ATOM     20  C   UNL     1      -6.242  13.050  17.747  0.00  0.00    +0.000 C 
ATOM     21  O   UNL     1      -7.424  12.245  18.018  0.00  0.00    +0.000 OA
ATOM     22  C   UNL     1      -6.796  11.755  19.235  0.00  0.00    +0.000 C 
ENDBRANCH  17  19
ENDBRANCH  10  16
ENDBRANCH   1  12
BRANCH   6  23
ATOM     23  N   UNL     1       2.755   5.587  20.182  0.00  0.00    +0.000 N 
ATOM     24  H   UNL     1       3.403   5.493  20.956  0.00  0.00    +0.000 HD
BRANCH  23  25
ATOM     25  C   UNL     1       2.624   4.442  19.366  0.00  0.00    +0.000 A 
ATOM     26  C   UNL     1       3.219   4.444  18.093  0.00  0.00    +0.000 A 
ATOM     27  C   UNL     1       3.216   3.308  17.289  0.00  0.00    +0.000 A 
ATOM     28  C   UNL     1       2.618   2.140  17.746  0.00  0.00    +0.000 A 
ATOM     29  C   UNL     1       1.999   2.116  18.999  0.00  0.00    +0.000 A 
ATOM     30  C   UNL     1       1.996   3.264  19.802  0.00  0.00    +0.000 A 
ATOM     31 CL   UNL     1       1.245   3.171  21.356  0.00  0.00    +0.000 Cl
ENDBRANCH  23  25
ENDBRANCH   6  23
TORSDOF 5
ENDMDL
