MODEL 1
REMARK VINA RESULT:      -7.4      0.000      0.000
REMARK  Name = 
REMARK  5 active torsions:
REMARK  status: ('A' for Active; 'I' for Inactive)
REMARK    1  A    between atoms: C_1  and  C_2
REMARK    2  A    between atoms: C_6  and  C_7
REMARK    3  A    between atoms: C_7  and  O_8
REMARK    4  A    between atoms: O_8  and  C_9
REMARK    5  A    between atoms: C_17  and  C_18
REMARK                            x       y       z     vdW  Elec       q    Type
REMARK                         _______ _______ _______ _____ _____    ______ ____
ROOT
ATOM      1  C   UNL     1       1.643   2.117  17.872  0.00  0.00    +0.000 C 
ATOM      2  C   UNL     1       3.116   2.334  18.115  0.00  0.00    +0.000 C 
ATOM      3  O   UNL     1       3.886   1.377  18.189  0.00  0.00    +0.000 OA
ATOM      4  N   UNL     1       3.540   3.643  18.212  0.00  0.00    +0.000 N 
ATOM      5  C   UNL     1       2.652   4.797  18.290  0.00  0.00    +0.000 C 
ATOM      6  C   UNL     1       3.405   6.023  18.817  0.00  0.00    +0.000 C 
ATOM      7  S   UNL     1       4.970   5.371  19.468  0.00  0.00    +0.000 S 
ATOM      8  C   UNL     1       4.959   3.962  18.307  0.00  0.00    +0.000 C 
ENDROOT
BRANCH   8   9
ATOM      9  C   UNL     1       5.541   4.253  16.917  0.00  0.00    +0.000 A 
ATOM     10  C   UNL     1       4.877   3.982  15.705  0.00  0.00    +0.000 A 
ATOM     11  C   UNL     1       5.489   4.221  14.470  0.00  0.00    +0.000 A 
ATOM     12  C   UNL     1       6.775   4.746  14.421  0.00  0.00    +0.000 A 
ATOM     13 CL   UNL     1       7.531   5.024  12.902  0.00  0.00    +0.000 Cl
ATOM     14  C   UNL     1       7.449   5.048  15.599  0.00  0.00    +0.000 A 
ATOM     15  C   UNL     1       6.834   4.811  16.832  0.00  0.00    +0.000 A 
ENDBRANCH   8   9
BRANCH   6  16
ATOM     16  C   UNL     1       2.603   6.776  19.871  0.00  0.00    +0.000 C 
BRANCH  16  17
ATOM     17  O   UNL     1       1.974   7.881  19.214  0.00  0.00    +0.000 OA
BRANCH  17  18
ATOM     18  C   UNL     1       1.294   8.768  19.996  0.00  0.00    +0.000 A 
ATOM     19  C   UNL     1       1.031  10.101  19.684  0.00  0.00    +0.000 A 
ATOM     20  C   UNL     1       0.305  10.900  20.577  0.00  0.00    +0.000 A 
ATOM     21  C   UNL     1      -0.149  10.361  21.780  0.00  0.00    +0.000 A 
ATOM     22 CL   UNL     1      -1.050  11.342  22.867  0.00  0.00    +0.000 Cl
ATOM     23  C   UNL     1       0.116   9.034  22.102  0.00  0.00    +0.000 A 
ATOM     24  C   UNL     1       0.840   8.241  21.210  0.00  0.00    +0.000 A 
ENDBRANCH  17  18
ENDBRANCH  16  17
ENDBRANCH   6  16
TORSDOF 4
ENDMDL
MODEL 2
REMARK VINA RESULT:      -7.3      0.279      1.015
REMARK  Name = 
REMARK  5 active torsions:
REMARK  status: ('A' for Active; 'I' for Inactive)
REMARK    1  A    between atoms: C_1  and  C_2
REMARK    2  A    between atoms: C_6  and  C_7
REMARK    3  A    between atoms: C_7  and  O_8
REMARK    4  A    between atoms: O_8  and  C_9
REMARK    5  A    between atoms: C_17  and  C_18
REMARK                            x       y       z     vdW  Elec       q    Type
REMARK                         _______ _______ _______ _____ _____    ______ ____
ROOT
ATOM      1  C   UNL     1       1.740   2.018  17.876  0.00  0.00    +0.000 C 
ATOM      2  C   UNL     1       3.206   2.286  18.112  0.00  0.00    +0.000 C 
ATOM      3  O   UNL     1       4.007   1.355  18.192  0.00  0.00    +0.000 OA
ATOM      4  N   UNL     1       3.587   3.609  18.198  0.00  0.00    +0.000 N 
ATOM      5  C   UNL     1       2.661   4.734  18.268  0.00  0.00    +0.000 C 
ATOM      6  C   UNL     1       3.374   5.988  18.783  0.00  0.00    +0.000 C 
ATOM      7  S   UNL     1       4.961   5.393  19.435  0.00  0.00    +0.000 S 
ATOM      8  C   UNL     1       4.995   3.976  18.286  0.00  0.00    +0.000 C 
ENDROOT
BRANCH   8   9
ATOM      9  C   UNL     1       5.563   4.274  16.891  0.00  0.00    +0.000 A 
ATOM     10  C   UNL     1       4.855   4.087  15.689  0.00  0.00    +0.000 A 
ATOM     11  C   UNL     1       5.454   4.327  14.447  0.00  0.00    +0.000 A 
ATOM     12  C   UNL     1       6.770   4.768  14.383  0.00  0.00    +0.000 A 
ATOM     13 CL   UNL     1       7.508   5.047  12.856  0.00  0.00    +0.000 Cl
ATOM     14  C   UNL     1       7.489   4.986  15.553  0.00  0.00    +0.000 A 
ATOM     15  C   UNL     1       6.887   4.748  16.792  0.00  0.00    +0.000 A 
ENDBRANCH   8   9
BRANCH   6  16
ATOM     16  C   UNL     1       2.551   6.723  19.834  0.00  0.00    +0.000 C 
BRANCH  16  17
ATOM     17  O   UNL     1       2.096   7.942  19.237  0.00  0.00    +0.000 OA
BRANCH  17  18
ATOM     18  C   UNL     1       1.274   8.735  19.984  0.00  0.00    +0.000 A 
ATOM     19  C   UNL     1       0.769   8.430  21.248  0.00  0.00    +0.000 A 
ATOM     20  C   UNL     1      -0.055   9.346  21.911  0.00  0.00    +0.000 A 
ATOM     21  C   UNL     1      -0.375  10.561  21.306  0.00  0.00    +0.000 A 
ATOM     22 CL   UNL     1      -1.377  11.687  22.130  0.00  0.00    +0.000 Cl
ATOM     23  C   UNL     1       0.120  10.869  20.042  0.00  0.00    +0.000 A 
ATOM     24  C   UNL     1       0.942   9.952  19.382  0.00  0.00    +0.000 A 
ENDBRANCH  17  18
ENDBRANCH  16  17
ENDBRANCH   6  16
TORSDOF 4
ENDMDL
MODEL 3
REMARK VINA RESULT:      -7.2      0.890      1.669
REMARK  Name = 
REMARK  5 active torsions:
REMARK  status: ('A' for Active; 'I' for Inactive)
REMARK    1  A    between atoms: C_1  and  C_2
REMARK    2  A    between atoms: C_6  and  C_7
REMARK    3  A    between atoms: C_7  and  O_8
REMARK    4  A    between atoms: O_8  and  C_9
REMARK    5  A    between atoms: C_17  and  C_18
REMARK                            x       y       z     vdW  Elec       q    Type
REMARK                         _______ _______ _______ _____ _____    ______ ____
ROOT
ATOM      1  C   UNL     1       1.873   2.083  17.988  0.00  0.00    +0.000 C 
ATOM      2  C   UNL     1       3.312   2.425  18.284  0.00  0.00    +0.000 C 
ATOM      3  O   UNL     1       4.128   1.538  18.532  0.00  0.00    +0.000 OA
ATOM      4  N   UNL     1       3.654   3.761  18.229  0.00  0.00    +0.000 N 
ATOM      5  C   UNL     1       2.699   4.855  18.098  0.00  0.00    +0.000 C 
ATOM      6  C   UNL     1       3.345   6.185  18.498  0.00  0.00    +0.000 C 
ATOM      7  S   UNL     1       4.897   5.726  19.321  0.00  0.00    +0.000 S 
ATOM      8  C   UNL     1       5.044   4.180  18.362  0.00  0.00    +0.000 C 
ENDROOT
BRANCH   8   9
ATOM      9  C   UNL     1       5.699   4.323  16.982  0.00  0.00    +0.000 A 
ATOM     10  C   UNL     1       7.019   4.768  16.772  0.00  0.00    +0.000 A 
ATOM     11  C   UNL     1       7.536   4.929  15.482  0.00  0.00    +0.000 A 
ATOM     12  C   UNL     1       6.747   4.637  14.375  0.00  0.00    +0.000 A 
ATOM     13 CL   UNL     1       7.380   4.851  12.791  0.00  0.00    +0.000 Cl
ATOM     14  C   UNL     1       5.448   4.174  14.548  0.00  0.00    +0.000 A 
ATOM     15  C   UNL     1       4.935   4.011  15.839  0.00  0.00    +0.000 A 
ENDBRANCH   8   9
BRANCH   6  16
ATOM     16  C   UNL     1       2.434   7.017  19.392  0.00  0.00    +0.000 C 
BRANCH  16  17
ATOM     17  O   UNL     1       2.283   8.296  18.768  0.00  0.00    +0.000 OA
BRANCH  17  18
ATOM     18  C   UNL     1       1.288   9.105  19.235  0.00  0.00    +0.000 A 
ATOM     19  C   UNL     1       0.868   9.203  20.561  0.00  0.00    +0.000 A 
ATOM     20  C   UNL     1      -0.160  10.090  20.905  0.00  0.00    +0.000 A 
ATOM     21  C   UNL     1      -0.765  10.870  19.921  0.00  0.00    +0.000 A 
ATOM     22 CL   UNL     1      -2.017  11.966  20.351  0.00  0.00    +0.000 Cl
ATOM     23  C   UNL     1      -0.355  10.772  18.594  0.00  0.00    +0.000 A 
ATOM     24  C   UNL     1       0.669   9.887  18.254  0.00  0.00    +0.000 A 
ENDBRANCH  17  18
ENDBRANCH  16  17
ENDBRANCH   6  16
TORSDOF 4
ENDMDL
MODEL 4
REMARK VINA RESULT:      -7.1      5.170      6.291
REMARK  Name = 
REMARK  5 active torsions:
REMARK  status: ('A' for Active; 'I' for Inactive)
REMARK    1  A    between atoms: C_1  and  C_2
REMARK    2  A    between atoms: C_6  and  C_7
REMARK    3  A    between atoms: C_7  and  O_8
REMARK    4  A    between atoms: O_8  and  C_9
REMARK    5  A    between atoms: C_17  and  C_18
REMARK                            x       y       z     vdW  Elec       q    Type
REMARK                         _______ _______ _______ _____ _____    ______ ____
ROOT
ATOM      1  C   UNL     1       3.235   7.847  17.702  0.00  0.00    +0.000 C 
ATOM      2  C   UNL     1       3.903   6.495  17.748  0.00  0.00    +0.000 C 
ATOM      3  O   UNL     1       3.242   5.478  17.954  0.00  0.00    +0.000 OA
ATOM      4  N   UNL     1       5.263   6.469  17.517  0.00  0.00    +0.000 N 
ATOM      5  C   UNL     1       6.109   7.653  17.427  0.00  0.00    +0.000 C 
ATOM      6  C   UNL     1       7.584   7.276  17.600  0.00  0.00    +0.000 C 
ATOM      7  S   UNL     1       7.564   5.570  18.223  0.00  0.00    +0.000 S 
ATOM      8  C   UNL     1       5.976   5.203  17.403  0.00  0.00    +0.000 C 
ENDROOT
BRANCH   8   9
ATOM      9  C   UNL     1       6.080   4.773  15.933  0.00  0.00    +0.000 A 
ATOM     10  C   UNL     1       5.052   4.124  15.221  0.00  0.00    +0.000 A 
ATOM     11  C   UNL     1       5.234   3.709  13.897  0.00  0.00    +0.000 A 
ATOM     12  C   UNL     1       6.445   3.943  13.255  0.00  0.00    +0.000 A 
ATOM     13 CL   UNL     1       6.671   3.418  11.634  0.00  0.00    +0.000 Cl
ATOM     14  C   UNL     1       7.471   4.603  13.922  0.00  0.00    +0.000 A 
ATOM     15  C   UNL     1       7.285   5.019  15.244  0.00  0.00    +0.000 A 
ENDBRANCH   8   9
BRANCH   6  16
ATOM     16  C   UNL     1       8.313   8.231  18.537  0.00  0.00    +0.000 C 
BRANCH  16  17
ATOM     17  O   UNL     1       8.336   9.513  17.901  0.00  0.00    +0.000 OA
BRANCH  17  18
ATOM     18  C   UNL     1       8.959  10.529  18.564  0.00  0.00    +0.000 A 
ATOM     19  C   UNL     1       9.550  10.443  19.824  0.00  0.00    +0.000 A 
ATOM     20  C   UNL     1      10.172  11.566  20.384  0.00  0.00    +0.000 A 
ATOM     21  C   UNL     1      10.194  12.770  19.683  0.00  0.00    +0.000 A 
ATOM     22 CL   UNL     1      10.969  14.143  20.369  0.00  0.00    +0.000 Cl
ATOM     23  C   UNL     1       9.599  12.866  18.428  0.00  0.00    +0.000 A 
ATOM     24  C   UNL     1       8.980  11.744  17.873  0.00  0.00    +0.000 A 
ENDBRANCH  17  18
ENDBRANCH  16  17
ENDBRANCH   6  16
TORSDOF 4
ENDMDL
MODEL 5
REMARK VINA RESULT:      -7.1      1.708      7.834
REMARK  Name = 
REMARK  5 active torsions:
REMARK  status: ('A' for Active; 'I' for Inactive)
REMARK    1  A    between atoms: C_1  and  C_2
REMARK    2  A    between atoms: C_6  and  C_7
REMARK    3  A    between atoms: C_7  and  O_8
REMARK    4  A    between atoms: O_8  and  C_9
REMARK    5  A    between atoms: C_17  and  C_18
REMARK                            x       y       z     vdW  Elec       q    Type
REMARK                         _______ _______ _______ _____ _____    ______ ____
ROOT
ATOM      1  C   UNL     1       1.945   2.912  18.779  0.00  0.00    +0.000 C 
ATOM      2  C   UNL     1       1.846   4.223  18.040  0.00  0.00    +0.000 C 
ATOM      3  O   UNL     1       0.894   4.452  17.296  0.00  0.00    +0.000 OA
ATOM      4  N   UNL     1       2.851   5.140  18.271  0.00  0.00    +0.000 N 
ATOM      5  C   UNL     1       4.074   4.858  19.013  0.00  0.00    +0.000 C 
ATOM      6  C   UNL     1       5.140   5.918  18.720  0.00  0.00    +0.000 C 
ATOM      7  S   UNL     1       4.515   6.829  17.279  0.00  0.00    +0.000 S 
ATOM      8  C   UNL     1       2.776   6.485  17.715  0.00  0.00    +0.000 C 
ENDROOT
BRANCH   8   9
ATOM      9  C   UNL     1       2.149   7.454  18.727  0.00  0.00    +0.000 A 
ATOM     10  C   UNL     1       1.934   7.153  20.086  0.00  0.00    +0.000 A 
ATOM     11  C   UNL     1       1.305   8.063  20.942  0.00  0.00    +0.000 A 
ATOM     12  C   UNL     1       0.888   9.298  20.459  0.00  0.00    +0.000 A 
ATOM     13 CL   UNL     1       0.101  10.409  21.510  0.00  0.00    +0.000 Cl
ATOM     14  C   UNL     1       1.106   9.636  19.129  0.00  0.00    +0.000 A 
ATOM     15  C   UNL     1       1.737   8.725  18.276  0.00  0.00    +0.000 A 
ENDBRANCH   8   9
BRANCH   6  16
ATOM     16  C   UNL     1       6.510   5.298  18.469  0.00  0.00    +0.000 C 
BRANCH  16  17
ATOM     17  O   UNL     1       6.298   4.095  17.723  0.00  0.00    +0.000 OA
BRANCH  17  18
ATOM     18  C   UNL     1       6.425   4.171  16.367  0.00  0.00    +0.000 A 
ATOM     19  C   UNL     1       5.585   3.568  15.431  0.00  0.00    +0.000 A 
ATOM     20  C   UNL     1       5.824   3.741  14.062  0.00  0.00    +0.000 A 
ATOM     21  C   UNL     1       6.905   4.512  13.637  0.00  0.00    +0.000 A 
ATOM     22 CL   UNL     1       7.187   4.731  11.955  0.00  0.00    +0.000 Cl
ATOM     23  C   UNL     1       7.752   5.110  14.565  0.00  0.00    +0.000 A 
ATOM     24  C   UNL     1       7.511   4.936  15.929  0.00  0.00    +0.000 A 
ENDBRANCH  17  18
ENDBRANCH  16  17
ENDBRANCH   6  16
TORSDOF 4
ENDMDL
MODEL 6
REMARK VINA RESULT:      -7.1      5.185      6.219
REMARK  Name = 
REMARK  5 active torsions:
REMARK  status: ('A' for Active; 'I' for Inactive)
REMARK    1  A    between atoms: C_1  and  C_2
REMARK    2  A    between atoms: C_6  and  C_7
REMARK    3  A    between atoms: C_7  and  O_8
REMARK    4  A    between atoms: O_8  and  C_9
REMARK    5  A    between atoms: C_17  and  C_18
REMARK                            x       y       z     vdW  Elec       q    Type
REMARK                         _______ _______ _______ _____ _____    ______ ____
ROOT
ATOM      1  C   UNL     1       3.251   7.787  17.731  0.00  0.00    +0.000 C 
ATOM      2  C   UNL     1       3.962   6.460  17.838  0.00  0.00    +0.000 C 
ATOM      3  O   UNL     1       3.336   5.434  18.101  0.00  0.00    +0.000 OA
ATOM      4  N   UNL     1       5.321   6.466  17.597  0.00  0.00    +0.000 N 
ATOM      5  C   UNL     1       6.129   7.670  17.440  0.00  0.00    +0.000 C 
ATOM      6  C   UNL     1       7.615   7.349  17.619  0.00  0.00    +0.000 C 
ATOM      7  S   UNL     1       7.655   5.677  18.326  0.00  0.00    +0.000 S 
ATOM      8  C   UNL     1       6.073   5.219  17.540  0.00  0.00    +0.000 C 
ENDROOT
BRANCH   8   9
ATOM      9  C   UNL     1       6.180   4.719  16.092  0.00  0.00    +0.000 A 
ATOM     10  C   UNL     1       7.262   4.995  15.235  0.00  0.00    +0.000 A 
ATOM     11  C   UNL     1       7.270   4.554  13.907  0.00  0.00    +0.000 A 
ATOM     12  C   UNL     1       6.199   3.819  13.412  0.00  0.00    +0.000 A 
ATOM     13 CL   UNL     1       6.204   3.292  11.776  0.00  0.00    +0.000 Cl
ATOM     14  C   UNL     1       5.126   3.509  14.239  0.00  0.00    +0.000 A 
ATOM     15  C   UNL     1       5.122   3.949  15.567  0.00  0.00    +0.000 A 
ENDBRANCH   8   9
BRANCH   6  16
ATOM     16  C   UNL     1       8.320   8.373  18.501  0.00  0.00    +0.000 C 
BRANCH  16  17
ATOM     17  O   UNL     1       8.402   9.590  17.753  0.00  0.00    +0.000 OA
BRANCH  17  18
ATOM     18  C   UNL     1       8.919  10.681  18.389  0.00  0.00    +0.000 A 
ATOM     19  C   UNL     1       8.980  11.975  17.876  0.00  0.00    +0.000 A 
ATOM     20  C   UNL     1       9.527  13.009  18.647  0.00  0.00    +0.000 A 
ATOM     21  C   UNL     1      10.015  12.740  19.925  0.00  0.00    +0.000 A 
ATOM     22 CL   UNL     1      10.675  14.014  20.872  0.00  0.00    +0.000 Cl
ATOM     23  C   UNL     1       9.965  11.448  20.441  0.00  0.00    +0.000 A 
ATOM     24  C   UNL     1       9.419  10.420  19.669  0.00  0.00    +0.000 A 
ENDBRANCH  17  18
ENDBRANCH  16  17
ENDBRANCH   6  16
TORSDOF 4
ENDMDL
MODEL 7
REMARK VINA RESULT:      -7.1      1.951      7.723
REMARK  Name = 
REMARK  5 active torsions:
REMARK  status: ('A' for Active; 'I' for Inactive)
REMARK    1  A    between atoms: C_1  and  C_2
REMARK    2  A    between atoms: C_6  and  C_7
REMARK    3  A    between atoms: C_7  and  O_8
REMARK    4  A    between atoms: O_8  and  C_9
REMARK    5  A    between atoms: C_17  and  C_18
REMARK                            x       y       z     vdW  Elec       q    Type
REMARK                         _______ _______ _______ _____ _____    ______ ____
ROOT
ATOM      1  C   UNL     1       4.022   2.763  19.729  0.00  0.00    +0.000 C 
ATOM      2  C   UNL     1       3.314   3.708  18.790  0.00  0.00    +0.000 C 
ATOM      3  O   UNL     1       2.228   3.405  18.297  0.00  0.00    +0.000 OA
ATOM      4  N   UNL     1       3.931   4.919  18.550  0.00  0.00    +0.000 N 
ATOM      5  C   UNL     1       5.283   5.257  18.980  0.00  0.00    +0.000 C 
ATOM      6  C   UNL     1       5.809   6.467  18.201  0.00  0.00    +0.000 C 
ATOM      7  S   UNL     1       4.645   6.684  16.825  0.00  0.00    +0.000 S 
ATOM      8  C   UNL     1       3.265   5.954  17.771  0.00  0.00    +0.000 C 
ENDROOT
BRANCH   8   9
ATOM      9  C   UNL     1       2.515   6.925  18.693  0.00  0.00    +0.000 A 
ATOM     10  C   UNL     1       2.144   8.236  18.333  0.00  0.00    +0.000 A 
ATOM     11  C   UNL     1       1.510   9.088  19.244  0.00  0.00    +0.000 A 
ATOM     12  C   UNL     1       1.224   8.644  20.529  0.00  0.00    +0.000 A 
ATOM     13 CL   UNL     1       0.460   9.700  21.651  0.00  0.00    +0.000 Cl
ATOM     14  C   UNL     1       1.555   7.349  20.909  0.00  0.00    +0.000 A 
ATOM     15  C   UNL     1       2.186   6.498  19.996  0.00  0.00    +0.000 A 
ENDBRANCH   8   9
BRANCH   6  16
ATOM     16  C   UNL     1       7.242   6.261  17.725  0.00  0.00    +0.000 C 
BRANCH  16  17
ATOM     17  O   UNL     1       7.356   4.899  17.302  0.00  0.00    +0.000 OA
BRANCH  17  18
ATOM     18  C   UNL     1       7.017   4.615  16.011  0.00  0.00    +0.000 A 
ATOM     19  C   UNL     1       7.576   5.195  14.872  0.00  0.00    +0.000 A 
ATOM     20  C   UNL     1       7.142   4.798  13.601  0.00  0.00    +0.000 A 
ATOM     21  C   UNL     1       6.149   3.828  13.476  0.00  0.00    +0.000 A 
ATOM     22 CL   UNL     1       5.629   3.337  11.913  0.00  0.00    +0.000 Cl
ATOM     23  C   UNL     1       5.581   3.252  14.608  0.00  0.00    +0.000 A 
ATOM     24  C   UNL     1       6.015   3.649  15.874  0.00  0.00    +0.000 A 
ENDBRANCH  17  18
ENDBRANCH  16  17
ENDBRANCH   6  16
TORSDOF 4
ENDMDL
MODEL 8
REMARK VINA RESULT:      -7.1      2.012      7.785
REMARK  Name = 
REMARK  5 active torsions:
REMARK  status: ('A' for Active; 'I' for Inactive)
REMARK    1  A    between atoms: C_1  and  C_2
REMARK    2  A    between atoms: C_6  and  C_7
REMARK    3  A    between atoms: C_7  and  O_8
REMARK    4  A    between atoms: O_8  and  C_9
REMARK    5  A    between atoms: C_17  and  C_18
REMARK                            x       y       z     vdW  Elec       q    Type
REMARK                         _______ _______ _______ _____ _____    ______ ____
ROOT
ATOM      1  C   UNL     1       4.390   2.843  19.662  0.00  0.00    +0.000 C 
ATOM      2  C   UNL     1       3.581   3.718  18.737  0.00  0.00    +0.000 C 
ATOM      3  O   UNL     1       2.491   3.340  18.312  0.00  0.00    +0.000 OA
ATOM      4  N   UNL     1       4.114   4.954  18.433  0.00  0.00    +0.000 N 
ATOM      5  C   UNL     1       5.464   5.382  18.781  0.00  0.00    +0.000 C 
ATOM      6  C   UNL     1       5.878   6.596  17.944  0.00  0.00    +0.000 C 
ATOM      7  S   UNL     1       4.634   6.705  16.626  0.00  0.00    +0.000 S 
ATOM      8  C   UNL     1       3.349   5.927  17.663  0.00  0.00    +0.000 C 
ENDROOT
BRANCH   8   9
ATOM      9  C   UNL     1       2.592   6.881  18.597  0.00  0.00    +0.000 A 
ATOM     10  C   UNL     1       2.199   8.188  18.249  0.00  0.00    +0.000 A 
ATOM     11  C   UNL     1       1.560   9.025  19.170  0.00  0.00    +0.000 A 
ATOM     12  C   UNL     1       1.292   8.569  20.455  0.00  0.00    +0.000 A 
ATOM     13 CL   UNL     1       0.521   9.605  21.590  0.00  0.00    +0.000 Cl
ATOM     14  C   UNL     1       1.645   7.276  20.824  0.00  0.00    +0.000 A 
ATOM     15  C   UNL     1       2.281   6.440  19.900  0.00  0.00    +0.000 A 
ENDBRANCH   8   9
BRANCH   6  16
ATOM     16  C   UNL     1       7.295   6.458  17.398  0.00  0.00    +0.000 C 
BRANCH  16  17
ATOM     17  O   UNL     1       7.505   5.071  17.116  0.00  0.00    +0.000 OA
BRANCH  17  18
ATOM     18  C   UNL     1       7.014   4.592  15.936  0.00  0.00    +0.000 A 
ATOM     19  C   UNL     1       6.047   3.596  15.796  0.00  0.00    +0.000 A 
ATOM     20  C   UNL     1       5.621   3.209  14.520  0.00  0.00    +0.000 A 
ATOM     21  C   UNL     1       6.169   3.816  13.390  0.00  0.00    +0.000 A 
ATOM     22 CL   UNL     1       5.634   3.345  11.826  0.00  0.00    +0.000 Cl
ATOM     23  C   UNL     1       7.139   4.804  13.522  0.00  0.00    +0.000 A 
ATOM     24  C   UNL     1       7.562   5.188  14.796  0.00  0.00    +0.000 A 
ENDBRANCH  17  18
ENDBRANCH  16  17
ENDBRANCH   6  16
TORSDOF 4
ENDMDL
MODEL 9
REMARK VINA RESULT:      -7.0      1.155      1.357
REMARK  Name = 
REMARK  5 active torsions:
REMARK  status: ('A' for Active; 'I' for Inactive)
REMARK    1  A    between atoms: C_1  and  C_2
REMARK    2  A    between atoms: C_6  and  C_7
REMARK    3  A    between atoms: C_7  and  O_8
REMARK    4  A    between atoms: O_8  and  C_9
REMARK    5  A    between atoms: C_17  and  C_18
REMARK                            x       y       z     vdW  Elec       q    Type
REMARK                         _______ _______ _______ _____ _____    ______ ____
ROOT
ATOM      1  C   UNL     1       1.665   2.137  18.011  0.00  0.00    +0.000 C 
ATOM      2  C   UNL     1       3.114   2.469  18.272  0.00  0.00    +0.000 C 
ATOM      3  O   UNL     1       3.936   1.573  18.462  0.00  0.00    +0.000 OA
ATOM      4  N   UNL     1       3.455   3.805  18.252  0.00  0.00    +0.000 N 
ATOM      5  C   UNL     1       2.498   4.903  18.190  0.00  0.00    +0.000 C 
ATOM      6  C   UNL     1       3.157   6.219  18.615  0.00  0.00    +0.000 C 
ATOM      7  S   UNL     1       4.735   5.732  19.372  0.00  0.00    +0.000 S 
ATOM      8  C   UNL     1       4.849   4.220  18.356  0.00  0.00    +0.000 C 
ENDROOT
BRANCH   8   9
ATOM      9  C   UNL     1       5.460   4.411  16.961  0.00  0.00    +0.000 A 
ATOM     10  C   UNL     1       4.902   3.901  15.772  0.00  0.00    +0.000 A 
ATOM     11  C   UNL     1       5.542   4.065  14.539  0.00  0.00    +0.000 A 
ATOM     12  C   UNL     1       6.748   4.751  14.467  0.00  0.00    +0.000 A 
ATOM     13 CL   UNL     1       7.540   4.937  12.953  0.00  0.00    +0.000 Cl
ATOM     14  C   UNL     1       7.314   5.288  15.618  0.00  0.00    +0.000 A 
ATOM     15  C   UNL     1       6.671   5.125  16.849  0.00  0.00    +0.000 A 
ENDBRANCH   8   9
BRANCH   6  16
ATOM     16  C   UNL     1       2.276   7.019  19.567  0.00  0.00    +0.000 C 
BRANCH  16  17
ATOM     17  O   UNL     1       2.428   8.400  19.223  0.00  0.00    +0.000 OA
BRANCH  17  18
ATOM     18  C   UNL     1       1.291   9.148  19.123  0.00  0.00    +0.000 A 
ATOM     19  C   UNL     1       0.633   9.483  17.940  0.00  0.00    +0.000 A 
ATOM     20  C   UNL     1      -0.539  10.249  17.985  0.00  0.00    +0.000 A 
ATOM     21  C   UNL     1      -1.042  10.680  19.211  0.00  0.00    +0.000 A 
ATOM     22 CL   UNL     1      -2.487  11.609  19.260  0.00  0.00    +0.000 Cl
ATOM     23  C   UNL     1      -0.386  10.356  20.395  0.00  0.00    +0.000 A 
ATOM     24  C   UNL     1       0.782   9.592  20.347  0.00  0.00    +0.000 A 
ENDBRANCH  17  18
ENDBRANCH  16  17
ENDBRANCH   6  16
TORSDOF 4
ENDMDL
