MODEL 1
REMARK VINA RESULT:      -7.5      0.000      0.000
REMARK  Name = 
REMARK  8 active torsions:
REMARK  status: ('A' for Active; 'I' for Inactive)
REMARK    1  A    between atoms: C_1  and  C_2
REMARK    2  A    between atoms: C_2  and  O_3
REMARK    3  A    between atoms: O_3  and  C_4
REMARK    4  A    between atoms: C_4  and  C_6
REMARK    5  A    between atoms: C_12  and  N_13
REMARK    6  A    between atoms: C_14  and  C_16
REMARK    7  A    between atoms: C_16  and  C_17
REMARK    8  A    between atoms: C_17  and  N_18
REMARK                            x       y       z     vdW  Elec       q    Type
REMARK                         _______ _______ _______ _____ _____    ______ ____
ROOT
ATOM      1  C   UNL     1      -2.537  11.134  18.592  0.00  0.00    +0.000 A 
ATOM      2  C   UNL     1      -2.893  12.158  19.499  0.00  0.00    +0.000 A 
ATOM      3  C   UNL     1      -1.742  12.636  20.110  0.00  0.00    +0.000 A 
ATOM      4  N   UNL     1      -0.674  11.864  19.666  0.00  0.00    +0.000 N 
ATOM      5  C   UNL     1       0.692  11.893  19.981  0.00  0.00    +0.000 A 
ATOM      6  C   UNL     1       1.543  11.017  19.400  0.00  0.00    +0.000 A 
ATOM      7  C   UNL     1       1.042  10.069  18.399  0.00  0.00    +0.000 A 
ATOM      8  C   UNL     1      -0.274  10.051  18.120  0.00  0.00    +0.000 A 
ATOM      9  C   UNL     1      -1.180  10.946  18.751  0.00  0.00    +0.000 A 
ATOM     10  C   UNL     1      -1.753  13.748  21.045  0.00  0.00    +0.000 C 
ATOM     11  O   UNL     1      -0.750  14.175  21.602  0.00  0.00    +0.000 OA
ATOM     12  C   UNL     1      -3.122  14.370  21.280  0.00  0.00    +0.000 A 
ATOM     13  N   UNL     1      -3.182  15.438  22.123  0.00  0.00    +0.000 NA
ATOM     14  C   UNL     1      -4.403  15.992  22.338  0.00  0.00    +0.000 A 
ATOM     15  C   UNL     1      -5.575  15.547  21.751  0.00  0.00    +0.000 A 
ATOM     16  C   UNL     1      -5.502  14.461  20.894  0.00  0.00    +0.000 A 
ATOM     17  C   UNL     1      -4.262  13.858  20.663  0.00  0.00    +0.000 A 
ATOM     18  C   UNL     1      -4.208  12.675  19.798  0.00  0.00    +0.000 C 
ATOM     19  O   UNL     1      -5.247  12.151  19.414  0.00  0.00    +0.000 OA
ENDROOT
BRANCH   7  20
ATOM     20  N   UNL     1       1.941   9.216  17.779  0.00  0.00    +0.000 N 
ATOM     21  C   UNL     1       2.477   8.063  18.344  0.00  0.00    +0.000 C 
ATOM     22  O   UNL     1       2.133   7.565  19.417  0.00  0.00    +0.000 OA
ATOM     23  H   UNL     1       2.142   9.387  16.800  0.00  0.00    +0.000 HD
BRANCH  21  24
ATOM     24  C   UNL     1       3.530   7.365  17.514  0.00  0.00    +0.000 C 
BRANCH  24  25
ATOM     25  C   UNL     1       4.070   6.113  18.206  0.00  0.00    +0.000 C 
BRANCH  25  26
ATOM     26  N   UNL     1       5.351   5.671  17.626  0.00  0.00    +0.000 NA
ATOM     27  C   UNL     1       6.150   4.828  18.534  0.00  0.00    +0.000 C 
ATOM     28  C   UNL     1       7.245   5.722  19.079  0.00  0.00    +0.000 C 
ATOM     29  C   UNL     1       7.562   6.595  17.889  0.00  0.00    +0.000 C 
ATOM     30  C   UNL     1       6.198   6.824  17.251  0.00  0.00    +0.000 C 
ENDBRANCH  25  26
ENDBRANCH  24  25
ENDBRANCH  21  24
ENDBRANCH   7  20
BRANCH   1  31
ATOM     31  C   UNL     1      -3.369  10.451  17.612  0.00  0.00    +0.000 C 
ATOM     32  O   UNL     1      -3.835   9.331  17.775  0.00  0.00    +0.000 OA
BRANCH  31  33
ATOM     33  O   UNL     1      -3.393  11.142  16.441  0.00  0.00    +0.000 OA
BRANCH  33  35
ATOM     34  C   UNL     1      -3.802  10.106  14.353  0.00  0.00    +0.000 C 
ATOM     35  C   UNL     1      -2.728  10.522  15.341  0.00  0.00    +0.000 C 
ENDBRANCH  33  35
ENDBRANCH  31  33
ENDBRANCH   1  31
TORSDOF 7
ENDMDL
MODEL 2
REMARK VINA RESULT:      -7.4      2.048      2.368
REMARK  Name = 
REMARK  8 active torsions:
REMARK  status: ('A' for Active; 'I' for Inactive)
REMARK    1  A    between atoms: C_1  and  C_2
REMARK    2  A    between atoms: C_2  and  O_3
REMARK    3  A    between atoms: O_3  and  C_4
REMARK    4  A    between atoms: C_4  and  C_6
REMARK    5  A    between atoms: C_12  and  N_13
REMARK    6  A    between atoms: C_14  and  C_16
REMARK    7  A    between atoms: C_16  and  C_17
REMARK    8  A    between atoms: C_17  and  N_18
REMARK                            x       y       z     vdW  Elec       q    Type
REMARK                         _______ _______ _______ _____ _____    ______ ____
ROOT
ATOM      1  C   UNL     1      -1.190  10.991  18.941  0.00  0.00    +0.000 A 
ATOM      2  C   UNL     1      -1.746  11.424  20.167  0.00  0.00    +0.000 A 
ATOM      3  C   UNL     1      -0.983  10.917  21.210  0.00  0.00    +0.000 A 
ATOM      4  N   UNL     1      -0.005  10.096  20.659  0.00  0.00    +0.000 N 
ATOM      5  C   UNL     1       1.001   9.319  21.251  0.00  0.00    +0.000 A 
ATOM      6  C   UNL     1       1.844   8.594  20.480  0.00  0.00    +0.000 A 
ATOM      7  C   UNL     1       1.736   8.663  19.019  0.00  0.00    +0.000 A 
ATOM      8  C   UNL     1       0.755   9.406  18.472  0.00  0.00    +0.000 A 
ATOM      9  C   UNL     1      -0.155  10.143  19.277  0.00  0.00    +0.000 A 
ATOM     10  C   UNL     1      -1.243  11.238  22.602  0.00  0.00    +0.000 C 
ATOM     11  O   UNL     1      -0.589  10.792  23.536  0.00  0.00    +0.000 OA
ATOM     12  C   UNL     1      -2.401  12.200  22.829  0.00  0.00    +0.000 A 
ATOM     13  N   UNL     1      -2.666  12.560  24.115  0.00  0.00    +0.000 NA
ATOM     14  C   UNL     1      -3.703  13.414  24.321  0.00  0.00    +0.000 A 
ATOM     15  C   UNL     1      -4.489  13.942  23.311  0.00  0.00    +0.000 A 
ATOM     16  C   UNL     1      -4.210  13.570  22.006  0.00  0.00    +0.000 A 
ATOM     17  C   UNL     1      -3.160  12.680  21.762  0.00  0.00    +0.000 A 
ATOM     18  C   UNL     1      -2.910  12.252  20.382  0.00  0.00    +0.000 C 
ATOM     19  O   UNL     1      -3.700  12.556  19.496  0.00  0.00    +0.000 OA
ENDROOT
BRANCH   7  20
ATOM     20  N   UNL     1       2.642   7.953  18.248  0.00  0.00    +0.000 N 
ATOM     21  C   UNL     1       2.801   6.571  18.261  0.00  0.00    +0.000 C 
ATOM     22  O   UNL     1       2.075   5.772  18.856  0.00  0.00    +0.000 OA
ATOM     23  H   UNL     1       3.155   8.469  17.543  0.00  0.00    +0.000 HD
BRANCH  21  24
ATOM     24  C   UNL     1       3.939   6.042  17.420  0.00  0.00    +0.000 C 
BRANCH  24  25
ATOM     25  C   UNL     1       5.140   5.628  18.272  0.00  0.00    +0.000 C 
BRANCH  25  26
ATOM     26  N   UNL     1       5.838   4.458  17.711  0.00  0.00    +0.000 NA
ATOM     27  C   UNL     1       7.165   4.774  17.153  0.00  0.00    +0.000 C 
ATOM     28  C   UNL     1       6.991   4.802  15.649  0.00  0.00    +0.000 C 
ATOM     29  C   UNL     1       5.982   3.700  15.428  0.00  0.00    +0.000 C 
ATOM     30  C   UNL     1       5.052   3.833  16.625  0.00  0.00    +0.000 C 
ENDBRANCH  25  26
ENDBRANCH  24  25
ENDBRANCH  21  24
ENDBRANCH   7  20
BRANCH   1  31
ATOM     31  C   UNL     1      -1.539  11.393  17.587  0.00  0.00    +0.000 C 
ATOM     32  O   UNL     1      -1.354  12.517  17.139  0.00  0.00    +0.000 OA
BRANCH  31  33
ATOM     33  O   UNL     1      -2.257  10.416  16.969  0.00  0.00    +0.000 OA
BRANCH  33  35
ATOM     34  C   UNL     1      -3.205  10.367  14.801  0.00  0.00    +0.000 C 
ATOM     35  C   UNL     1      -3.392  10.857  16.225  0.00  0.00    +0.000 C 
ENDBRANCH  33  35
ENDBRANCH  31  33
ENDBRANCH   1  31
TORSDOF 7
ENDMDL
MODEL 3
REMARK VINA RESULT:      -7.4      3.459     10.627
REMARK  Name = 
REMARK  8 active torsions:
REMARK  status: ('A' for Active; 'I' for Inactive)
REMARK    1  A    between atoms: C_1  and  C_2
REMARK    2  A    between atoms: C_2  and  O_3
REMARK    3  A    between atoms: O_3  and  C_4
REMARK    4  A    between atoms: C_4  and  C_6
REMARK    5  A    between atoms: C_12  and  N_13
REMARK    6  A    between atoms: C_14  and  C_16
REMARK    7  A    between atoms: C_16  and  C_17
REMARK    8  A    between atoms: C_17  and  N_18
REMARK                            x       y       z     vdW  Elec       q    Type
REMARK                         _______ _______ _______ _____ _____    ______ ____
ROOT
ATOM      1  C   UNL     1       2.271   5.524  19.937  0.00  0.00    +0.000 A 
ATOM      2  C   UNL     1       3.104   5.497  18.795  0.00  0.00    +0.000 A 
ATOM      3  C   UNL     1       3.141   6.768  18.236  0.00  0.00    +0.000 A 
ATOM      4  N   UNL     1       2.270   7.574  18.960  0.00  0.00    +0.000 N 
ATOM      5  C   UNL     1       1.904   8.920  18.810  0.00  0.00    +0.000 A 
ATOM      6  C   UNL     1       1.018   9.483  19.664  0.00  0.00    +0.000 A 
ATOM      7  C   UNL     1       0.480   8.697  20.779  0.00  0.00    +0.000 A 
ATOM      8  C   UNL     1       0.836   7.404  20.897  0.00  0.00    +0.000 A 
ATOM      9  C   UNL     1       1.740   6.796  19.984  0.00  0.00    +0.000 A 
ATOM     10  C   UNL     1       3.969   7.097  17.089  0.00  0.00    +0.000 C 
ATOM     11  O   UNL     1       4.006   8.208  16.576  0.00  0.00    +0.000 OA
ATOM     12  C   UNL     1       4.819   5.948  16.564  0.00  0.00    +0.000 A 
ATOM     13  N   UNL     1       5.639   6.214  15.510  0.00  0.00    +0.000 NA
ATOM     14  C   UNL     1       6.394   5.189  15.037  0.00  0.00    +0.000 A 
ATOM     15  C   UNL     1       6.387   3.908  15.563  0.00  0.00    +0.000 A 
ATOM     16  C   UNL     1       5.550   3.649  16.636  0.00  0.00    +0.000 A 
ATOM     17  C   UNL     1       4.748   4.679  17.137  0.00  0.00    +0.000 A 
ATOM     18  C   UNL     1       3.826   4.378  18.237  0.00  0.00    +0.000 C 
ATOM     19  O   UNL     1       3.665   3.218  18.599  0.00  0.00    +0.000 OA
ENDROOT
BRANCH   7  20
ATOM     20  N   UNL     1      -0.386   9.310  21.671  0.00  0.00    +0.000 N 
ATOM     21  C   UNL     1      -0.201  10.568  22.235  0.00  0.00    +0.000 C 
ATOM     22  O   UNL     1       0.682  11.369  21.926  0.00  0.00    +0.000 OA
ATOM     23  H   UNL     1      -1.273   8.853  21.842  0.00  0.00    +0.000 HD
BRANCH  21  24
ATOM     24  C   UNL     1      -1.225  10.968  23.273  0.00  0.00    +0.000 C 
BRANCH  24  25
ATOM     25  C   UNL     1      -1.954  12.257  22.893  0.00  0.00    +0.000 C 
BRANCH  25  26
ATOM     26  N   UNL     1      -3.419  12.109  22.980  0.00  0.00    +0.000 NA
ATOM     27  C   UNL     1      -4.145  12.778  21.885  0.00  0.00    +0.000 C 
ATOM     28  C   UNL     1      -4.710  14.053  22.475  0.00  0.00    +0.000 C 
ATOM     29  C   UNL     1      -5.068  13.621  23.877  0.00  0.00    +0.000 C 
ATOM     30  C   UNL     1      -3.941  12.667  24.247  0.00  0.00    +0.000 C 
ENDBRANCH  25  26
ENDBRANCH  24  25
ENDBRANCH  21  24
ENDBRANCH   7  20
BRANCH   1  31
ATOM     31  C   UNL     1       2.054   4.487  20.934  0.00  0.00    +0.000 C 
ATOM     32  O   UNL     1       2.887   4.156  21.767  0.00  0.00    +0.000 OA
BRANCH  31  33
ATOM     33  O   UNL     1       0.890   3.826  20.690  0.00  0.00    +0.000 OA
BRANCH  33  35
ATOM     34  C   UNL     1       0.586   2.401  18.825  0.00  0.00    +0.000 C 
ATOM     35  C   UNL     1       1.025   2.467  20.276  0.00  0.00    +0.000 C 
ENDBRANCH  33  35
ENDBRANCH  31  33
ENDBRANCH   1  31
TORSDOF 7
ENDMDL
MODEL 4
REMARK VINA RESULT:      -7.3      1.796      3.842
REMARK  Name = 
REMARK  8 active torsions:
REMARK  status: ('A' for Active; 'I' for Inactive)
REMARK    1  A    between atoms: C_1  and  C_2
REMARK    2  A    between atoms: C_2  and  O_3
REMARK    3  A    between atoms: O_3  and  C_4
REMARK    4  A    between atoms: C_4  and  C_6
REMARK    5  A    between atoms: C_12  and  N_13
REMARK    6  A    between atoms: C_14  and  C_16
REMARK    7  A    between atoms: C_16  and  C_17
REMARK    8  A    between atoms: C_17  and  N_18
REMARK                            x       y       z     vdW  Elec       q    Type
REMARK                         _______ _______ _______ _____ _____    ______ ____
ROOT
ATOM      1  C   UNL     1      -1.225  12.442  20.879  0.00  0.00    +0.000 A 
ATOM      2  C   UNL     1      -2.562  12.900  20.831  0.00  0.00    +0.000 A 
ATOM      3  C   UNL     1      -3.210  12.283  19.769  0.00  0.00    +0.000 A 
ATOM      4  N   UNL     1      -2.273  11.510  19.093  0.00  0.00    +0.000 N 
ATOM      5  C   UNL     1      -2.378  10.713  17.944  0.00  0.00    +0.000 A 
ATOM      6  C   UNL     1      -1.297  10.047  17.477  0.00  0.00    +0.000 A 
ATOM      7  C   UNL     1      -0.026  10.120  18.204  0.00  0.00    +0.000 A 
ATOM      8  C   UNL     1       0.056  10.901  19.298  0.00  0.00    +0.000 A 
ATOM      9  C   UNL     1      -1.067  11.630  19.775  0.00  0.00    +0.000 A 
ATOM     10  C   UNL     1      -4.621  12.481  19.489  0.00  0.00    +0.000 C 
ATOM     11  O   UNL     1      -5.207  11.955  18.551  0.00  0.00    +0.000 OA
ATOM     12  C   UNL     1      -5.345  13.394  20.469  0.00  0.00    +0.000 A 
ATOM     13  N   UNL     1      -6.678  13.586  20.271  0.00  0.00    +0.000 NA
ATOM     14  C   UNL     1      -7.325  14.404  21.141  0.00  0.00    +0.000 A 
ATOM     15  C   UNL     1      -6.718  15.039  22.211  0.00  0.00    +0.000 A 
ATOM     16  C   UNL     1      -5.361  14.836  22.405  0.00  0.00    +0.000 A 
ATOM     17  C   UNL     1      -4.663  14.011  21.517  0.00  0.00    +0.000 A 
ATOM     18  C   UNL     1      -3.217  13.848  21.701  0.00  0.00    +0.000 C 
ATOM     19  O   UNL     1      -2.624  14.539  22.522  0.00  0.00    +0.000 OA
ENDROOT
BRANCH   7  20
ATOM     20  N   UNL     1       1.054   9.389  17.736  0.00  0.00    +0.000 N 
ATOM     21  C   UNL     1       1.866   8.567  18.512  0.00  0.00    +0.000 C 
ATOM     22  O   UNL     1       1.666   8.268  19.691  0.00  0.00    +0.000 OA
ATOM     23  H   UNL     1       1.198   9.366  16.734  0.00  0.00    +0.000 HD
BRANCH  21  24
ATOM     24  C   UNL     1       3.055   7.969  17.795  0.00  0.00    +0.000 C 
BRANCH  24  25
ATOM     25  C   UNL     1       3.123   6.450  17.963  0.00  0.00    +0.000 C 
BRANCH  25  26
ATOM     26  N   UNL     1       4.492   5.935  17.781  0.00  0.00    +0.000 NA
ATOM     27  C   UNL     1       5.281   6.695  16.795  0.00  0.00    +0.000 C 
ATOM     28  C   UNL     1       5.300   5.853  15.536  0.00  0.00    +0.000 C 
ATOM     29  C   UNL     1       5.366   4.451  16.094  0.00  0.00    +0.000 C 
ATOM     30  C   UNL     1       4.480   4.526  17.330  0.00  0.00    +0.000 C 
ENDBRANCH  25  26
ENDBRANCH  24  25
ENDBRANCH  21  24
ENDBRANCH   7  20
BRANCH   1  31
ATOM     31  C   UNL     1      -0.215  12.675  21.900  0.00  0.00    +0.000 C 
ATOM     32  O   UNL     1       0.354  13.746  22.065  0.00  0.00    +0.000 OA
BRANCH  31  33
ATOM     33  O   UNL     1       0.133  11.507  22.503  0.00  0.00    +0.000 OA
BRANCH  33  35
ATOM     34  C   UNL     1      -0.577   9.289  22.924  0.00  0.00    +0.000 C 
ATOM     35  C   UNL     1      -0.942  10.755  23.066  0.00  0.00    +0.000 C 
ENDBRANCH  33  35
ENDBRANCH  31  33
ENDBRANCH   1  31
TORSDOF 7
ENDMDL
MODEL 5
REMARK VINA RESULT:      -7.3      1.294      1.933
REMARK  Name = 
REMARK  8 active torsions:
REMARK  status: ('A' for Active; 'I' for Inactive)
REMARK    1  A    between atoms: C_1  and  C_2
REMARK    2  A    between atoms: C_2  and  O_3
REMARK    3  A    between atoms: O_3  and  C_4
REMARK    4  A    between atoms: C_4  and  C_6
REMARK    5  A    between atoms: C_12  and  N_13
REMARK    6  A    between atoms: C_14  and  C_16
REMARK    7  A    between atoms: C_16  and  C_17
REMARK    8  A    between atoms: C_17  and  N_18
REMARK                            x       y       z     vdW  Elec       q    Type
REMARK                         _______ _______ _______ _____ _____    ______ ____
ROOT
ATOM      1  C   UNL     1      -2.576  11.288  18.756  0.00  0.00    +0.000 A 
ATOM      2  C   UNL     1      -2.886  12.323  19.668  0.00  0.00    +0.000 A 
ATOM      3  C   UNL     1      -1.718  12.724  20.305  0.00  0.00    +0.000 A 
ATOM      4  N   UNL     1      -0.692  11.893  19.870  0.00  0.00    +0.000 N 
ATOM      5  C   UNL     1       0.668  11.835  20.210  0.00  0.00    +0.000 A 
ATOM      6  C   UNL     1       1.474  10.914  19.634  0.00  0.00    +0.000 A 
ATOM      7  C   UNL     1       0.935  10.009  18.614  0.00  0.00    +0.000 A 
ATOM      8  C   UNL     1      -0.375  10.074  18.312  0.00  0.00    +0.000 A 
ATOM      9  C   UNL     1      -1.236  11.016  18.938  0.00  0.00    +0.000 A 
ATOM     10  C   UNL     1      -1.678  13.825  21.251  0.00  0.00    +0.000 C 
ATOM     11  O   UNL     1      -0.662  14.185  21.831  0.00  0.00    +0.000 OA
ATOM     12  C   UNL     1      -3.011  14.527  21.470  0.00  0.00    +0.000 A 
ATOM     13  N   UNL     1      -3.021  15.589  22.323  0.00  0.00    +0.000 NA
ATOM     14  C   UNL     1      -4.210  16.214  22.523  0.00  0.00    +0.000 A 
ATOM     15  C   UNL     1      -5.397  15.847  21.911  0.00  0.00    +0.000 A 
ATOM     16  C   UNL     1      -5.375  14.767  21.044  0.00  0.00    +0.000 A 
ATOM     17  C   UNL     1      -4.169  14.091  20.828  0.00  0.00    +0.000 A 
ATOM     18  C   UNL     1      -4.171  12.916  19.950  0.00  0.00    +0.000 C 
ATOM     19  O   UNL     1      -5.233  12.460  19.543  0.00  0.00    +0.000 OA
ENDROOT
BRANCH   7  20
ATOM     20  N   UNL     1       1.791   9.110  18.000  0.00  0.00    +0.000 N 
ATOM     21  C   UNL     1       2.339   7.981  18.602  0.00  0.00    +0.000 C 
ATOM     22  O   UNL     1       2.041   7.548  19.717  0.00  0.00    +0.000 OA
ATOM     23  H   UNL     1       1.946   9.222  17.005  0.00  0.00    +0.000 HD
BRANCH  21  24
ATOM     24  C   UNL     1       3.341   7.222  17.763  0.00  0.00    +0.000 C 
BRANCH  24  25
ATOM     25  C   UNL     1       3.615   5.824  18.320  0.00  0.00    +0.000 C 
BRANCH  25  26
ATOM     26  N   UNL     1       3.054   4.767  17.460  0.00  0.00    +0.000 NA
ATOM     27  C   UNL     1       1.648   4.442  17.766  0.00  0.00    +0.000 C 
ATOM     28  C   UNL     1       1.678   3.142  18.542  0.00  0.00    +0.000 C 
ATOM     29  C   UNL     1       2.818   2.405  17.879  0.00  0.00    +0.000 C 
ATOM     30  C   UNL     1       3.823   3.509  17.583  0.00  0.00    +0.000 C 
ENDBRANCH  25  26
ENDBRANCH  24  25
ENDBRANCH  21  24
ENDBRANCH   7  20
BRANCH   1  31
ATOM     31  C   UNL     1      -3.430  10.667  17.755  0.00  0.00    +0.000 C 
ATOM     32  O   UNL     1      -3.910   9.546  17.868  0.00  0.00    +0.000 OA
BRANCH  31  33
ATOM     33  O   UNL     1      -3.460  11.417  16.621  0.00  0.00    +0.000 OA
BRANCH  33  35
ATOM     34  C   UNL     1      -2.858  10.078  14.764  0.00  0.00    +0.000 C 
ATOM     35  C   UNL     1      -4.007  10.776  15.468  0.00  0.00    +0.000 C 
ENDBRANCH  33  35
ENDBRANCH  31  33
ENDBRANCH   1  31
TORSDOF 7
ENDMDL
MODEL 6
REMARK VINA RESULT:      -7.3      2.444      9.446
REMARK  Name = 
REMARK  8 active torsions:
REMARK  status: ('A' for Active; 'I' for Inactive)
REMARK    1  A    between atoms: C_1  and  C_2
REMARK    2  A    between atoms: C_2  and  O_3
REMARK    3  A    between atoms: O_3  and  C_4
REMARK    4  A    between atoms: C_4  and  C_6
REMARK    5  A    between atoms: C_12  and  N_13
REMARK    6  A    between atoms: C_14  and  C_16
REMARK    7  A    between atoms: C_16  and  C_17
REMARK    8  A    between atoms: C_17  and  N_18
REMARK                            x       y       z     vdW  Elec       q    Type
REMARK                         _______ _______ _______ _____ _____    ______ ____
ROOT
ATOM      1  C   UNL     1       0.045  10.954  19.445  0.00  0.00    +0.000 A 
ATOM      2  C   UNL     1       0.908   9.839  19.342  0.00  0.00    +0.000 A 
ATOM      3  C   UNL     1       0.827   9.100  20.515  0.00  0.00    +0.000 A 
ATOM      4  N   UNL     1      -0.008   9.785  21.391  0.00  0.00    +0.000 N 
ATOM      5  C   UNL     1      -0.407   9.508  22.707  0.00  0.00    +0.000 A 
ATOM      6  C   UNL     1      -1.245  10.349  23.355  0.00  0.00    +0.000 A 
ATOM      7  C   UNL     1      -1.776  11.526  22.660  0.00  0.00    +0.000 A 
ATOM      8  C   UNL     1      -1.371  11.779  21.402  0.00  0.00    +0.000 A 
ATOM      9  C   UNL     1      -0.464  10.918  20.726  0.00  0.00    +0.000 A 
ATOM     10  C   UNL     1       1.536   7.846  20.704  0.00  0.00    +0.000 C 
ATOM     11  O   UNL     1       1.487   7.187  21.735  0.00  0.00    +0.000 OA
ATOM     12  C   UNL     1       2.353   7.388  19.504  0.00  0.00    +0.000 A 
ATOM     13  N   UNL     1       3.010   6.201  19.617  0.00  0.00    +0.000 NA
ATOM     14  C   UNL     1       3.743   5.793  18.549  0.00  0.00    +0.000 A 
ATOM     15  C   UNL     1       3.852   6.498  17.362  0.00  0.00    +0.000 A 
ATOM     16  C   UNL     1       3.177   7.703  17.257  0.00  0.00    +0.000 A 
ATOM     17  C   UNL     1       2.426   8.160  18.345  0.00  0.00    +0.000 A 
ATOM     18  C   UNL     1       1.762   9.464  18.241  0.00  0.00    +0.000 C 
ATOM     19  O   UNL     1       1.989  10.189  17.280  0.00  0.00    +0.000 OA
ENDROOT
BRANCH   7  20
ATOM     20  N   UNL     1      -2.673  12.346  23.327  0.00  0.00    +0.000 N 
ATOM     21  C   UNL     1      -2.454  13.681  23.654  0.00  0.00    +0.000 C 
ATOM     22  O   UNL     1      -1.494  14.360  23.286  0.00  0.00    +0.000 OA
ATOM     23  H   UNL     1      -3.602  11.977  23.493  0.00  0.00    +0.000 HD
BRANCH  21  24
ATOM     24  C   UNL     1      -3.535  14.328  24.488  0.00  0.00    +0.000 C 
BRANCH  24  25
ATOM     25  C   UNL     1      -4.817  14.560  23.687  0.00  0.00    +0.000 C 
BRANCH  25  26
ATOM     26  N   UNL     1      -5.432  13.293  23.250  0.00  0.00    +0.000 NA
ATOM     27  C   UNL     1      -5.984  13.346  21.884  0.00  0.00    +0.000 C 
ATOM     28  C   UNL     1      -7.484  13.475  22.043  0.00  0.00    +0.000 C 
ATOM     29  C   UNL     1      -7.747  12.621  23.262  0.00  0.00    +0.000 C 
ATOM     30  C   UNL     1      -6.539  12.897  24.147  0.00  0.00    +0.000 C 
ENDBRANCH  25  26
ENDBRANCH  24  25
ENDBRANCH  21  24
ENDBRANCH   7  20
BRANCH   1  31
ATOM     31  C   UNL     1      -0.331  11.916  18.420  0.00  0.00    +0.000 C 
ATOM     32  O   UNL     1       0.319  12.919  18.154  0.00  0.00    +0.000 OA
BRANCH  31  33
ATOM     33  O   UNL     1      -1.576  11.646  17.944  0.00  0.00    +0.000 OA
BRANCH  33  35
ATOM     34  C   UNL     1      -3.101   9.856  17.668  0.00  0.00    +0.000 C 
ATOM     35  C   UNL     1      -1.730  10.387  17.289  0.00  0.00    +0.000 C 
ENDBRANCH  33  35
ENDBRANCH  31  33
ENDBRANCH   1  31
TORSDOF 7
ENDMDL
MODEL 7
REMARK VINA RESULT:      -7.3      2.056      4.039
REMARK  Name = 
REMARK  8 active torsions:
REMARK  status: ('A' for Active; 'I' for Inactive)
REMARK    1  A    between atoms: C_1  and  C_2
REMARK    2  A    between atoms: C_2  and  O_3
REMARK    3  A    between atoms: O_3  and  C_4
REMARK    4  A    between atoms: C_4  and  C_6
REMARK    5  A    between atoms: C_12  and  N_13
REMARK    6  A    between atoms: C_14  and  C_16
REMARK    7  A    between atoms: C_16  and  C_17
REMARK    8  A    between atoms: C_17  and  N_18
REMARK                            x       y       z     vdW  Elec       q    Type
REMARK                         _______ _______ _______ _____ _____    ______ ____
ROOT
ATOM      1  C   UNL     1      -1.505  12.489  21.064  0.00  0.00    +0.000 A 
ATOM      2  C   UNL     1      -2.830  12.978  21.011  0.00  0.00    +0.000 A 
ATOM      3  C   UNL     1      -3.469  12.427  19.908  0.00  0.00    +0.000 A 
ATOM      4  N   UNL     1      -2.535  11.666  19.215  0.00  0.00    +0.000 N 
ATOM      5  C   UNL     1      -2.633  10.926  18.027  0.00  0.00    +0.000 A 
ATOM      6  C   UNL     1      -1.556  10.259  17.551  0.00  0.00    +0.000 A 
ATOM      7  C   UNL     1      -0.300  10.269  18.307  0.00  0.00    +0.000 A 
ATOM      8  C   UNL     1      -0.225  10.995  19.437  0.00  0.00    +0.000 A 
ATOM      9  C   UNL     1      -1.341  11.726  19.926  0.00  0.00    +0.000 A 
ATOM     10  C   UNL     1      -4.870  12.669  19.610  0.00  0.00    +0.000 C 
ATOM     11  O   UNL     1      -5.447  12.201  18.637  0.00  0.00    +0.000 OA
ATOM     12  C   UNL     1      -5.594  13.550  20.617  0.00  0.00    +0.000 A 
ATOM     13  N   UNL     1      -6.919  13.781  20.402  0.00  0.00    +0.000 NA
ATOM     14  C   UNL     1      -7.566  14.572  21.297  0.00  0.00    +0.000 A 
ATOM     15  C   UNL     1      -6.968  15.142  22.408  0.00  0.00    +0.000 A 
ATOM     16  C   UNL     1      -5.620  14.900  22.618  0.00  0.00    +0.000 A 
ATOM     17  C   UNL     1      -4.921  14.103  21.707  0.00  0.00    +0.000 A 
ATOM     18  C   UNL     1      -3.483  13.899  21.912  0.00  0.00    +0.000 C 
ATOM     19  O   UNL     1      -2.894  14.537  22.776  0.00  0.00    +0.000 OA
ENDROOT
BRANCH   7  20
ATOM     20  N   UNL     1       0.774   9.537  17.826  0.00  0.00    +0.000 N 
ATOM     21  C   UNL     1       1.639   8.771  18.603  0.00  0.00    +0.000 C 
ATOM     22  O   UNL     1       1.498   8.529  19.803  0.00  0.00    +0.000 OA
ATOM     23  H   UNL     1       0.873   9.466  16.820  0.00  0.00    +0.000 HD
BRANCH  21  24
ATOM     24  C   UNL     1       2.806   8.162  17.863  0.00  0.00    +0.000 C 
BRANCH  24  25
ATOM     25  C   UNL     1       3.263   6.846  18.494  0.00  0.00    +0.000 C 
BRANCH  25  26
ATOM     26  N   UNL     1       2.945   5.685  17.644  0.00  0.00    +0.000 NA
ATOM     27  C   UNL     1       2.014   4.731  18.274  0.00  0.00    +0.000 C 
ATOM     28  C   UNL     1       2.861   3.564  18.737  0.00  0.00    +0.000 C 
ATOM     29  C   UNL     1       3.896   3.470  17.642  0.00  0.00    +0.000 C 
ATOM     30  C   UNL     1       4.164   4.927  17.290  0.00  0.00    +0.000 C 
ENDBRANCH  25  26
ENDBRANCH  24  25
ENDBRANCH  21  24
ENDBRANCH   7  20
BRANCH   1  31
ATOM     31  C   UNL     1      -0.512  12.651  22.115  0.00  0.00    +0.000 C 
ATOM     32  O   UNL     1       0.585  13.166  21.943  0.00  0.00    +0.000 OA
BRANCH  31  33
ATOM     33  O   UNL     1      -0.896  11.992  23.241  0.00  0.00    +0.000 OA
BRANCH  33  35
ATOM     34  C   UNL     1       0.084   9.845  23.064  0.00  0.00    +0.000 C 
ATOM     35  C   UNL     1      -1.225  10.614  23.071  0.00  0.00    +0.000 C 
ENDBRANCH  33  35
ENDBRANCH  31  33
ENDBRANCH   1  31
TORSDOF 7
ENDMDL
MODEL 8
REMARK VINA RESULT:      -7.2      1.953      2.287
REMARK  Name = 
REMARK  8 active torsions:
REMARK  status: ('A' for Active; 'I' for Inactive)
REMARK    1  A    between atoms: C_1  and  C_2
REMARK    2  A    between atoms: C_2  and  O_3
REMARK    3  A    between atoms: O_3  and  C_4
REMARK    4  A    between atoms: C_4  and  C_6
REMARK    5  A    between atoms: C_12  and  N_13
REMARK    6  A    between atoms: C_14  and  C_16
REMARK    7  A    between atoms: C_16  and  C_17
REMARK    8  A    between atoms: C_17  and  N_18
REMARK                            x       y       z     vdW  Elec       q    Type
REMARK                         _______ _______ _______ _____ _____    ______ ____
ROOT
ATOM      1  C   UNL     1      -0.969  10.960  18.918  0.00  0.00    +0.000 A 
ATOM      2  C   UNL     1      -1.538  11.387  20.139  0.00  0.00    +0.000 A 
ATOM      3  C   UNL     1      -0.830  10.816  21.189  0.00  0.00    +0.000 A 
ATOM      4  N   UNL     1       0.121   9.962  20.642  0.00  0.00    +0.000 N 
ATOM      5  C   UNL     1       1.071   9.121  21.240  0.00  0.00    +0.000 A 
ATOM      6  C   UNL     1       1.899   8.376  20.472  0.00  0.00    +0.000 A 
ATOM      7  C   UNL     1       1.836   8.488  19.011  0.00  0.00    +0.000 A 
ATOM      8  C   UNL     1       0.908   9.293  18.459  0.00  0.00    +0.000 A 
ATOM      9  C   UNL     1       0.013  10.053  19.259  0.00  0.00    +0.000 A 
ATOM     10  C   UNL     1      -1.115  11.113  22.582  0.00  0.00    +0.000 C 
ATOM     11  O   UNL     1      -0.510  10.610  23.520  0.00  0.00    +0.000 OA
ATOM     12  C   UNL     1      -2.230  12.124  22.804  0.00  0.00    +0.000 A 
ATOM     13  N   UNL     1      -2.514  12.464  24.092  0.00  0.00    +0.000 NA
ATOM     14  C   UNL     1      -3.513  13.362  24.292  0.00  0.00    +0.000 A 
ATOM     15  C   UNL     1      -4.244  13.954  23.276  0.00  0.00    +0.000 A 
ATOM     16  C   UNL     1      -3.946  13.604  21.970  0.00  0.00    +0.000 A 
ATOM     17  C   UNL     1      -2.934  12.669  21.730  0.00  0.00    +0.000 A 
ATOM     18  C   UNL     1      -2.666  12.265  20.346  0.00  0.00    +0.000 C 
ATOM     19  O   UNL     1      -3.414  12.632  19.447  0.00  0.00    +0.000 OA
ENDROOT
BRANCH   7  20
ATOM     20  N   UNL     1       2.728   7.754  18.246  0.00  0.00    +0.000 N 
ATOM     21  C   UNL     1       2.886   6.372  18.298  0.00  0.00    +0.000 C 
ATOM     22  O   UNL     1       2.171   5.593  18.930  0.00  0.00    +0.000 OA
ATOM     23  H   UNL     1       3.228   8.248  17.516  0.00  0.00    +0.000 HD
BRANCH  21  24
ATOM     24  C   UNL     1       4.009   5.818  17.452  0.00  0.00    +0.000 C 
BRANCH  24  25
ATOM     25  C   UNL     1       4.780   6.921  16.726  0.00  0.00    +0.000 C 
BRANCH  25  26
ATOM     26  N   UNL     1       6.223   6.628  16.650  0.00  0.00    +0.000 NA
ATOM     27  C   UNL     1       6.577   5.280  17.130  0.00  0.00    +0.000 C 
ATOM     28  C   UNL     1       7.167   5.469  18.512  0.00  0.00    +0.000 C 
ATOM     29  C   UNL     1       7.916   6.771  18.360  0.00  0.00    +0.000 C 
ATOM     30  C   UNL     1       7.010   7.591  17.451  0.00  0.00    +0.000 C 
ENDBRANCH  25  26
ENDBRANCH  24  25
ENDBRANCH  21  24
ENDBRANCH   7  20
BRANCH   1  31
ATOM     31  C   UNL     1      -1.260  11.413  17.566  0.00  0.00    +0.000 C 
ATOM     32  O   UNL     1      -1.058  12.554  17.171  0.00  0.00    +0.000 OA
BRANCH  31  33
ATOM     33  O   UNL     1      -1.948  10.461  16.881  0.00  0.00    +0.000 OA
BRANCH  33  35
ATOM     34  C   UNL     1      -4.199  11.031  16.422  0.00  0.00    +0.000 C 
ATOM     35  C   UNL     1      -2.800  10.940  15.841  0.00  0.00    +0.000 C 
ENDBRANCH  33  35
ENDBRANCH  31  33
ENDBRANCH   1  31
TORSDOF 7
ENDMDL
MODEL 9
REMARK VINA RESULT:      -7.2      0.833      1.190
REMARK  Name = 
REMARK  8 active torsions:
REMARK  status: ('A' for Active; 'I' for Inactive)
REMARK    1  A    between atoms: C_1  and  C_2
REMARK    2  A    between atoms: C_2  and  O_3
REMARK    3  A    between atoms: O_3  and  C_4
REMARK    4  A    between atoms: C_4  and  C_6
REMARK    5  A    between atoms: C_12  and  N_13
REMARK    6  A    between atoms: C_14  and  C_16
REMARK    7  A    between atoms: C_16  and  C_17
REMARK    8  A    between atoms: C_17  and  N_18
REMARK                            x       y       z     vdW  Elec       q    Type
REMARK                         _______ _______ _______ _____ _____    ______ ____
ROOT
ATOM      1  C   UNL     1      -2.836  11.341  18.701  0.00  0.00    +0.000 A 
ATOM      2  C   UNL     1      -3.215  12.339  19.626  0.00  0.00    +0.000 A 
ATOM      3  C   UNL     1      -2.077  12.815  20.264  0.00  0.00    +0.000 A 
ATOM      4  N   UNL     1      -0.995  12.065  19.816  0.00  0.00    +0.000 N 
ATOM      5  C   UNL     1       0.366  12.101  20.151  0.00  0.00    +0.000 A 
ATOM      6  C   UNL     1       1.235  11.248  19.561  0.00  0.00    +0.000 A 
ATOM      7  C   UNL     1       0.758  10.319  18.532  0.00  0.00    +0.000 A 
ATOM      8  C   UNL     1      -0.555  10.294  18.234  0.00  0.00    +0.000 A 
ATOM      9  C   UNL     1      -1.479  11.163  18.874  0.00  0.00    +0.000 A 
ATOM     10  C   UNL     1      -2.113  13.905  21.224  0.00  0.00    +0.000 C 
ATOM     11  O   UNL     1      -1.122  14.330  21.805  0.00  0.00    +0.000 OA
ATOM     12  C   UNL     1      -3.491  14.507  21.455  0.00  0.00    +0.000 A 
ATOM     13  N   UNL     1      -3.574  15.554  22.322  0.00  0.00    +0.000 NA
ATOM     14  C   UNL     1      -4.804  16.090  22.534  0.00  0.00    +0.000 A 
ATOM     15  C   UNL     1      -5.964  15.646  21.920  0.00  0.00    +0.000 A 
ATOM     16  C   UNL     1      -5.868  14.581  21.040  0.00  0.00    +0.000 A 
ATOM     17  C   UNL     1      -4.618  13.997  20.812  0.00  0.00    +0.000 A 
ATOM     18  C   UNL     1      -4.539  12.835  19.919  0.00  0.00    +0.000 C 
ATOM     19  O   UNL     1      -5.567  12.309  19.509  0.00  0.00    +0.000 OA
ENDROOT
BRANCH   7  20
ATOM     20  N   UNL     1       1.674   9.491  17.904  0.00  0.00    +0.000 N 
ATOM     21  C   UNL     1       2.249   8.355  18.466  0.00  0.00    +0.000 C 
ATOM     22  O   UNL     1       1.931   7.850  19.545  0.00  0.00    +0.000 OA
ATOM     23  H   UNL     1       1.859   9.663  16.923  0.00  0.00    +0.000 HD
BRANCH  21  24
ATOM     24  C   UNL     1       3.312   7.685  17.627  0.00  0.00    +0.000 C 
BRANCH  24  25
ATOM     25  C   UNL     1       3.578   6.247  18.076  0.00  0.00    +0.000 C 
BRANCH  25  26
ATOM     26  N   UNL     1       4.952   5.816  17.764  0.00  0.00    +0.000 NA
ATOM     27  C   UNL     1       5.502   6.435  16.544  0.00  0.00    +0.000 C 
ATOM     28  C   UNL     1       5.427   5.375  15.466  0.00  0.00    +0.000 C 
ATOM     29  C   UNL     1       5.724   4.114  16.242  0.00  0.00    +0.000 C 
ATOM     30  C   UNL     1       5.026   4.351  17.574  0.00  0.00    +0.000 C 
ENDBRANCH  25  26
ENDBRANCH  24  25
ENDBRANCH  21  24
ENDBRANCH   7  20
BRANCH   1  31
ATOM     31  C   UNL     1      -3.647  10.672  17.694  0.00  0.00    +0.000 C 
ATOM     32  O   UNL     1      -4.130   9.557  17.839  0.00  0.00    +0.000 OA
BRANCH  31  33
ATOM     33  O   UNL     1      -3.629  11.368  16.526  0.00  0.00    +0.000 OA
BRANCH  33  35
ATOM     34  C   UNL     1      -3.767  10.180  14.484  0.00  0.00    +0.000 C 
ATOM     35  C   UNL     1      -2.822  10.815  15.487  0.00  0.00    +0.000 C 
ENDBRANCH  33  35
ENDBRANCH  31  33
ENDBRANCH   1  31
TORSDOF 7
ENDMDL
