MODEL 1
REMARK VINA RESULT:      -7.1      0.000      0.000
REMARK  Name = 
REMARK  5 active torsions:
REMARK  status: ('A' for Active; 'I' for Inactive)
REMARK    1  A    between atoms: C_1  and  O_2
REMARK    2  A    between atoms: O_2  and  C_3
REMARK    3  A    between atoms: C_3  and  C_5
REMARK    4  A    between atoms: C_10  and  C_11
REMARK    5  A    between atoms: C_19  and  N_20
REMARK                            x       y       z     vdW  Elec       q    Type
REMARK                         _______ _______ _______ _____ _____    ______ ____
ROOT
ATOM      1  C   UNL     1       4.293   3.341  17.590  0.00  0.00    +0.000 A 
ATOM      2  C   UNL     1       4.406   1.937  17.797  0.00  0.00    +0.000 A 
ATOM      3  C   UNL     1       3.583   1.226  18.671  0.00  0.00    +0.000 A 
ATOM      4  C   UNL     1       2.629   1.910  19.392  0.00  0.00    +0.000 A 
ATOM      5  C   UNL     1       2.534   3.296  19.260  0.00  0.00    +0.000 A 
ATOM      6  C   UNL     1       1.456   3.961  19.972  0.00  0.00    +0.000 A 
ATOM      7  O   UNL     1       0.714   3.378  20.755  0.00  0.00    +0.000 OA
ATOM      8  C   UNL     1       1.292   5.385  19.733  0.00  0.00    +0.000 A 
ATOM      9  C   UNL     1       2.247   6.094  19.110  0.00  0.00    +0.000 A 
ATOM     10  O   UNL     1       3.303   5.439  18.424  0.00  0.00    +0.000 OA
ATOM     11  C   UNL     1       3.373   4.043  18.419  0.00  0.00    +0.000 A 
ENDROOT
BRANCH   1  17
ATOM     12  C   UNL     1       6.164   4.890  16.720  0.00  0.00    +0.000 A 
ATOM     13  C   UNL     1       6.852   5.492  15.647  0.00  0.00    +0.000 A 
ATOM     14  C   UNL     1       6.540   5.160  14.336  0.00  0.00    +0.000 A 
ATOM     15  C   UNL     1       5.538   4.233  14.089  0.00  0.00    +0.000 A 
ATOM     16  C   UNL     1       4.830   3.645  15.148  0.00  0.00    +0.000 A 
ATOM     17  C   UNL     1       5.115   3.945  16.494  0.00  0.00    +0.000 A 
BRANCH  12  18
ATOM     18  C   UNL     1       6.661   5.253  18.076  0.00  0.00    +0.000 C 
ATOM     19  O   UNL     1       6.920   4.445  18.961  0.00  0.00    +0.000 OA
BRANCH  18  21
ATOM     20  C   UNL     1       8.067   7.086  18.543  0.00  0.00    +0.000 C 
ATOM     21  O   UNL     1       6.766   6.602  18.183  0.00  0.00    +0.000 OA
ENDBRANCH  18  21
ENDBRANCH  12  18
ENDBRANCH   1  17
BRANCH   9  22
ATOM     22  N   UNL     1       2.237   7.502  19.151  0.00  0.00    +0.000 N 
ATOM     23  C   UNL     1       1.833   8.298  20.328  0.00  0.00    +0.000 C 
ATOM     24  C   UNL     1       0.864   9.427  19.908  0.00  0.00    +0.000 C 
ATOM     25  O   UNL     1       1.448  10.283  18.913  0.00  0.00    +0.000 OA
ATOM     26  C   UNL     1       1.753   9.522  17.741  0.00  0.00    +0.000 C 
ATOM     27  C   UNL     1       2.728   8.378  18.048  0.00  0.00    +0.000 C 
ENDBRANCH   9  22
TORSDOF 4
ENDMDL
MODEL 2
REMARK VINA RESULT:      -6.9      7.857     11.396
REMARK  Name = 
REMARK  5 active torsions:
REMARK  status: ('A' for Active; 'I' for Inactive)
REMARK    1  A    between atoms: C_1  and  O_2
REMARK    2  A    between atoms: O_2  and  C_3
REMARK    3  A    between atoms: C_3  and  C_5
REMARK    4  A    between atoms: C_10  and  C_11
REMARK    5  A    between atoms: C_19  and  N_20
REMARK                            x       y       z     vdW  Elec       q    Type
REMARK                         _______ _______ _______ _____ _____    ______ ____
ROOT
ATOM      1  C   UNL     1      -1.817  12.842  22.716  0.00  0.00    +0.000 A 
ATOM      2  C   UNL     1      -1.045  13.736  23.511  0.00  0.00    +0.000 A 
ATOM      3  C   UNL     1      -1.583  14.862  24.135  0.00  0.00    +0.000 A 
ATOM      4  C   UNL     1      -2.919  15.146  23.959  0.00  0.00    +0.000 A 
ATOM      5  C   UNL     1      -3.691  14.325  23.134  0.00  0.00    +0.000 A 
ATOM      6  C   UNL     1      -5.113  14.612  23.050  0.00  0.00    +0.000 A 
ATOM      7  O   UNL     1      -5.628  15.594  23.575  0.00  0.00    +0.000 OA
ATOM      8  C   UNL     1      -5.926  13.682  22.284  0.00  0.00    +0.000 A 
ATOM      9  C   UNL     1      -5.358  12.772  21.478  0.00  0.00    +0.000 A 
ATOM     10  O   UNL     1      -3.967  12.502  21.558  0.00  0.00    +0.000 OA
ATOM     11  C   UNL     1      -3.168  13.210  22.461  0.00  0.00    +0.000 A 
ENDROOT
BRANCH   1  17
ATOM     12  C   UNL     1      -0.735  11.352  20.907  0.00  0.00    +0.000 A 
ATOM     13  C   UNL     1      -0.193  10.114  20.509  0.00  0.00    +0.000 A 
ATOM     14  C   UNL     1      -0.030   9.088  21.429  0.00  0.00    +0.000 A 
ATOM     15  C   UNL     1      -0.413   9.289  22.747  0.00  0.00    +0.000 A 
ATOM     16  C   UNL     1      -0.976  10.509  23.151  0.00  0.00    +0.000 A 
ATOM     17  C   UNL     1      -1.155  11.581  22.256  0.00  0.00    +0.000 A 
BRANCH  12  18
ATOM     18  C   UNL     1      -0.763  12.403  19.853  0.00  0.00    +0.000 C 
ATOM     19  O   UNL     1      -1.706  12.605  19.097  0.00  0.00    +0.000 OA
BRANCH  18  21
ATOM     20  C   UNL     1       0.302  14.492  20.096  0.00  0.00    +0.000 C 
ATOM     21  O   UNL     1       0.411  13.084  19.849  0.00  0.00    +0.000 OA
ENDBRANCH  18  21
ENDBRANCH  12  18
ENDBRANCH   1  17
BRANCH   9  22
ATOM     22  N   UNL     1      -6.126  12.088  20.515  0.00  0.00    +0.000 N 
ATOM     23  C   UNL     1      -7.319  11.275  20.825  0.00  0.00    +0.000 C 
ATOM     24  C   UNL     1      -7.250   9.917  20.091  0.00  0.00    +0.000 C 
ATOM     25  O   UNL     1      -7.129  10.088  18.670  0.00  0.00    +0.000 OA
ATOM     26  C   UNL     1      -5.923  10.798  18.370  0.00  0.00    +0.000 C 
ATOM     27  C   UNL     1      -5.899  12.177  19.043  0.00  0.00    +0.000 C 
ENDBRANCH   9  22
TORSDOF 4
ENDMDL
MODEL 3
REMARK VINA RESULT:      -6.9      1.699      2.828
REMARK  Name = 
REMARK  5 active torsions:
REMARK  status: ('A' for Active; 'I' for Inactive)
REMARK    1  A    between atoms: C_1  and  O_2
REMARK    2  A    between atoms: O_2  and  C_3
REMARK    3  A    between atoms: C_3  and  C_5
REMARK    4  A    between atoms: C_10  and  C_11
REMARK    5  A    between atoms: C_19  and  N_20
REMARK                            x       y       z     vdW  Elec       q    Type
REMARK                         _______ _______ _______ _____ _____    ______ ____
ROOT
ATOM      1  C   UNL     1       4.896   4.569  19.355  0.00  0.00    +0.000 A 
ATOM      2  C   UNL     1       5.201   3.178  19.348  0.00  0.00    +0.000 A 
ATOM      3  C   UNL     1       4.254   2.188  19.613  0.00  0.00    +0.000 A 
ATOM      4  C   UNL     1       2.965   2.565  19.923  0.00  0.00    +0.000 A 
ATOM      5  C   UNL     1       2.648   3.923  20.000  0.00  0.00    +0.000 A 
ATOM      6  C   UNL     1       1.259   4.270  20.242  0.00  0.00    +0.000 A 
ATOM      7  O   UNL     1       0.395   3.435  20.486  0.00  0.00    +0.000 OA
ATOM      8  C   UNL     1       0.919   5.683  20.202  0.00  0.00    +0.000 A 
ATOM      9  C   UNL     1       1.877   6.623  20.216  0.00  0.00    +0.000 A 
ATOM     10  O   UNL     1       3.234   6.276  19.988  0.00  0.00    +0.000 OA
ATOM     11  C   UNL     1       3.589   4.940  19.778  0.00  0.00    +0.000 A 
ENDROOT
BRANCH   1  17
ATOM     12  C   UNL     1       5.893   6.212  17.633  0.00  0.00    +0.000 A 
ATOM     13  C   UNL     1       6.959   7.021  17.192  0.00  0.00    +0.000 A 
ATOM     14  C   UNL     1       8.097   7.174  17.972  0.00  0.00    +0.000 A 
ATOM     15  C   UNL     1       8.179   6.517  19.191  0.00  0.00    +0.000 A 
ATOM     16  C   UNL     1       7.134   5.690  19.630  0.00  0.00    +0.000 A 
ATOM     17  C   UNL     1       5.959   5.509  18.877  0.00  0.00    +0.000 A 
BRANCH  12  18
ATOM     18  C   UNL     1       4.690   6.212  16.755  0.00  0.00    +0.000 C 
ATOM     19  O   UNL     1       3.894   7.140  16.666  0.00  0.00    +0.000 OA
BRANCH  18  21
ATOM     20  C   UNL     1       5.402   4.944  14.901  0.00  0.00    +0.000 C 
ATOM     21  O   UNL     1       4.606   5.032  16.090  0.00  0.00    +0.000 OA
ENDBRANCH  18  21
ENDBRANCH  12  18
ENDBRANCH   1  17
BRANCH   9  22
ATOM     22  N   UNL     1       1.557   7.968  20.487  0.00  0.00    +0.000 N 
ATOM     23  C   UNL     1       1.377   8.523  21.844  0.00  0.00    +0.000 C 
ATOM     24  C   UNL     1       0.093   9.382  21.907  0.00  0.00    +0.000 C 
ATOM     25  O   UNL     1       0.118  10.445  20.940  0.00  0.00    +0.000 OA
ATOM     26  C   UNL     1       0.201   9.895  19.622  0.00  0.00    +0.000 C 
ATOM     27  C   UNL     1       1.459   9.033  19.448  0.00  0.00    +0.000 C 
ENDBRANCH   9  22
TORSDOF 4
ENDMDL
MODEL 4
REMARK VINA RESULT:      -6.8      7.638     10.645
REMARK  Name = 
REMARK  5 active torsions:
REMARK  status: ('A' for Active; 'I' for Inactive)
REMARK    1  A    between atoms: C_1  and  O_2
REMARK    2  A    between atoms: O_2  and  C_3
REMARK    3  A    between atoms: C_3  and  C_5
REMARK    4  A    between atoms: C_10  and  C_11
REMARK    5  A    between atoms: C_19  and  N_20
REMARK                            x       y       z     vdW  Elec       q    Type
REMARK                         _______ _______ _______ _____ _____    ______ ____
ROOT
ATOM      1  C   UNL     1      -0.762  12.058  19.926  0.00  0.00    +0.000 A 
ATOM      2  C   UNL     1       0.385  11.295  19.566  0.00  0.00    +0.000 A 
ATOM      3  C   UNL     1       0.366  10.309  18.579  0.00  0.00    +0.000 A 
ATOM      4  C   UNL     1      -0.819  10.036  17.933  0.00  0.00    +0.000 A 
ATOM      5  C   UNL     1      -1.976  10.722  18.306  0.00  0.00    +0.000 A 
ATOM      6  C   UNL     1      -3.181  10.463  17.537  0.00  0.00    +0.000 A 
ATOM      7  O   UNL     1      -3.245   9.602  16.665  0.00  0.00    +0.000 OA
ATOM      8  C   UNL     1      -4.348  11.269  17.855  0.00  0.00    +0.000 A 
ATOM      9  C   UNL     1      -4.390  12.010  18.973  0.00  0.00    +0.000 A 
ATOM     10  O   UNL     1      -3.211  12.252  19.726  0.00  0.00    +0.000 OA
ATOM     11  C   UNL     1      -1.997  11.689  19.322  0.00  0.00    +0.000 A 
ENDROOT
BRANCH   1  17
ATOM     12  C   UNL     1      -0.914  13.159  22.255  0.00  0.00    +0.000 A 
ATOM     13  C   UNL     1      -0.780  14.292  23.082  0.00  0.00    +0.000 A 
ATOM     14  C   UNL     1      -0.277  15.480  22.571  0.00  0.00    +0.000 A 
ATOM     15  C   UNL     1       0.090  15.545  21.235  0.00  0.00    +0.000 A 
ATOM     16  C   UNL     1      -0.059  14.430  20.396  0.00  0.00    +0.000 A 
ATOM     17  C   UNL     1      -0.560  13.203  20.869  0.00  0.00    +0.000 A 
BRANCH  12  18
ATOM     18  C   UNL     1      -1.369  11.919  22.945  0.00  0.00    +0.000 C 
ATOM     19  O   UNL     1      -2.532  11.679  23.247  0.00  0.00    +0.000 OA
BRANCH  18  21
ATOM     20  C   UNL     1      -0.533   9.716  22.979  0.00  0.00    +0.000 C 
ATOM     21  O   UNL     1      -0.305  11.115  23.196  0.00  0.00    +0.000 OA
ENDBRANCH  18  21
ENDBRANCH  12  18
ENDBRANCH   1  17
BRANCH   9  22
ATOM     22  N   UNL     1      -5.611  12.537  19.439  0.00  0.00    +0.000 N 
ATOM     23  C   UNL     1      -5.784  13.913  19.948  0.00  0.00    +0.000 C 
ATOM     24  C   UNL     1      -6.581  13.900  21.272  0.00  0.00    +0.000 C 
ATOM     25  O   UNL     1      -7.862  13.270  21.114  0.00  0.00    +0.000 OA
ATOM     26  C   UNL     1      -7.684  11.910  20.709  0.00  0.00    +0.000 C 
ATOM     27  C   UNL     1      -6.913  11.811  19.385  0.00  0.00    +0.000 C 
ENDBRANCH   9  22
TORSDOF 4
ENDMDL
MODEL 5
REMARK VINA RESULT:      -6.7      7.708     10.036
REMARK  Name = 
REMARK  5 active torsions:
REMARK  status: ('A' for Active; 'I' for Inactive)
REMARK    1  A    between atoms: C_1  and  O_2
REMARK    2  A    between atoms: O_2  and  C_3
REMARK    3  A    between atoms: C_3  and  C_5
REMARK    4  A    between atoms: C_10  and  C_11
REMARK    5  A    between atoms: C_19  and  N_20
REMARK                            x       y       z     vdW  Elec       q    Type
REMARK                         _______ _______ _______ _____ _____    ______ ____
ROOT
ATOM      1  C   UNL     1      -1.606  11.460  18.479  0.00  0.00    +0.000 A 
ATOM      2  C   UNL     1      -1.443  10.496  17.444  0.00  0.00    +0.000 A 
ATOM      3  C   UNL     1      -2.515   9.925  16.757  0.00  0.00    +0.000 A 
ATOM      4  C   UNL     1      -3.797  10.286  17.106  0.00  0.00    +0.000 A 
ATOM      5  C   UNL     1      -3.995  11.181  18.159  0.00  0.00    +0.000 A 
ATOM      6  C   UNL     1      -5.359  11.599  18.432  0.00  0.00    +0.000 A 
ATOM      7  O   UNL     1      -6.332  11.120  17.858  0.00  0.00    +0.000 OA
ATOM      8  C   UNL     1      -5.541  12.620  19.450  0.00  0.00    +0.000 A 
ATOM      9  C   UNL     1      -4.539  12.955  20.278  0.00  0.00    +0.000 A 
ATOM     10  O   UNL     1      -3.210  12.536  20.012  0.00  0.00    +0.000 OA
ATOM     11  C   UNL     1      -2.938  11.740  18.894  0.00  0.00    +0.000 A 
ENDROOT
BRANCH   1  17
ATOM     12  C   UNL     1       0.351  11.655  20.149  0.00  0.00    +0.000 A 
ATOM     13  C   UNL     1       1.460  12.363  20.654  0.00  0.00    +0.000 A 
ATOM     14  C   UNL     1       1.895  13.526  20.034  0.00  0.00    +0.000 A 
ATOM     15  C   UNL     1       1.223  13.992  18.913  0.00  0.00    +0.000 A 
ATOM     16  C   UNL     1       0.103  13.308  18.415  0.00  0.00    +0.000 A 
ATOM     17  C   UNL     1      -0.371  12.122  19.005  0.00  0.00    +0.000 A 
BRANCH  12  18
ATOM     18  C   UNL     1       0.049  10.371  20.840  0.00  0.00    +0.000 C 
ATOM     19  O   UNL     1       0.503   9.281  20.513  0.00  0.00    +0.000 OA
BRANCH  18  21
ATOM     20  C   UNL     1      -0.451   9.970  23.108  0.00  0.00    +0.000 C 
ATOM     21  O   UNL     1      -0.810  10.593  21.868  0.00  0.00    +0.000 OA
ENDBRANCH  18  21
ENDBRANCH  12  18
ENDBRANCH   1  17
BRANCH   9  22
ATOM     22  N   UNL     1      -4.793  13.703  21.445  0.00  0.00    +0.000 N 
ATOM     23  C   UNL     1      -4.480  15.138  21.599  0.00  0.00    +0.000 C 
ATOM     24  C   UNL     1      -3.769  15.392  22.947  0.00  0.00    +0.000 C 
ATOM     25  O   UNL     1      -4.560  14.940  24.058  0.00  0.00    +0.000 OA
ATOM     26  C   UNL     1      -4.782  13.530  23.950  0.00  0.00    +0.000 C 
ATOM     27  C   UNL     1      -5.504  13.171  22.644  0.00  0.00    +0.000 C 
ENDBRANCH   9  22
TORSDOF 4
ENDMDL
MODEL 6
REMARK VINA RESULT:      -6.7      7.675     10.715
REMARK  Name = 
REMARK  5 active torsions:
REMARK  status: ('A' for Active; 'I' for Inactive)
REMARK    1  A    between atoms: C_1  and  O_2
REMARK    2  A    between atoms: O_2  and  C_3
REMARK    3  A    between atoms: C_3  and  C_5
REMARK    4  A    between atoms: C_10  and  C_11
REMARK    5  A    between atoms: C_19  and  N_20
REMARK                            x       y       z     vdW  Elec       q    Type
REMARK                         _______ _______ _______ _____ _____    ______ ____
ROOT
ATOM      1  C   UNL     1       9.542  13.834  17.906  0.00  0.00    +0.000 A 
ATOM      2  C   UNL     1      10.784  14.139  17.279  0.00  0.00    +0.000 A 
ATOM      3  C   UNL     1      11.202  15.442  17.010  0.00  0.00    +0.000 A 
ATOM      4  C   UNL     1      10.370  16.490  17.338  0.00  0.00    +0.000 A 
ATOM      5  C   UNL     1       9.119  16.223  17.896  0.00  0.00    +0.000 A 
ATOM      6  C   UNL     1       8.315  17.361  18.307  0.00  0.00    +0.000 A 
ATOM      7  O   UNL     1       8.640  18.522  18.085  0.00  0.00    +0.000 OA
ATOM      8  C   UNL     1       7.068  17.070  18.995  0.00  0.00    +0.000 A 
ATOM      9  C   UNL     1       6.559  15.828  19.002  0.00  0.00    +0.000 A 
ATOM     10  O   UNL     1       7.346  14.721  18.591  0.00  0.00    +0.000 OA
ATOM     11  C   UNL     1       8.655  14.921  18.142  0.00  0.00    +0.000 A 
ENDROOT
BRANCH   1  17
ATOM     12  C   UNL     1       9.976  11.759  19.379  0.00  0.00    +0.000 A 
ATOM     13  C   UNL     1       9.774  10.392  19.654  0.00  0.00    +0.000 A 
ATOM     14  C   UNL     1       8.887   9.645  18.891  0.00  0.00    +0.000 A 
ATOM     15  C   UNL     1       8.205  10.255  17.848  0.00  0.00    +0.000 A 
ATOM     16  C   UNL     1       8.416  11.610  17.550  0.00  0.00    +0.000 A 
ATOM     17  C   UNL     1       9.299  12.409  18.298  0.00  0.00    +0.000 A 
BRANCH  12  18
ATOM     18  C   UNL     1      10.873  12.473  20.330  0.00  0.00    +0.000 C 
ATOM     19  O   UNL     1      12.065  12.680  20.141  0.00  0.00    +0.000 OA
BRANCH  18  21
ATOM     20  C   UNL     1       9.956  14.250  21.579  0.00  0.00    +0.000 C 
ATOM     21  O   UNL     1      10.173  12.840  21.435  0.00  0.00    +0.000 OA
ENDBRANCH  18  21
ENDBRANCH  12  18
ENDBRANCH   1  17
BRANCH   9  22
ATOM     22  N   UNL     1       5.223  15.603  19.390  0.00  0.00    +0.000 N 
ATOM     23  C   UNL     1       4.772  15.484  20.791  0.00  0.00    +0.000 C 
ATOM     24  C   UNL     1       3.840  14.262  20.955  0.00  0.00    +0.000 C 
ATOM     25  O   UNL     1       2.705  14.340  20.078  0.00  0.00    +0.000 OA
ATOM     26  C   UNL     1       3.147  14.362  18.717  0.00  0.00    +0.000 C 
ATOM     27  C   UNL     1       4.071  15.556  18.444  0.00  0.00    +0.000 C 
ENDBRANCH   9  22
TORSDOF 4
ENDMDL
MODEL 7
REMARK VINA RESULT:      -6.7      7.814     10.169
REMARK  Name = 
REMARK  5 active torsions:
REMARK  status: ('A' for Active; 'I' for Inactive)
REMARK    1  A    between atoms: C_1  and  O_2
REMARK    2  A    between atoms: O_2  and  C_3
REMARK    3  A    between atoms: C_3  and  C_5
REMARK    4  A    between atoms: C_10  and  C_11
REMARK    5  A    between atoms: C_19  and  N_20
REMARK                            x       y       z     vdW  Elec       q    Type
REMARK                         _______ _______ _______ _____ _____    ______ ____
ROOT
ATOM      1  C   UNL     1      -1.700  11.474  18.475  0.00  0.00    +0.000 A 
ATOM      2  C   UNL     1      -1.557  10.529  17.419  0.00  0.00    +0.000 A 
ATOM      3  C   UNL     1      -2.642   9.964  16.750  0.00  0.00    +0.000 A 
ATOM      4  C   UNL     1      -3.918  10.309  17.137  0.00  0.00    +0.000 A 
ATOM      5  C   UNL     1      -4.094  11.184  18.211  0.00  0.00    +0.000 A 
ATOM      6  C   UNL     1      -5.453  11.587  18.526  0.00  0.00    +0.000 A 
ATOM      7  O   UNL     1      -6.437  11.111  17.968  0.00  0.00    +0.000 OA
ATOM      8  C   UNL     1      -5.617  12.589  19.567  0.00  0.00    +0.000 A 
ATOM      9  C   UNL     1      -4.596  12.915  20.375  0.00  0.00    +0.000 A 
ATOM     10  O   UNL     1      -3.271  12.511  20.067  0.00  0.00    +0.000 OA
ATOM     11  C   UNL     1      -3.023  11.737  18.929  0.00  0.00    +0.000 A 
ENDROOT
BRANCH   1  17
ATOM     12  C   UNL     1       0.258  11.696  20.142  0.00  0.00    +0.000 A 
ATOM     13  C   UNL     1       1.376  12.404  20.625  0.00  0.00    +0.000 A 
ATOM     14  C   UNL     1       1.828  13.540  19.968  0.00  0.00    +0.000 A 
ATOM     15  C   UNL     1       1.165  13.978  18.831  0.00  0.00    +0.000 A 
ATOM     16  C   UNL     1       0.036  13.294  18.353  0.00  0.00    +0.000 A 
ATOM     17  C   UNL     1      -0.456  12.135  18.982  0.00  0.00    +0.000 A 
BRANCH  12  18
ATOM     18  C   UNL     1      -0.064  10.440  20.875  0.00  0.00    +0.000 C 
ATOM     19  O   UNL     1       0.280   9.319  20.518  0.00  0.00    +0.000 OA
BRANCH  18  21
ATOM     20  C   UNL     1      -0.523   9.916  23.126  0.00  0.00    +0.000 C 
ATOM     21  O   UNL     1      -0.803  10.726  21.977  0.00  0.00    +0.000 OA
ENDBRANCH  18  21
ENDBRANCH  12  18
ENDBRANCH   1  17
BRANCH   9  22
ATOM     22  N   UNL     1      -4.825  13.640  21.561  0.00  0.00    +0.000 N 
ATOM     23  C   UNL     1      -4.925  13.032  22.903  0.00  0.00    +0.000 C 
ATOM     24  C   UNL     1      -6.152  13.592  23.658  0.00  0.00    +0.000 C 
ATOM     25  O   UNL     1      -6.097  15.023  23.770  0.00  0.00    +0.000 OA
ATOM     26  C   UNL     1      -6.093  15.610  22.466  0.00  0.00    +0.000 C 
ATOM     27  C   UNL     1      -4.896  15.129  21.634  0.00  0.00    +0.000 C 
ENDBRANCH   9  22
TORSDOF 4
ENDMDL
MODEL 8
REMARK VINA RESULT:      -6.6      7.701     10.548
REMARK  Name = 
REMARK  5 active torsions:
REMARK  status: ('A' for Active; 'I' for Inactive)
REMARK    1  A    between atoms: C_1  and  O_2
REMARK    2  A    between atoms: O_2  and  C_3
REMARK    3  A    between atoms: C_3  and  C_5
REMARK    4  A    between atoms: C_10  and  C_11
REMARK    5  A    between atoms: C_19  and  N_20
REMARK                            x       y       z     vdW  Elec       q    Type
REMARK                         _______ _______ _______ _____ _____    ______ ____
ROOT
ATOM      1  C   UNL     1      -1.986  12.638  22.065  0.00  0.00    +0.000 A 
ATOM      2  C   UNL     1      -2.021  13.647  23.070  0.00  0.00    +0.000 A 
ATOM      3  C   UNL     1      -3.027  14.610  23.148  0.00  0.00    +0.000 A 
ATOM      4  C   UNL     1      -4.025  14.610  22.199  0.00  0.00    +0.000 A 
ATOM      5  C   UNL     1      -3.986  13.674  21.164  0.00  0.00    +0.000 A 
ATOM      6  C   UNL     1      -5.106  13.655  20.239  0.00  0.00    +0.000 A 
ATOM      7  O   UNL     1      -6.009  14.486  20.267  0.00  0.00    +0.000 OA
ATOM      8  C   UNL     1      -5.114  12.601  19.239  0.00  0.00    +0.000 A 
ATOM      9  C   UNL     1      -4.018  11.861  19.009  0.00  0.00    +0.000 A 
ATOM     10  O   UNL     1      -2.923  11.890  19.911  0.00  0.00    +0.000 OA
ATOM     11  C   UNL     1      -2.966  12.719  21.036  0.00  0.00    +0.000 A 
ENDROOT
BRANCH   1  17
ATOM     12  C   UNL     1       0.199  11.457  21.363  0.00  0.00    +0.000 A 
ATOM     13  C   UNL     1       1.096  10.378  21.481  0.00  0.00    +0.000 A 
ATOM     14  C   UNL     1       0.893   9.395  22.441  0.00  0.00    +0.000 A 
ATOM     15  C   UNL     1      -0.207   9.482  23.281  0.00  0.00    +0.000 A 
ATOM     16  C   UNL     1      -1.121  10.540  23.157  0.00  0.00    +0.000 A 
ATOM     17  C   UNL     1      -0.954  11.562  22.204  0.00  0.00    +0.000 A 
BRANCH  12  18
ATOM     18  C   UNL     1       0.582  12.496  20.366  0.00  0.00    +0.000 C 
ATOM     19  O   UNL     1       1.230  13.502  20.626  0.00  0.00    +0.000 OA
BRANCH  18  21
ATOM     20  C   UNL     1      -0.253  13.273  18.304  0.00  0.00    +0.000 C 
ATOM     21  O   UNL     1       0.093  12.164  19.144  0.00  0.00    +0.000 OA
ENDBRANCH  18  21
ENDBRANCH  12  18
ENDBRANCH   1  17
BRANCH   9  22
ATOM     22  N   UNL     1      -3.921  11.065  17.851  0.00  0.00    +0.000 N 
ATOM     23  C   UNL     1      -3.263   9.743  17.801  0.00  0.00    +0.000 C 
ATOM     24  C   UNL     1      -2.328   9.654  16.575  0.00  0.00    +0.000 C 
ATOM     25  O   UNL     1      -3.036   9.896  15.349  0.00  0.00    +0.000 OA
ATOM     26  C   UNL     1      -3.594  11.213  15.366  0.00  0.00    +0.000 C 
ATOM     27  C   UNL     1      -4.558  11.402  16.544  0.00  0.00    +0.000 C 
ENDBRANCH   9  22
TORSDOF 4
ENDMDL
MODEL 9
REMARK VINA RESULT:      -6.5      7.945     10.850
REMARK  Name = 
REMARK  5 active torsions:
REMARK  status: ('A' for Active; 'I' for Inactive)
REMARK    1  A    between atoms: C_1  and  O_2
REMARK    2  A    between atoms: O_2  and  C_3
REMARK    3  A    between atoms: C_3  and  C_5
REMARK    4  A    between atoms: C_10  and  C_11
REMARK    5  A    between atoms: C_19  and  N_20
REMARK                            x       y       z     vdW  Elec       q    Type
REMARK                         _______ _______ _______ _____ _____    ______ ____
ROOT
ATOM      1  C   UNL     1       9.566  13.815  17.901  0.00  0.00    +0.000 A 
ATOM      2  C   UNL     1      10.808  14.109  17.269  0.00  0.00    +0.000 A 
ATOM      3  C   UNL     1      11.237  15.408  16.997  0.00  0.00    +0.000 A 
ATOM      4  C   UNL     1      10.417  16.463  17.328  0.00  0.00    +0.000 A 
ATOM      5  C   UNL     1       9.165  16.208  17.891  0.00  0.00    +0.000 A 
ATOM      6  C   UNL     1       8.374  17.354  18.305  0.00  0.00    +0.000 A 
ATOM      7  O   UNL     1       8.709  18.512  18.081  0.00  0.00    +0.000 OA
ATOM      8  C   UNL     1       7.127  17.074  18.997  0.00  0.00    +0.000 A 
ATOM      9  C   UNL     1       6.606  15.837  19.008  0.00  0.00    +0.000 A 
ATOM     10  O   UNL     1       7.381  14.723  18.594  0.00  0.00    +0.000 OA
ATOM     11  C   UNL     1       8.690  14.911  18.139  0.00  0.00    +0.000 A 
ENDROOT
BRANCH   1  17
ATOM     12  C   UNL     1       9.976  11.742  19.383  0.00  0.00    +0.000 A 
ATOM     13  C   UNL     1       9.763  10.377  19.660  0.00  0.00    +0.000 A 
ATOM     14  C   UNL     1       8.879   9.633  18.892  0.00  0.00    +0.000 A 
ATOM     15  C   UNL     1       8.209  10.244  17.842  0.00  0.00    +0.000 A 
ATOM     16  C   UNL     1       8.430  11.597  17.542  0.00  0.00    +0.000 A 
ATOM     17  C   UNL     1       9.312  12.393  18.295  0.00  0.00    +0.000 A 
BRANCH  12  18
ATOM     18  C   UNL     1      10.869  12.453  20.340  0.00  0.00    +0.000 C 
ATOM     19  O   UNL     1      12.054  12.691  20.141  0.00  0.00    +0.000 OA
BRANCH  18  21
ATOM     20  C   UNL     1       9.874  14.173  21.609  0.00  0.00    +0.000 C 
ATOM     21  O   UNL     1      10.176  12.779  21.461  0.00  0.00    +0.000 OA
ENDBRANCH  18  21
ENDBRANCH  12  18
ENDBRANCH   1  17
BRANCH   9  22
ATOM     22  N   UNL     1       5.270  15.625  19.401  0.00  0.00    +0.000 N 
ATOM     23  C   UNL     1       4.096  15.927  18.557  0.00  0.00    +0.000 C 
ATOM     24  C   UNL     1       3.030  16.693  19.374  0.00  0.00    +0.000 C 
ATOM     25  O   UNL     1       2.622  15.956  20.537  0.00  0.00    +0.000 OA
ATOM     26  C   UNL     1       3.748  15.746  21.394  0.00  0.00    +0.000 C 
ATOM     27  C   UNL     1       4.865  14.973  20.680  0.00  0.00    +0.000 C 
ENDBRANCH   9  22
TORSDOF 4
ENDMDL
