MODEL 1
REMARK VINA RESULT:      -6.8      0.000      0.000
REMARK  Name = 
REMARK  12 active torsions:
REMARK  status: ('A' for Active; 'I' for Inactive)
REMARK    1  A    between atoms: C_1  and  C_2
REMARK    2  A    between atoms: C_2  and  C_3
REMARK    3  A    between atoms: C_4  and  C_5
REMARK    4  A    between atoms: C_5  and  C_6
REMARK    5  A    between atoms: C_11  and  C_12
REMARK    6  A    between atoms: C_12  and  C_13
REMARK    7  A    between atoms: C_13  and  O_15
REMARK    8  A    between atoms: O_15  and  C_16
REMARK    9  A    between atoms: C_16  and  C_17
REMARK   10  A    between atoms: C_17  and  C_18
REMARK   11  A    between atoms: C_18  and  C_19
REMARK   12  A    between atoms: C_19  and  C_20
REMARK                            x       y       z     vdW  Elec       q    Type
REMARK                         _______ _______ _______ _____ _____    ______ ____
ROOT
ATOM      1  C   UNL     1       5.487   5.815  15.850  0.00  0.00    +0.000 C 
ATOM      2  C   UNL     1       6.751   5.152  15.340  0.00  0.00    +0.000 C 
ATOM      3  O   UNL     1       7.667   5.721  14.770  0.00  0.00    +0.000 OA
ATOM      4  C   UNL     1       6.770   3.715  15.629  0.00  0.00    +0.000 C 
ATOM      5  C   UNL     1       5.589   3.427  16.170  0.00  0.00    +0.000 C 
ATOM      6  C   UNL     1       4.645   4.593  16.288  0.00  0.00    +0.000 C 
ENDROOT
BRANCH   1   7
ATOM      7  C   UNL     1       5.898   6.866  16.878  0.00  0.00    +0.000 C 
BRANCH   7   9
ATOM      8  C   UNL     1       8.044   7.419  18.058  0.00  0.00    +0.000 C 
ATOM      9  C   UNL     1       7.124   6.521  17.671  0.00  0.00    +0.000 C 
BRANCH   8  11
ATOM     10  C   UNL     1       8.906   9.638  18.781  0.00  0.00    +0.000 C 
ATOM     11  C   UNL     1       7.996   8.901  17.811  0.00  0.00    +0.000 C 
ENDBRANCH   8  11
ENDBRANCH   7   9
ENDBRANCH   1   7
BRANCH   6  12
ATOM     12  C   UNL     1       3.821   4.636  17.579  0.00  0.00    +0.000 C 
BRANCH  12  13
ATOM     13  C   UNL     1       4.529   4.495  18.912  0.00  0.00    +0.000 C 
ATOM     14  O   UNL     1       5.214   3.542  19.247  0.00  0.00    +0.000 OA
BRANCH  13  15
ATOM     15  O   UNL     1       4.108   5.486  19.754  0.00  0.00    +0.000 OA
BRANCH  15  16
ATOM     16  C   UNL     1       2.707   5.791  19.695  0.00  0.00    +0.000 C 
BRANCH  16  17
ATOM     17  C   UNL     1       1.846   5.212  20.818  0.00  0.00    +0.000 C 
BRANCH  17  18
ATOM     18  C   UNL     1       0.872   4.139  20.334  0.00  0.00    +0.000 C 
BRANCH  18  19
ATOM     19  C   UNL     1       1.475   2.734  20.438  0.00  0.00    +0.000 C 
ATOM     20  C   UNL     1       1.568   2.078  19.069  0.00  0.00    +0.000 C 
ENDBRANCH  18  19
ENDBRANCH  17  18
ENDBRANCH  16  17
ENDBRANCH  15  16
ENDBRANCH  13  15
ENDBRANCH  12  13
ENDBRANCH   6  12
TORSDOF 10
ENDMDL
MODEL 2
REMARK VINA RESULT:      -6.7      2.463      3.334
REMARK  Name = 
REMARK  12 active torsions:
REMARK  status: ('A' for Active; 'I' for Inactive)
REMARK    1  A    between atoms: C_1  and  C_2
REMARK    2  A    between atoms: C_2  and  C_3
REMARK    3  A    between atoms: C_4  and  C_5
REMARK    4  A    between atoms: C_5  and  C_6
REMARK    5  A    between atoms: C_11  and  C_12
REMARK    6  A    between atoms: C_12  and  C_13
REMARK    7  A    between atoms: C_13  and  O_15
REMARK    8  A    between atoms: O_15  and  C_16
REMARK    9  A    between atoms: C_16  and  C_17
REMARK   10  A    between atoms: C_17  and  C_18
REMARK   11  A    between atoms: C_18  and  C_19
REMARK   12  A    between atoms: C_19  and  C_20
REMARK                            x       y       z     vdW  Elec       q    Type
REMARK                         _______ _______ _______ _____ _____    ______ ____
ROOT
ATOM      1  C   UNL     1       4.223   5.496  16.795  0.00  0.00    +0.000 C 
ATOM      2  C   UNL     1       5.172   5.975  15.715  0.00  0.00    +0.000 C 
ATOM      3  O   UNL     1       5.239   7.116  15.287  0.00  0.00    +0.000 OA
ATOM      4  C   UNL     1       6.044   4.899  15.235  0.00  0.00    +0.000 C 
ATOM      5  C   UNL     1       5.637   3.789  15.846  0.00  0.00    +0.000 C 
ATOM      6  C   UNL     1       4.462   3.968  16.769  0.00  0.00    +0.000 C 
ENDROOT
BRANCH   1   7
ATOM      7  C   UNL     1       4.522   6.294  18.061  0.00  0.00    +0.000 C 
BRANCH   7   9
ATOM      8  C   UNL     1       2.413   7.461  18.764  0.00  0.00    +0.000 C 
ATOM      9  C   UNL     1       3.340   6.510  18.960  0.00  0.00    +0.000 C 
BRANCH   8  11
ATOM     10  C   UNL     1       1.832   9.780  18.072  0.00  0.00    +0.000 C 
ATOM     11  C   UNL     1       2.366   8.431  17.616  0.00  0.00    +0.000 C 
ENDBRANCH   8  11
ENDBRANCH   7   9
ENDBRANCH   1   7
BRANCH   6  12
ATOM     12  C   UNL     1       4.530   3.167  18.074  0.00  0.00    +0.000 C 
BRANCH  12  13
ATOM     13  C   UNL     1       3.636   1.953  18.243  0.00  0.00    +0.000 C 
ATOM     14  O   UNL     1       3.980   0.890  18.734  0.00  0.00    +0.000 OA
BRANCH  13  15
ATOM     15  O   UNL     1       2.465   2.158  17.570  0.00  0.00    +0.000 OA
BRANCH  15  16
ATOM     16  C   UNL     1       1.305   2.350  18.394  0.00  0.00    +0.000 C 
BRANCH  16  17
ATOM     17  C   UNL     1       1.002   3.792  18.800  0.00  0.00    +0.000 C 
BRANCH  17  18
ATOM     18  C   UNL     1       0.843   3.969  20.309  0.00  0.00    +0.000 C 
BRANCH  18  19
ATOM     19  C   UNL     1       2.195   3.954  21.029  0.00  0.00    +0.000 C 
ATOM     20  C   UNL     1       2.399   2.647  21.780  0.00  0.00    +0.000 C 
ENDBRANCH  18  19
ENDBRANCH  17  18
ENDBRANCH  16  17
ENDBRANCH  15  16
ENDBRANCH  13  15
ENDBRANCH  12  13
ENDBRANCH   6  12
TORSDOF 10
ENDMDL
MODEL 3
REMARK VINA RESULT:      -6.7      2.167      4.417
REMARK  Name = 
REMARK  12 active torsions:
REMARK  status: ('A' for Active; 'I' for Inactive)
REMARK    1  A    between atoms: C_1  and  C_2
REMARK    2  A    between atoms: C_2  and  C_3
REMARK    3  A    between atoms: C_4  and  C_5
REMARK    4  A    between atoms: C_5  and  C_6
REMARK    5  A    between atoms: C_11  and  C_12
REMARK    6  A    between atoms: C_12  and  C_13
REMARK    7  A    between atoms: C_13  and  O_15
REMARK    8  A    between atoms: O_15  and  C_16
REMARK    9  A    between atoms: C_16  and  C_17
REMARK   10  A    between atoms: C_17  and  C_18
REMARK   11  A    between atoms: C_18  and  C_19
REMARK   12  A    between atoms: C_19  and  C_20
REMARK                            x       y       z     vdW  Elec       q    Type
REMARK                         _______ _______ _______ _____ _____    ______ ____
ROOT
ATOM      1  C   UNL     1       5.972   4.289  16.195  0.00  0.00    +0.000 C 
ATOM      2  C   UNL     1       6.558   5.635  16.572  0.00  0.00    +0.000 C 
ATOM      3  O   UNL     1       7.531   6.154  16.051  0.00  0.00    +0.000 OA
ATOM      4  C   UNL     1       5.799   6.280  17.647  0.00  0.00    +0.000 C 
ATOM      5  C   UNL     1       4.874   5.403  18.030  0.00  0.00    +0.000 C 
ATOM      6  C   UNL     1       4.908   4.088  17.300  0.00  0.00    +0.000 C 
ENDROOT
BRANCH   1   7
ATOM      7  C   UNL     1       5.548   4.362  14.731  0.00  0.00    +0.000 C 
BRANCH   7   9
ATOM      8  C   UNL     1       6.584   3.721  12.536  0.00  0.00    +0.000 C 
ATOM      9  C   UNL     1       6.678   4.293  13.746  0.00  0.00    +0.000 C 
BRANCH   8  11
ATOM     10  C   UNL     1       5.672   1.735  11.345  0.00  0.00    +0.000 C 
ATOM     11  C   UNL     1       5.353   3.097  11.943  0.00  0.00    +0.000 C 
ENDBRANCH   8  11
ENDBRANCH   7   9
ENDBRANCH   1   7
BRANCH   6  12
ATOM     12  C   UNL     1       3.535   3.495  16.961  0.00  0.00    +0.000 C 
BRANCH  12  13
ATOM     13  C   UNL     1       2.740   2.803  18.051  0.00  0.00    +0.000 C 
ATOM     14  O   UNL     1       2.907   1.651  18.419  0.00  0.00    +0.000 OA
BRANCH  13  15
ATOM     15  O   UNL     1       1.677   3.586  18.401  0.00  0.00    +0.000 OA
BRANCH  15  16
ATOM     16  C   UNL     1       0.910   3.119  19.521  0.00  0.00    +0.000 C 
BRANCH  16  17
ATOM     17  C   UNL     1       1.453   3.479  20.903  0.00  0.00    +0.000 C 
BRANCH  17  18
ATOM     18  C   UNL     1       2.327   4.731  20.897  0.00  0.00    +0.000 C 
BRANCH  18  19
ATOM     19  C   UNL     1       1.494   6.005  20.720  0.00  0.00    +0.000 C 
ATOM     20  C   UNL     1       2.202   6.999  19.811  0.00  0.00    +0.000 C 
ENDBRANCH  18  19
ENDBRANCH  17  18
ENDBRANCH  16  17
ENDBRANCH  15  16
ENDBRANCH  13  15
ENDBRANCH  12  13
ENDBRANCH   6  12
TORSDOF 10
ENDMDL
MODEL 4
REMARK VINA RESULT:      -6.7      2.055      3.909
REMARK  Name = 
REMARK  12 active torsions:
REMARK  status: ('A' for Active; 'I' for Inactive)
REMARK    1  A    between atoms: C_1  and  C_2
REMARK    2  A    between atoms: C_2  and  C_3
REMARK    3  A    between atoms: C_4  and  C_5
REMARK    4  A    between atoms: C_5  and  C_6
REMARK    5  A    between atoms: C_11  and  C_12
REMARK    6  A    between atoms: C_12  and  C_13
REMARK    7  A    between atoms: C_13  and  O_15
REMARK    8  A    between atoms: O_15  and  C_16
REMARK    9  A    between atoms: C_16  and  C_17
REMARK   10  A    between atoms: C_17  and  C_18
REMARK   11  A    between atoms: C_18  and  C_19
REMARK   12  A    between atoms: C_19  and  C_20
REMARK                            x       y       z     vdW  Elec       q    Type
REMARK                         _______ _______ _______ _____ _____    ______ ____
ROOT
ATOM      1  C   UNL     1       6.266   4.975  17.558  0.00  0.00    +0.000 C 
ATOM      2  C   UNL     1       6.092   6.452  17.266  0.00  0.00    +0.000 C 
ATOM      3  O   UNL     1       6.996   7.266  17.173  0.00  0.00    +0.000 OA
ATOM      4  C   UNL     1       4.683   6.812  17.081  0.00  0.00    +0.000 C 
ATOM      5  C   UNL     1       3.980   5.711  17.341  0.00  0.00    +0.000 C 
ATOM      6  C   UNL     1       4.800   4.516  17.743  0.00  0.00    +0.000 C 
ENDROOT
BRANCH   1   7
ATOM      7  C   UNL     1       7.116   4.380  16.439  0.00  0.00    +0.000 C 
BRANCH   7   9
ATOM      8  C   UNL     1       6.627   4.845  14.021  0.00  0.00    +0.000 C 
ATOM      9  C   UNL     1       7.178   5.208  15.189  0.00  0.00    +0.000 C 
BRANCH   8  11
ATOM     10  C   UNL     1       5.837   3.248  12.284  0.00  0.00    +0.000 C 
ATOM     11  C   UNL     1       5.832   3.596  13.764  0.00  0.00    +0.000 C 
ENDBRANCH   8  11
ENDBRANCH   7   9
ENDBRANCH   1   7
BRANCH   6  12
ATOM     12  C   UNL     1       4.324   3.176  17.171  0.00  0.00    +0.000 C 
BRANCH  12  13
ATOM     13  C   UNL     1       3.437   2.284  18.017  0.00  0.00    +0.000 C 
ATOM     14  O   UNL     1       3.791   1.245  18.552  0.00  0.00    +0.000 OA
BRANCH  13  15
ATOM     15  O   UNL     1       2.141   2.703  17.909  0.00  0.00    +0.000 OA
BRANCH  15  16
ATOM     16  C   UNL     1       1.238   2.170  18.889  0.00  0.00    +0.000 C 
BRANCH  16  17
ATOM     17  C   UNL     1       0.596   3.187  19.833  0.00  0.00    +0.000 C 
BRANCH  17  18
ATOM     18  C   UNL     1       1.466   3.509  21.047  0.00  0.00    +0.000 C 
BRANCH  18  19
ATOM     19  C   UNL     1       2.497   4.598  20.735  0.00  0.00    +0.000 C 
ATOM     20  C   UNL     1       1.815   5.917  20.401  0.00  0.00    +0.000 C 
ENDBRANCH  18  19
ENDBRANCH  17  18
ENDBRANCH  16  17
ENDBRANCH  15  16
ENDBRANCH  13  15
ENDBRANCH  12  13
ENDBRANCH   6  12
TORSDOF 10
ENDMDL
MODEL 5
REMARK VINA RESULT:      -6.7      2.064      4.333
REMARK  Name = 
REMARK  12 active torsions:
REMARK  status: ('A' for Active; 'I' for Inactive)
REMARK    1  A    between atoms: C_1  and  C_2
REMARK    2  A    between atoms: C_2  and  C_3
REMARK    3  A    between atoms: C_4  and  C_5
REMARK    4  A    between atoms: C_5  and  C_6
REMARK    5  A    between atoms: C_11  and  C_12
REMARK    6  A    between atoms: C_12  and  C_13
REMARK    7  A    between atoms: C_13  and  O_15
REMARK    8  A    between atoms: O_15  and  C_16
REMARK    9  A    between atoms: C_16  and  C_17
REMARK   10  A    between atoms: C_17  and  C_18
REMARK   11  A    between atoms: C_18  and  C_19
REMARK   12  A    between atoms: C_19  and  C_20
REMARK                            x       y       z     vdW  Elec       q    Type
REMARK                         _______ _______ _______ _____ _____    ______ ____
ROOT
ATOM      1  C   UNL     1       6.416   4.321  16.516  0.00  0.00    +0.000 C 
ATOM      2  C   UNL     1       6.942   5.741  16.459  0.00  0.00    +0.000 C 
ATOM      3  O   UNL     1       7.683   6.186  15.598  0.00  0.00    +0.000 OA
ATOM      4  C   UNL     1       6.438   6.557  17.567  0.00  0.00    +0.000 C 
ATOM      5  C   UNL     1       5.742   5.735  18.349  0.00  0.00    +0.000 C 
ATOM      6  C   UNL     1       5.712   4.302  17.894  0.00  0.00    +0.000 C 
ENDROOT
BRANCH   1   7
ATOM      7  C   UNL     1       5.610   4.074  15.244  0.00  0.00    +0.000 C 
BRANCH   7   9
ATOM      8  C   UNL     1       5.926   3.549  12.809  0.00  0.00    +0.000 C 
ATOM      9  C   UNL     1       6.432   3.712  14.041  0.00  0.00    +0.000 C 
BRANCH   8  11
ATOM     10  C   UNL     1       4.193   2.998  11.111  0.00  0.00    +0.000 C 
ATOM     11  C   UNL     1       4.490   3.735  12.407  0.00  0.00    +0.000 C 
ENDBRANCH   8  11
ENDBRANCH   7   9
ENDBRANCH   1   7
BRANCH   6  12
ATOM     12  C   UNL     1       4.366   3.590  18.071  0.00  0.00    +0.000 C 
BRANCH  12  13
ATOM     13  C   UNL     1       4.257   2.454  19.071  0.00  0.00    +0.000 C 
ATOM     14  O   UNL     1       4.991   2.293  20.033  0.00  0.00    +0.000 OA
BRANCH  13  15
ATOM     15  O   UNL     1       3.363   1.531  18.609  0.00  0.00    +0.000 OA
BRANCH  15  16
ATOM     16  C   UNL     1       2.183   2.069  17.993  0.00  0.00    +0.000 C 
BRANCH  16  17
ATOM     17  C   UNL     1       0.937   2.136  18.875  0.00  0.00    +0.000 C 
BRANCH  17  18
ATOM     18  C   UNL     1       0.678   3.530  19.442  0.00  0.00    +0.000 C 
BRANCH  18  19
ATOM     19  C   UNL     1       1.311   3.709  20.825  0.00  0.00    +0.000 C 
ATOM     20  C   UNL     1       2.116   4.998  20.895  0.00  0.00    +0.000 C 
ENDBRANCH  18  19
ENDBRANCH  17  18
ENDBRANCH  16  17
ENDBRANCH  15  16
ENDBRANCH  13  15
ENDBRANCH  12  13
ENDBRANCH   6  12
TORSDOF 10
ENDMDL
MODEL 6
REMARK VINA RESULT:      -6.6      0.669      1.552
REMARK  Name = 
REMARK  12 active torsions:
REMARK  status: ('A' for Active; 'I' for Inactive)
REMARK    1  A    between atoms: C_1  and  C_2
REMARK    2  A    between atoms: C_2  and  C_3
REMARK    3  A    between atoms: C_4  and  C_5
REMARK    4  A    between atoms: C_5  and  C_6
REMARK    5  A    between atoms: C_11  and  C_12
REMARK    6  A    between atoms: C_12  and  C_13
REMARK    7  A    between atoms: C_13  and  O_15
REMARK    8  A    between atoms: O_15  and  C_16
REMARK    9  A    between atoms: C_16  and  C_17
REMARK   10  A    between atoms: C_17  and  C_18
REMARK   11  A    between atoms: C_18  and  C_19
REMARK   12  A    between atoms: C_19  and  C_20
REMARK                            x       y       z     vdW  Elec       q    Type
REMARK                         _______ _______ _______ _____ _____    ______ ____
ROOT
ATOM      1  C   UNL     1       5.390   5.891  16.001  0.00  0.00    +0.000 C 
ATOM      2  C   UNL     1       6.614   5.195  15.440  0.00  0.00    +0.000 C 
ATOM      3  O   UNL     1       7.509   5.736  14.811  0.00  0.00    +0.000 OA
ATOM      4  C   UNL     1       6.625   3.765  15.758  0.00  0.00    +0.000 C 
ATOM      5  C   UNL     1       5.469   3.509  16.366  0.00  0.00    +0.000 C 
ATOM      6  C   UNL     1       4.552   4.693  16.508  0.00  0.00    +0.000 C 
ENDROOT
BRANCH   1   7
ATOM      7  C   UNL     1       5.872   6.956  16.983  0.00  0.00    +0.000 C 
BRANCH   7   9
ATOM      8  C   UNL     1       8.070   7.495  18.069  0.00  0.00    +0.000 C 
ATOM      9  C   UNL     1       7.128   6.603  17.723  0.00  0.00    +0.000 C 
BRANCH   8  11
ATOM     10  C   UNL     1       8.922   9.715  18.801  0.00  0.00    +0.000 C 
ATOM     11  C   UNL     1       8.022   8.977  17.822  0.00  0.00    +0.000 C 
ENDBRANCH   8  11
ENDBRANCH   7   9
ENDBRANCH   1   7
BRANCH   6  12
ATOM     12  C   UNL     1       3.798   4.778  17.839  0.00  0.00    +0.000 C 
BRANCH  12  13
ATOM     13  C   UNL     1       4.499   4.350  19.114  0.00  0.00    +0.000 C 
ATOM     14  O   UNL     1       5.132   5.090  19.850  0.00  0.00    +0.000 OA
BRANCH  13  15
ATOM     15  O   UNL     1       4.498   2.986  19.194  0.00  0.00    +0.000 OA
BRANCH  15  16
ATOM     16  C   UNL     1       3.258   2.394  19.612  0.00  0.00    +0.000 C 
BRANCH  16  17
ATOM     17  C   UNL     1       2.796   2.735  21.028  0.00  0.00    +0.000 C 
BRANCH  17  18
ATOM     18  C   UNL     1       1.294   2.998  21.121  0.00  0.00    +0.000 C 
BRANCH  18  19
ATOM     19  C   UNL     1       0.884   4.245  20.330  0.00  0.00    +0.000 C 
ATOM     20  C   UNL     1       1.638   5.473  20.819  0.00  0.00    +0.000 C 
ENDBRANCH  18  19
ENDBRANCH  17  18
ENDBRANCH  16  17
ENDBRANCH  15  16
ENDBRANCH  13  15
ENDBRANCH  12  13
ENDBRANCH   6  12
TORSDOF 10
ENDMDL
MODEL 7
REMARK VINA RESULT:      -6.6      2.515      4.545
REMARK  Name = 
REMARK  12 active torsions:
REMARK  status: ('A' for Active; 'I' for Inactive)
REMARK    1  A    between atoms: C_1  and  C_2
REMARK    2  A    between atoms: C_2  and  C_3
REMARK    3  A    between atoms: C_4  and  C_5
REMARK    4  A    between atoms: C_5  and  C_6
REMARK    5  A    between atoms: C_11  and  C_12
REMARK    6  A    between atoms: C_12  and  C_13
REMARK    7  A    between atoms: C_13  and  O_15
REMARK    8  A    between atoms: O_15  and  C_16
REMARK    9  A    between atoms: C_16  and  C_17
REMARK   10  A    between atoms: C_17  and  C_18
REMARK   11  A    between atoms: C_18  and  C_19
REMARK   12  A    between atoms: C_19  and  C_20
REMARK                            x       y       z     vdW  Elec       q    Type
REMARK                         _______ _______ _______ _____ _____    ______ ____
ROOT
ATOM      1  C   UNL     1       6.297   3.999  15.350  0.00  0.00    +0.000 C 
ATOM      2  C   UNL     1       7.117   5.273  15.356  0.00  0.00    +0.000 C 
ATOM      3  O   UNL     1       7.911   5.608  14.492  0.00  0.00    +0.000 OA
ATOM      4  C   UNL     1       6.835   6.100  16.533  0.00  0.00    +0.000 C 
ATOM      5  C   UNL     1       6.001   5.395  17.294  0.00  0.00    +0.000 C 
ATOM      6  C   UNL     1       5.646   4.037  16.753  0.00  0.00    +0.000 C 
ENDROOT
BRANCH   1   7
ATOM      7  C   UNL     1       5.419   4.020  14.101  0.00  0.00    +0.000 C 
BRANCH   7   9
ATOM      8  C   UNL     1       5.365   3.170  11.739  0.00  0.00    +0.000 C 
ATOM      9  C   UNL     1       5.980   3.272  12.928  0.00  0.00    +0.000 C 
BRANCH   8  11
ATOM     10  C   UNL     1       3.268   2.899  10.428  0.00  0.00    +0.000 C 
ATOM     11  C   UNL     1       4.056   3.805  11.361  0.00  0.00    +0.000 C 
ENDBRANCH   8  11
ENDBRANCH   7   9
ENDBRANCH   1   7
BRANCH   6  12
ATOM     12  C   UNL     1       4.184   3.620  16.946  0.00  0.00    +0.000 C 
BRANCH  12  13
ATOM     13  C   UNL     1       3.831   2.658  18.064  0.00  0.00    +0.000 C 
ATOM     14  O   UNL     1       3.281   1.579  17.915  0.00  0.00    +0.000 OA
BRANCH  13  15
ATOM     15  O   UNL     1       4.023   3.276  19.268  0.00  0.00    +0.000 OA
BRANCH  15  16
ATOM     16  C   UNL     1       3.909   2.428  20.420  0.00  0.00    +0.000 C 
BRANCH  16  17
ATOM     17  C   UNL     1       2.683   2.656  21.303  0.00  0.00    +0.000 C 
BRANCH  17  18
ATOM     18  C   UNL     1       2.239   4.117  21.346  0.00  0.00    +0.000 C 
BRANCH  18  19
ATOM     19  C   UNL     1       1.040   4.375  20.428  0.00  0.00    +0.000 C 
ATOM     20  C   UNL     1       0.582   3.090  19.755  0.00  0.00    +0.000 C 
ENDBRANCH  18  19
ENDBRANCH  17  18
ENDBRANCH  16  17
ENDBRANCH  15  16
ENDBRANCH  13  15
ENDBRANCH  12  13
ENDBRANCH   6  12
TORSDOF 10
ENDMDL
MODEL 8
REMARK VINA RESULT:      -6.6      2.687      6.981
REMARK  Name = 
REMARK  12 active torsions:
REMARK  status: ('A' for Active; 'I' for Inactive)
REMARK    1  A    between atoms: C_1  and  C_2
REMARK    2  A    between atoms: C_2  and  C_3
REMARK    3  A    between atoms: C_4  and  C_5
REMARK    4  A    between atoms: C_5  and  C_6
REMARK    5  A    between atoms: C_11  and  C_12
REMARK    6  A    between atoms: C_12  and  C_13
REMARK    7  A    between atoms: C_13  and  O_15
REMARK    8  A    between atoms: O_15  and  C_16
REMARK    9  A    between atoms: C_16  and  C_17
REMARK   10  A    between atoms: C_17  and  C_18
REMARK   11  A    between atoms: C_18  and  C_19
REMARK   12  A    between atoms: C_19  and  C_20
REMARK                            x       y       z     vdW  Elec       q    Type
REMARK                         _______ _______ _______ _____ _____    ______ ____
ROOT
ATOM      1  C   UNL     1       3.384   4.571  17.576  0.00  0.00    +0.000 C 
ATOM      2  C   UNL     1       2.983   5.874  18.238  0.00  0.00    +0.000 C 
ATOM      3  O   UNL     1       2.032   6.024  18.987  0.00  0.00    +0.000 OA
ATOM      4  C   UNL     1       3.896   6.967  17.892  0.00  0.00    +0.000 C 
ATOM      5  C   UNL     1       4.749   6.473  16.997  0.00  0.00    +0.000 C 
ATOM      6  C   UNL     1       4.509   5.036  16.621  0.00  0.00    +0.000 C 
ENDROOT
BRANCH   1   7
ATOM      7  C   UNL     1       3.688   3.564  18.682  0.00  0.00    +0.000 C 
BRANCH   7   9
ATOM      8  C   UNL     1       1.849   1.931  19.187  0.00  0.00    +0.000 C 
ATOM      9  C   UNL     1       2.983   2.247  18.542  0.00  0.00    +0.000 C 
BRANCH   8  11
ATOM     10  C   UNL     1       1.546   2.660  21.546  0.00  0.00    +0.000 C 
ATOM     11  C   UNL     1       1.074   2.828  20.111  0.00  0.00    +0.000 C 
ENDBRANCH   8  11
ENDBRANCH   7   9
ENDBRANCH   1   7
BRANCH   6  12
ATOM     12  C   UNL     1       5.775   4.190  16.439  0.00  0.00    +0.000 C 
BRANCH  12  13
ATOM     13  C   UNL     1       6.664   4.442  15.236  0.00  0.00    +0.000 C 
ATOM     14  O   UNL     1       7.516   5.313  15.163  0.00  0.00    +0.000 OA
BRANCH  13  15
ATOM     15  O   UNL     1       6.219   3.696  14.182  0.00  0.00    +0.000 OA
BRANCH  15  16
ATOM     16  C   UNL     1       6.903   3.916  12.939  0.00  0.00    +0.000 C 
BRANCH  16  17
ATOM     17  C   UNL     1       6.246   3.316  11.696  0.00  0.00    +0.000 C 
BRANCH  17  18
ATOM     18  C   UNL     1       4.733   3.160  11.835  0.00  0.00    +0.000 C 
BRANCH  18  19
ATOM     19  C   UNL     1       3.983   3.854  10.694  0.00  0.00    +0.000 C 
ATOM     20  C   UNL     1       2.858   2.976  10.166  0.00  0.00    +0.000 C 
ENDBRANCH  18  19
ENDBRANCH  17  18
ENDBRANCH  16  17
ENDBRANCH  15  16
ENDBRANCH  13  15
ENDBRANCH  12  13
ENDBRANCH   6  12
TORSDOF 10
ENDMDL
MODEL 9
REMARK VINA RESULT:      -6.6      1.902      4.112
REMARK  Name = 
REMARK  12 active torsions:
REMARK  status: ('A' for Active; 'I' for Inactive)
REMARK    1  A    between atoms: C_1  and  C_2
REMARK    2  A    between atoms: C_2  and  C_3
REMARK    3  A    between atoms: C_4  and  C_5
REMARK    4  A    between atoms: C_5  and  C_6
REMARK    5  A    between atoms: C_11  and  C_12
REMARK    6  A    between atoms: C_12  and  C_13
REMARK    7  A    between atoms: C_13  and  O_15
REMARK    8  A    between atoms: O_15  and  C_16
REMARK    9  A    between atoms: C_16  and  C_17
REMARK   10  A    between atoms: C_17  and  C_18
REMARK   11  A    between atoms: C_18  and  C_19
REMARK   12  A    between atoms: C_19  and  C_20
REMARK                            x       y       z     vdW  Elec       q    Type
REMARK                         _______ _______ _______ _____ _____    ______ ____
ROOT
ATOM      1  C   UNL     1       6.336   4.839  17.073  0.00  0.00    +0.000 C 
ATOM      2  C   UNL     1       6.623   6.317  16.898  0.00  0.00    +0.000 C 
ATOM      3  O   UNL     1       7.729   6.811  16.755  0.00  0.00    +0.000 OA
ATOM      4  C   UNL     1       5.394   7.117  16.895  0.00  0.00    +0.000 C 
ATOM      5  C   UNL     1       4.399   6.273  17.161  0.00  0.00    +0.000 C 
ATOM      6  C   UNL     1       4.822   4.848  17.393  0.00  0.00    +0.000 C 
ENDROOT
BRANCH   1   7
ATOM      7  C   UNL     1       6.850   4.118  15.830  0.00  0.00    +0.000 C 
BRANCH   7   9
ATOM      8  C   UNL     1       6.526   4.561  13.381  0.00  0.00    +0.000 C 
ATOM      9  C   UNL     1       6.922   4.968  14.596  0.00  0.00    +0.000 C 
BRANCH   8  11
ATOM     10  C   UNL     1       4.963   3.353  11.867  0.00  0.00    +0.000 C 
ATOM     11  C   UNL     1       5.915   3.229  13.047  0.00  0.00    +0.000 C 
ENDBRANCH   8  11
ENDBRANCH   7   9
ENDBRANCH   1   7
BRANCH   6  12
ATOM     12  C   UNL     1       3.893   3.786  16.793  0.00  0.00    +0.000 C 
BRANCH  12  13
ATOM     13  C   UNL     1       2.628   3.407  17.537  0.00  0.00    +0.000 C 
ATOM     14  O   UNL     1       1.498   3.741  17.219  0.00  0.00    +0.000 OA
BRANCH  13  15
ATOM     15  O   UNL     1       2.962   2.824  18.727  0.00  0.00    +0.000 OA
BRANCH  15  16
ATOM     16  C   UNL     1       1.906   2.100  19.376  0.00  0.00    +0.000 C 
BRANCH  16  17
ATOM     17  C   UNL     1       1.255   2.792  20.573  0.00  0.00    +0.000 C 
BRANCH  17  18
ATOM     18  C   UNL     1       2.062   3.983  21.088  0.00  0.00    +0.000 C 
BRANCH  18  19
ATOM     19  C   UNL     1       1.405   5.317  20.720  0.00  0.00    +0.000 C 
ATOM     20  C   UNL     1       2.367   6.202  19.941  0.00  0.00    +0.000 C 
ENDBRANCH  18  19
ENDBRANCH  17  18
ENDBRANCH  16  17
ENDBRANCH  15  16
ENDBRANCH  13  15
ENDBRANCH  12  13
ENDBRANCH   6  12
TORSDOF 10
ENDMDL
