MODEL 1
REMARK VINA RESULT:      -8.1      0.000      0.000
REMARK  Name = 
REMARK  4 active torsions:
REMARK  status: ('A' for Active; 'I' for Inactive)
REMARK    1  A    between atoms: C_2  and  C_3
REMARK    2  A    between atoms: C_3  and  C_4
REMARK    3  A    between atoms: C_23  and  C_24
REMARK    4  A    between atoms: C_28  and  O_29
REMARK                            x       y       z     vdW  Elec       q    Type
REMARK                         _______ _______ _______ _____ _____    ______ ____
ROOT
ATOM      1  O   UNL     1      -2.974  11.962  20.848  0.00  0.00    +0.000 OA
ATOM      2  C   UNL     1      -2.308  12.101  19.814  0.00  0.00    +0.000 C 
ATOM      3  N   UNL     1      -0.924  12.041  19.862  0.00  0.00    +0.000 N 
ATOM      4  C   UNL     1      -0.316  11.733  21.181  0.00  0.00    +0.000 C 
ATOM      5  C   UNL     1       0.297  10.318  21.247  0.00  0.00    +0.000 C 
ATOM      6  C   UNL     1       0.839   9.891  19.923  0.00  0.00    +0.000 A 
ATOM      7  C   UNL     1       0.698  10.665  18.787  0.00  0.00    +0.000 A 
ATOM      8  N   UNL     1       1.271   9.989  17.742  0.00  0.00    +0.000 N 
ATOM      9  C   UNL     1       1.774   8.779  18.193  0.00  0.00    +0.000 A 
ATOM     10  C   UNL     1       2.420   7.753  17.485  0.00  0.00    +0.000 A 
ATOM     11  C   UNL     1       2.816   6.620  18.206  0.00  0.00    +0.000 A 
ATOM     12  C   UNL     1       2.586   6.530  19.576  0.00  0.00    +0.000 A 
ATOM     13 CL   UNL     1       3.090   5.123  20.435  0.00  0.00    +0.000 Cl
ATOM     14  C   UNL     1       1.943   7.560  20.270  0.00  0.00    +0.000 A 
ATOM     15  C   UNL     1       1.526   8.702  19.565  0.00  0.00    +0.000 A 
ATOM     16  C   UNL     1       0.029  12.014  18.714  0.00  0.00    +0.000 C 
ATOM     17  H   UNL     1       1.324  10.308  16.785  0.00  0.00    +0.000 HD
ENDROOT
BRANCH  16  18
ATOM     18  C   UNL     1       1.003  13.193  18.811  0.00  0.00    +0.000 A 
ATOM     19  C   UNL     1       0.594  14.488  19.195  0.00  0.00    +0.000 A 
ATOM     20  C   UNL     1       1.448  15.587  19.071  0.00  0.00    +0.000 A 
ATOM     21  C   UNL     1       2.741  15.411  18.592  0.00  0.00    +0.000 A 
ATOM     22  C   UNL     1       3.175  14.131  18.263  0.00  0.00    +0.000 A 
ATOM     23  C   UNL     1       2.325  13.030  18.370  0.00  0.00    +0.000 A 
BRANCH  22  24
ATOM     24  O   UNL     1       4.436  13.914  17.794  0.00  0.00    +0.000 OA
ATOM     25  H   UNL     1       4.559  14.443  16.989  0.00  0.00    +0.000 HD
ENDBRANCH  22  24
ENDBRANCH  16  18
BRANCH   2  26
ATOM     26  C   UNL     1      -3.068  12.303  18.503  0.00  0.00    +0.000 C 
BRANCH  26  27
ATOM     27  C   UNL     1      -3.867  11.058  18.037  0.00  0.00    +0.000 C 
ATOM     28  C   UNL     1      -3.054   9.758  17.880  0.00  0.00    +0.000 C 
ATOM     29  C   UNL     1      -2.120   9.776  16.671  0.00  0.00    +0.000 C 
ATOM     30  N   UNL     1      -2.839  10.044  15.423  0.00  0.00    +0.000 NA
ATOM     31  C   UNL     1      -3.607  11.286  15.495  0.00  0.00    +0.000 C 
ATOM     32  C   UNL     1      -4.569  11.323  16.688  0.00  0.00    +0.000 C 
ATOM     33  H   UNL     1      -3.470   9.267  15.232  0.00  0.00    +0.000 HD
ENDBRANCH  26  27
ENDBRANCH   2  26
TORSDOF 4
ENDMDL
MODEL 2
REMARK VINA RESULT:      -7.8      0.942      1.256
REMARK  Name = 
REMARK  4 active torsions:
REMARK  status: ('A' for Active; 'I' for Inactive)
REMARK    1  A    between atoms: C_2  and  C_3
REMARK    2  A    between atoms: C_3  and  C_4
REMARK    3  A    between atoms: C_23  and  C_24
REMARK    4  A    between atoms: C_28  and  O_29
REMARK                            x       y       z     vdW  Elec       q    Type
REMARK                         _______ _______ _______ _____ _____    ______ ____
ROOT
ATOM      1  O   UNL     1      -3.016  11.948  20.801  0.00  0.00    +0.000 OA
ATOM      2  C   UNL     1      -2.336  12.093  19.777  0.00  0.00    +0.000 C 
ATOM      3  N   UNL     1      -0.951  12.036  19.844  0.00  0.00    +0.000 N 
ATOM      4  C   UNL     1      -0.362  11.724  21.171  0.00  0.00    +0.000 C 
ATOM      5  C   UNL     1       0.252  10.310  21.240  0.00  0.00    +0.000 C 
ATOM      6  C   UNL     1       0.815   9.889  19.922  0.00  0.00    +0.000 A 
ATOM      7  C   UNL     1       0.688  10.669  18.788  0.00  0.00    +0.000 A 
ATOM      8  N   UNL     1       1.278   9.998  17.748  0.00  0.00    +0.000 N 
ATOM      9  C   UNL     1       1.778   8.788  18.201  0.00  0.00    +0.000 A 
ATOM     10  C   UNL     1       2.435   7.767  17.498  0.00  0.00    +0.000 A 
ATOM     11  C   UNL     1       2.824   6.631  18.219  0.00  0.00    +0.000 A 
ATOM     12  C   UNL     1       2.574   6.534  19.586  0.00  0.00    +0.000 A 
ATOM     13 CL   UNL     1       3.069   5.125  20.445  0.00  0.00    +0.000 Cl
ATOM     14  C   UNL     1       1.919   7.559  20.274  0.00  0.00    +0.000 A 
ATOM     15  C   UNL     1       1.509   8.704  19.568  0.00  0.00    +0.000 A 
ATOM     16  C   UNL     1       0.018  12.017  18.711  0.00  0.00    +0.000 C 
ATOM     17  H   UNL     1       1.344  10.322  16.794  0.00  0.00    +0.000 HD
ENDROOT
BRANCH  16  18
ATOM     18  C   UNL     1       0.987  13.197  18.827  0.00  0.00    +0.000 A 
ATOM     19  C   UNL     1       2.365  13.028  19.081  0.00  0.00    +0.000 A 
ATOM     20  C   UNL     1       3.186  14.115  19.394  0.00  0.00    +0.000 A 
ATOM     21  C   UNL     1       2.655  15.399  19.426  0.00  0.00    +0.000 A 
ATOM     22  C   UNL     1       1.310  15.586  19.123  0.00  0.00    +0.000 A 
ATOM     23  C   UNL     1       0.480  14.506  18.823  0.00  0.00    +0.000 A 
BRANCH  22  24
ATOM     24  O   UNL     1       0.750  16.829  19.138  0.00  0.00    +0.000 OA
ATOM     25  H   UNL     1       0.123  16.891  18.399  0.00  0.00    +0.000 HD
ENDBRANCH  22  24
ENDBRANCH  16  18
BRANCH   2  26
ATOM     26  C   UNL     1      -3.076  12.299  18.456  0.00  0.00    +0.000 C 
BRANCH  26  27
ATOM     27  C   UNL     1      -3.890  11.065  17.988  0.00  0.00    +0.000 C 
ATOM     28  C   UNL     1      -3.104   9.743  17.882  0.00  0.00    +0.000 C 
ATOM     29  C   UNL     1      -2.132   9.716  16.703  0.00  0.00    +0.000 C 
ATOM     30  N   UNL     1      -2.805   9.976  15.428  0.00  0.00    +0.000 NA
ATOM     31  C   UNL     1      -3.545  11.236  15.452  0.00  0.00    +0.000 C 
ATOM     32  C   UNL     1      -4.542  11.319  16.613  0.00  0.00    +0.000 C 
ATOM     33  H   UNL     1      -3.448   9.210  15.231  0.00  0.00    +0.000 HD
ENDBRANCH  26  27
ENDBRANCH   2  26
TORSDOF 4
ENDMDL
MODEL 3
REMARK VINA RESULT:      -7.5      3.064      6.631
REMARK  Name = 
REMARK  4 active torsions:
REMARK  status: ('A' for Active; 'I' for Inactive)
REMARK    1  A    between atoms: C_2  and  C_3
REMARK    2  A    between atoms: C_3  and  C_4
REMARK    3  A    between atoms: C_23  and  C_24
REMARK    4  A    between atoms: C_28  and  O_29
REMARK                            x       y       z     vdW  Elec       q    Type
REMARK                         _______ _______ _______ _____ _____    ______ ____
ROOT
ATOM      1  O   UNL     1       1.521   7.936  21.326  0.00  0.00    +0.000 OA
ATOM      2  C   UNL     1       1.407   8.347  20.165  0.00  0.00    +0.000 C 
ATOM      3  N   UNL     1       0.693   9.506  19.901  0.00  0.00    +0.000 N 
ATOM      4  C   UNL     1       0.155  10.237  21.077  0.00  0.00    +0.000 C 
ATOM      5  C   UNL     1       0.895  11.564  21.352  0.00  0.00    +0.000 C 
ATOM      6  C   UNL     1       1.383  12.194  20.090  0.00  0.00    +0.000 A 
ATOM      7  C   UNL     1       1.248  11.576  18.861  0.00  0.00    +0.000 A 
ATOM      8  N   UNL     1       1.817  12.389  17.916  0.00  0.00    +0.000 N 
ATOM      9  C   UNL     1       2.326  13.524  18.526  0.00  0.00    +0.000 A 
ATOM     10  C   UNL     1       3.012  14.615  17.969  0.00  0.00    +0.000 A 
ATOM     11  C   UNL     1       3.428  15.631  18.838  0.00  0.00    +0.000 A 
ATOM     12  C   UNL     1       3.155  15.558  20.202  0.00  0.00    +0.000 A 
ATOM     13 CL   UNL     1       3.677  16.827  21.245  0.00  0.00    +0.000 Cl
ATOM     14  C   UNL     1       2.470  14.466  20.744  0.00  0.00    +0.000 A 
ATOM     15  C   UNL     1       2.053  13.429  19.892  0.00  0.00    +0.000 A 
ATOM     16  C   UNL     1       0.592  10.243  18.608  0.00  0.00    +0.000 C 
ATOM     17  H   UNL     1       1.868  12.203  16.924  0.00  0.00    +0.000 HD
ENDROOT
BRANCH  16  18
ATOM     18  C   UNL     1      -0.874  10.347  18.175  0.00  0.00    +0.000 A 
ATOM     19  C   UNL     1      -1.401   9.616  17.089  0.00  0.00    +0.000 A 
ATOM     20  C   UNL     1      -2.674   9.884  16.581  0.00  0.00    +0.000 A 
ATOM     21  C   UNL     1      -3.464  10.866  17.168  0.00  0.00    +0.000 A 
ATOM     22  C   UNL     1      -2.978  11.556  18.275  0.00  0.00    +0.000 A 
ATOM     23  C   UNL     1      -1.703  11.305  18.780  0.00  0.00    +0.000 A 
BRANCH  22  24
ATOM     24  O   UNL     1      -3.721  12.523  18.884  0.00  0.00    +0.000 OA
ATOM     25  H   UNL     1      -4.549  12.122  19.196  0.00  0.00    +0.000 HD
ENDBRANCH  22  24
ENDBRANCH  16  18
BRANCH   2  26
ATOM     26  C   UNL     1       2.106   7.556  19.059  0.00  0.00    +0.000 C 
BRANCH  26  27
ATOM     27  C   UNL     1       2.830   6.278  19.557  0.00  0.00    +0.000 C 
ATOM     28  C   UNL     1       4.167   5.950  18.863  0.00  0.00    +0.000 C 
ATOM     29  C   UNL     1       3.993   5.454  17.429  0.00  0.00    +0.000 C 
ATOM     30  N   UNL     1       3.115   4.283  17.353  0.00  0.00    +0.000 NA
ATOM     31  C   UNL     1       1.814   4.541  17.967  0.00  0.00    +0.000 C 
ATOM     32  C   UNL     1       1.925   5.037  19.413  0.00  0.00    +0.000 C 
ATOM     33  H   UNL     1       3.564   3.502  17.829  0.00  0.00    +0.000 HD
ENDBRANCH  26  27
ENDBRANCH   2  26
TORSDOF 4
ENDMDL
MODEL 4
REMARK VINA RESULT:      -7.3      3.205      6.617
REMARK  Name = 
REMARK  4 active torsions:
REMARK  status: ('A' for Active; 'I' for Inactive)
REMARK    1  A    between atoms: C_2  and  C_3
REMARK    2  A    between atoms: C_3  and  C_4
REMARK    3  A    between atoms: C_23  and  C_24
REMARK    4  A    between atoms: C_28  and  O_29
REMARK                            x       y       z     vdW  Elec       q    Type
REMARK                         _______ _______ _______ _____ _____    ______ ____
ROOT
ATOM      1  O   UNL     1       1.467  13.661  21.599  0.00  0.00    +0.000 OA
ATOM      2  C   UNL     1       1.601  12.997  20.563  0.00  0.00    +0.000 C 
ATOM      3  N   UNL     1       0.826  11.867  20.352  0.00  0.00    +0.000 N 
ATOM      4  C   UNL     1      -0.196  11.560  21.384  0.00  0.00    +0.000 C 
ATOM      5  C   UNL     1      -1.639  11.812  20.898  0.00  0.00    +0.000 C 
ATOM      6  C   UNL     1      -1.781  11.551  19.435  0.00  0.00    +0.000 A 
ATOM      7  C   UNL     1      -0.699  11.219  18.640  0.00  0.00    +0.000 A 
ATOM      8  N   UNL     1      -1.150  11.075  17.354  0.00  0.00    +0.000 N 
ATOM      9  C   UNL     1      -2.513  11.319  17.311  0.00  0.00    +0.000 A 
ATOM     10  C   UNL     1      -3.394  11.312  16.218  0.00  0.00    +0.000 A 
ATOM     11  C   UNL     1      -4.738  11.611  16.468  0.00  0.00    +0.000 A 
ATOM     12  C   UNL     1      -5.178  11.892  17.759  0.00  0.00    +0.000 A 
ATOM     13 CL   UNL     1      -6.841  12.252  18.035  0.00  0.00    +0.000 Cl
ATOM     14  C   UNL     1      -4.291  11.894  18.840  0.00  0.00    +0.000 A 
ATOM     15  C   UNL     1      -2.933  11.607  18.610  0.00  0.00    +0.000 A 
ATOM     16  C   UNL     1       0.724  11.049  19.109  0.00  0.00    +0.000 C 
ATOM     17  H   UNL     1      -0.588  10.831  16.551  0.00  0.00    +0.000 HD
ENDROOT
BRANCH  16  18
ATOM     18  C   UNL     1       1.109   9.596  19.402  0.00  0.00    +0.000 A 
ATOM     19  C   UNL     1       0.891   8.989  20.658  0.00  0.00    +0.000 A 
ATOM     20  C   UNL     1       1.439   7.742  20.968  0.00  0.00    +0.000 A 
ATOM     21  C   UNL     1       2.189   7.058  20.019  0.00  0.00    +0.000 A 
ATOM     22  C   UNL     1       2.364   7.619  18.758  0.00  0.00    +0.000 A 
ATOM     23  C   UNL     1       1.833   8.870  18.444  0.00  0.00    +0.000 A 
BRANCH  22  24
ATOM     24  O   UNL     1       3.088   6.980  17.797  0.00  0.00    +0.000 OA
ATOM     25  H   UNL     1       3.450   6.163  18.179  0.00  0.00    +0.000 HD
ENDBRANCH  22  24
ENDBRANCH  16  18
BRANCH   2  26
ATOM     26  C   UNL     1       2.616  13.490  19.531  0.00  0.00    +0.000 C 
BRANCH  26  27
ATOM     27  C   UNL     1       2.013  14.417  18.444  0.00  0.00    +0.000 C 
ATOM     28  C   UNL     1       3.029  15.160  17.555  0.00  0.00    +0.000 C 
ATOM     29  C   UNL     1       3.765  16.279  18.290  0.00  0.00    +0.000 C 
ATOM     30  N   UNL     1       2.841  17.253  18.876  0.00  0.00    +0.000 NA
ATOM     31  C   UNL     1       1.868  16.614  19.760  0.00  0.00    +0.000 C 
ATOM     32  C   UNL     1       1.092  15.484  19.074  0.00  0.00    +0.000 C 
ATOM     33  H   UNL     1       2.351  17.736  18.125  0.00  0.00    +0.000 HD
ENDBRANCH  26  27
ENDBRANCH   2  26
TORSDOF 4
ENDMDL
MODEL 5
REMARK VINA RESULT:      -7.0      3.282      6.852
REMARK  Name = 
REMARK  4 active torsions:
REMARK  status: ('A' for Active; 'I' for Inactive)
REMARK    1  A    between atoms: C_2  and  C_3
REMARK    2  A    between atoms: C_3  and  C_4
REMARK    3  A    between atoms: C_23  and  C_24
REMARK    4  A    between atoms: C_28  and  O_29
REMARK                            x       y       z     vdW  Elec       q    Type
REMARK                         _______ _______ _______ _____ _____    ______ ____
ROOT
ATOM      1  O   UNL     1       1.324  13.588  21.709  0.00  0.00    +0.000 OA
ATOM      2  C   UNL     1       1.496  12.948  20.664  0.00  0.00    +0.000 C 
ATOM      3  N   UNL     1       0.747  11.809  20.411  0.00  0.00    +0.000 N 
ATOM      4  C   UNL     1      -0.295  11.463  21.411  0.00  0.00    +0.000 C 
ATOM      5  C   UNL     1      -1.730  11.700  20.893  0.00  0.00    +0.000 C 
ATOM      6  C   UNL     1      -1.830  11.466  19.422  0.00  0.00    +0.000 A 
ATOM      7  C   UNL     1      -0.723  11.169  18.649  0.00  0.00    +0.000 A 
ATOM      8  N   UNL     1      -1.138  11.043  17.349  0.00  0.00    +0.000 N 
ATOM      9  C   UNL     1      -2.504  11.264  17.275  0.00  0.00    +0.000 A 
ATOM     10  C   UNL     1      -3.357  11.263  16.160  0.00  0.00    +0.000 A 
ATOM     11  C   UNL     1      -4.713  11.534  16.382  0.00  0.00    +0.000 A 
ATOM     12  C   UNL     1      -5.189  11.781  17.667  0.00  0.00    +0.000 A 
ATOM     13 CL   UNL     1      -6.865  12.107  17.907  0.00  0.00    +0.000 Cl
ATOM     14  C   UNL     1      -4.330  11.777  18.769  0.00  0.00    +0.000 A 
ATOM     15  C   UNL     1      -2.962  11.519  18.569  0.00  0.00    +0.000 A 
ATOM     16  C   UNL     1       0.690  11.015  19.150  0.00  0.00    +0.000 C 
ATOM     17  H   UNL     1      -0.552  10.825  16.556  0.00  0.00    +0.000 HD
ENDROOT
BRANCH  16  18
ATOM     18  C   UNL     1       1.094   9.562  19.424  0.00  0.00    +0.000 A 
ATOM     19  C   UNL     1       0.881   8.936  20.671  0.00  0.00    +0.000 A 
ATOM     20  C   UNL     1       1.446   7.692  20.966  0.00  0.00    +0.000 A 
ATOM     21  C   UNL     1       2.206   7.031  20.009  0.00  0.00    +0.000 A 
ATOM     22  C   UNL     1       2.376   7.611  18.756  0.00  0.00    +0.000 A 
ATOM     23  C   UNL     1       1.829   8.859  18.457  0.00  0.00    +0.000 A 
BRANCH  22  24
ATOM     24  O   UNL     1       3.111   6.994  17.787  0.00  0.00    +0.000 OA
ATOM     25  H   UNL     1       3.791   6.450  18.219  0.00  0.00    +0.000 HD
ENDBRANCH  22  24
ENDBRANCH  16  18
BRANCH   2  26
ATOM     26  C   UNL     1       2.527  13.479  19.668  0.00  0.00    +0.000 C 
BRANCH  26  27
ATOM     27  C   UNL     1       2.656  15.024  19.655  0.00  0.00    +0.000 C 
ATOM     28  C   UNL     1       2.690  15.683  18.262  0.00  0.00    +0.000 C 
ATOM     29  C   UNL     1       3.998  15.434  17.512  0.00  0.00    +0.000 C 
ATOM     30  N   UNL     1       5.165  15.877  18.279  0.00  0.00    +0.000 NA
ATOM     31  C   UNL     1       5.209  15.260  19.603  0.00  0.00    +0.000 C 
ATOM     32  C   UNL     1       3.923  15.482  20.407  0.00  0.00    +0.000 C 
ATOM     33  H   UNL     1       5.131  16.890  18.379  0.00  0.00    +0.000 HD
ENDBRANCH  26  27
ENDBRANCH   2  26
TORSDOF 4
ENDMDL
MODEL 6
REMARK VINA RESULT:      -7.0      1.946      2.530
REMARK  Name = 
REMARK  4 active torsions:
REMARK  status: ('A' for Active; 'I' for Inactive)
REMARK    1  A    between atoms: C_2  and  C_3
REMARK    2  A    between atoms: C_3  and  C_4
REMARK    3  A    between atoms: C_23  and  C_24
REMARK    4  A    between atoms: C_28  and  O_29
REMARK                            x       y       z     vdW  Elec       q    Type
REMARK                         _______ _______ _______ _____ _____    ______ ____
ROOT
ATOM      1  O   UNL     1      -4.141  12.307  22.277  0.00  0.00    +0.000 OA
ATOM      2  C   UNL     1      -3.638  12.685  21.212  0.00  0.00    +0.000 C 
ATOM      3  N   UNL     1      -2.262  12.817  21.097  0.00  0.00    +0.000 N 
ATOM      4  C   UNL     1      -1.455  12.416  22.277  0.00  0.00    +0.000 C 
ATOM      5  C   UNL     1      -0.667  11.108  22.052  0.00  0.00    +0.000 C 
ATOM      6  C   UNL     1      -0.252  10.954  20.625  0.00  0.00    +0.000 A 
ATOM      7  C   UNL     1      -0.635  11.853  19.648  0.00  0.00    +0.000 A 
ATOM      8  N   UNL     1      -0.123  11.421  18.453  0.00  0.00    +0.000 N 
ATOM      9  C   UNL     1       0.582  10.244  18.650  0.00  0.00    +0.000 A 
ATOM     10  C   UNL     1       1.252   9.431  17.722  0.00  0.00    +0.000 A 
ATOM     11  C   UNL     1       1.878   8.276  18.207  0.00  0.00    +0.000 A 
ATOM     12  C   UNL     1       1.840   7.961  19.563  0.00  0.00    +0.000 A 
ATOM     13 CL   UNL     1       2.623   6.533  20.129  0.00  0.00    +0.000 Cl
ATOM     14  C   UNL     1       1.170   8.779  20.477  0.00  0.00    +0.000 A 
ATOM     15  C   UNL     1       0.525   9.939  20.011  0.00  0.00    +0.000 A 
ATOM     16  C   UNL     1      -1.471  13.090  19.862  0.00  0.00    +0.000 C 
ATOM     17  H   UNL     1      -0.235  11.876  17.559  0.00  0.00    +0.000 HD
ENDROOT
BRANCH  16  18
ATOM     18  C   UNL     1      -0.648  14.370  20.037  0.00  0.00    +0.000 A 
ATOM     19  C   UNL     1      -1.234  15.615  20.349  0.00  0.00    +0.000 A 
ATOM     20  C   UNL     1      -0.497  16.800  20.293  0.00  0.00    +0.000 A 
ATOM     21  C   UNL     1       0.851  16.765  19.956  0.00  0.00    +0.000 A 
ATOM     22  C   UNL     1       1.455  15.538  19.700  0.00  0.00    +0.000 A 
ATOM     23  C   UNL     1       0.724  14.350  19.740  0.00  0.00    +0.000 A 
BRANCH  22  24
ATOM     24  O   UNL     1       2.775  15.457  19.371  0.00  0.00    +0.000 OA
ATOM     25  H   UNL     1       3.116  16.359  19.250  0.00  0.00    +0.000 HD
ENDBRANCH  22  24
ENDBRANCH  16  18
BRANCH   2  26
ATOM     26  C   UNL     1      -4.580  12.959  20.040  0.00  0.00    +0.000 C 
BRANCH  26  27
ATOM     27  C   UNL     1      -5.349  11.709  19.540  0.00  0.00    +0.000 C 
ATOM     28  C   UNL     1      -4.924  11.166  18.161  0.00  0.00    +0.000 C 
ATOM     29  C   UNL     1      -5.360  12.062  17.002  0.00  0.00    +0.000 C 
ATOM     30  N   UNL     1      -6.807  12.294  17.000  0.00  0.00    +0.000 NA
ATOM     31  C   UNL     1      -7.270  12.841  18.273  0.00  0.00    +0.000 C 
ATOM     32  C   UNL     1      -6.867  11.980  19.475  0.00  0.00    +0.000 C 
ATOM     33  H   UNL     1      -7.282  11.411  16.818  0.00  0.00    +0.000 HD
ENDBRANCH  26  27
ENDBRANCH   2  26
TORSDOF 4
ENDMDL
MODEL 7
REMARK VINA RESULT:      -6.9      3.226      6.567
REMARK  Name = 
REMARK  4 active torsions:
REMARK  status: ('A' for Active; 'I' for Inactive)
REMARK    1  A    between atoms: C_2  and  C_3
REMARK    2  A    between atoms: C_3  and  C_4
REMARK    3  A    between atoms: C_23  and  C_24
REMARK    4  A    between atoms: C_28  and  O_29
REMARK                            x       y       z     vdW  Elec       q    Type
REMARK                         _______ _______ _______ _____ _____    ______ ____
ROOT
ATOM      1  O   UNL     1       1.423   8.116  21.320  0.00  0.00    +0.000 OA
ATOM      2  C   UNL     1       1.333   8.517  20.153  0.00  0.00    +0.000 C 
ATOM      3  N   UNL     1       0.728   9.733  19.876  0.00  0.00    +0.000 N 
ATOM      4  C   UNL     1       0.277  10.532  21.044  0.00  0.00    +0.000 C 
ATOM      5  C   UNL     1       1.143  11.787  21.286  0.00  0.00    +0.000 C 
ATOM      6  C   UNL     1       1.671  12.346  20.007  0.00  0.00    +0.000 A 
ATOM      7  C   UNL     1       1.462  11.723  18.791  0.00  0.00    +0.000 A 
ATOM      8  N   UNL     1       2.093  12.462  17.825  0.00  0.00    +0.000 N 
ATOM      9  C   UNL     1       2.715  13.554  18.408  0.00  0.00    +0.000 A 
ATOM     10  C   UNL     1       3.493  14.565  17.823  0.00  0.00    +0.000 A 
ATOM     11  C   UNL     1       4.014  15.552  18.668  0.00  0.00    +0.000 A 
ATOM     12  C   UNL     1       3.754  15.528  20.036  0.00  0.00    +0.000 A 
ATOM     13 CL   UNL     1       4.407  16.760  21.049  0.00  0.00    +0.000 Cl
ATOM     14  C   UNL     1       2.976  14.517  20.607  0.00  0.00    +0.000 A 
ATOM     15  C   UNL     1       2.452  13.508  19.778  0.00  0.00    +0.000 A 
ATOM     16  C   UNL     1       0.679  10.454  18.571  0.00  0.00    +0.000 C 
ATOM     17  H   UNL     1       2.113  12.255  16.836  0.00  0.00    +0.000 HD
ENDROOT
BRANCH  16  18
ATOM     18  C   UNL     1      -0.776  10.689  18.154  0.00  0.00    +0.000 A 
ATOM     19  C   UNL     1      -1.654  11.514  18.888  0.00  0.00    +0.000 A 
ATOM     20  C   UNL     1      -3.024  11.544  18.614  0.00  0.00    +0.000 A 
ATOM     21  C   UNL     1      -3.541  10.777  17.577  0.00  0.00    +0.000 A 
ATOM     22  C   UNL     1      -2.678  10.002  16.809  0.00  0.00    +0.000 A 
ATOM     23  C   UNL     1      -1.312   9.954  17.084  0.00  0.00    +0.000 A 
BRANCH  22  24
ATOM     24  O   UNL     1      -3.143   9.238  15.780  0.00  0.00    +0.000 OA
ATOM     25  H   UNL     1      -3.887   9.704  15.364  0.00  0.00    +0.000 HD
ENDBRANCH  22  24
ENDBRANCH  16  18
BRANCH   2  26
ATOM     26  C   UNL     1       1.939   7.643  19.054  0.00  0.00    +0.000 C 
BRANCH  26  27
ATOM     27  C   UNL     1       2.719   6.412  19.583  0.00  0.00    +0.000 C 
ATOM     28  C   UNL     1       4.053   6.107  18.873  0.00  0.00    +0.000 C 
ATOM     29  C   UNL     1       3.869   5.551  17.462  0.00  0.00    +0.000 C 
ATOM     30  N   UNL     1       3.034   4.348  17.448  0.00  0.00    +0.000 NA
ATOM     31  C   UNL     1       1.737   4.581  18.080  0.00  0.00    +0.000 C 
ATOM     32  C   UNL     1       1.858   5.134  19.504  0.00  0.00    +0.000 C 
ATOM     33  H   UNL     1       3.521   3.602  17.942  0.00  0.00    +0.000 HD
ENDBRANCH  26  27
ENDBRANCH   2  26
TORSDOF 4
ENDMDL
MODEL 8
REMARK VINA RESULT:      -6.9      1.532      1.937
REMARK  Name = 
REMARK  4 active torsions:
REMARK  status: ('A' for Active; 'I' for Inactive)
REMARK    1  A    between atoms: C_2  and  C_3
REMARK    2  A    between atoms: C_3  and  C_4
REMARK    3  A    between atoms: C_23  and  C_24
REMARK    4  A    between atoms: C_28  and  O_29
REMARK                            x       y       z     vdW  Elec       q    Type
REMARK                         _______ _______ _______ _____ _____    ______ ____
ROOT
ATOM      1  O   UNL     1      -2.990  12.270  21.482  0.00  0.00    +0.000 OA
ATOM      2  C   UNL     1      -2.464  12.388  20.368  0.00  0.00    +0.000 C 
ATOM      3  N   UNL     1      -1.085  12.332  20.237  0.00  0.00    +0.000 N 
ATOM      4  C   UNL     1      -0.310  12.053  21.473  0.00  0.00    +0.000 C 
ATOM      5  C   UNL     1       0.313  10.640  21.488  0.00  0.00    +0.000 C 
ATOM      6  C   UNL     1       0.681  10.186  20.114  0.00  0.00    +0.000 A 
ATOM      7  C   UNL     1       0.390  10.937  18.990  0.00  0.00    +0.000 A 
ATOM      8  N   UNL     1       0.826  10.240  17.894  0.00  0.00    +0.000 N 
ATOM      9  C   UNL     1       1.389   9.041  18.301  0.00  0.00    +0.000 A 
ATOM     10  C   UNL     1       1.942   8.001  17.536  0.00  0.00    +0.000 A 
ATOM     11  C   UNL     1       2.434   6.884  18.222  0.00  0.00    +0.000 A 
ATOM     12  C   UNL     1       2.383   6.822  19.613  0.00  0.00    +0.000 A 
ATOM     13 CL   UNL     1       3.001   5.435  20.427  0.00  0.00    +0.000 Cl
ATOM     14  C   UNL     1       1.831   7.865  20.362  0.00  0.00    +0.000 A 
ATOM     15  C   UNL     1       1.321   8.992  19.694  0.00  0.00    +0.000 A 
ATOM     16  C   UNL     1      -0.288  12.283  18.976  0.00  0.00    +0.000 C 
ATOM     17  H   UNL     1       0.754  10.539  16.932  0.00  0.00    +0.000 HD
ENDROOT
BRANCH  16  18
ATOM     18  C   UNL     1       0.685  13.465  18.922  0.00  0.00    +0.000 A 
ATOM     19  C   UNL     1       0.278  14.796  19.157  0.00  0.00    +0.000 A 
ATOM     20  C   UNL     1       1.128  15.873  18.894  0.00  0.00    +0.000 A 
ATOM     21  C   UNL     1       2.416  15.643  18.423  0.00  0.00    +0.000 A 
ATOM     22  C   UNL     1       2.848  14.333  18.241  0.00  0.00    +0.000 A 
ATOM     23  C   UNL     1       2.002  13.252  18.487  0.00  0.00    +0.000 A 
BRANCH  22  24
ATOM     24  O   UNL     1       4.104  14.063  17.785  0.00  0.00    +0.000 OA
ATOM     25  H   UNL     1       4.435  13.275  18.248  0.00  0.00    +0.000 HD
ENDBRANCH  22  24
ENDBRANCH  16  18
BRANCH   2  26
ATOM     26  C   UNL     1      -3.388  12.561  19.162  0.00  0.00    +0.000 C 
BRANCH  26  27
ATOM     27  C   UNL     1      -4.788  11.920  19.341  0.00  0.00    +0.000 C 
ATOM     28  C   UNL     1      -5.441  11.364  18.060  0.00  0.00    +0.000 C 
ATOM     29  C   UNL     1      -5.916  12.458  17.105  0.00  0.00    +0.000 C 
ATOM     30  N   UNL     1      -6.847  13.386  17.751  0.00  0.00    +0.000 NA
ATOM     31  C   UNL     1      -6.273  13.976  18.960  0.00  0.00    +0.000 C 
ATOM     32  C   UNL     1      -5.782  12.924  19.960  0.00  0.00    +0.000 C 
ATOM     33  H   UNL     1      -7.700  12.885  17.992  0.00  0.00    +0.000 HD
ENDBRANCH  26  27
ENDBRANCH   2  26
TORSDOF 4
ENDMDL
MODEL 9
REMARK VINA RESULT:      -6.8      3.232      6.828
REMARK  Name = 
REMARK  4 active torsions:
REMARK  status: ('A' for Active; 'I' for Inactive)
REMARK    1  A    between atoms: C_2  and  C_3
REMARK    2  A    between atoms: C_3  and  C_4
REMARK    3  A    between atoms: C_23  and  C_24
REMARK    4  A    between atoms: C_28  and  O_29
REMARK                            x       y       z     vdW  Elec       q    Type
REMARK                         _______ _______ _______ _____ _____    ______ ____
ROOT
ATOM      1  O   UNL     1       1.295  13.871  21.751  0.00  0.00    +0.000 OA
ATOM      2  C   UNL     1       1.442  13.385  20.622  0.00  0.00    +0.000 C 
ATOM      3  N   UNL     1       0.835  12.181  20.296  0.00  0.00    +0.000 N 
ATOM      4  C   UNL     1      -0.036  11.573  21.334  0.00  0.00    +0.000 C 
ATOM      5  C   UNL     1      -1.537  11.648  20.981  0.00  0.00    +0.000 C 
ATOM      6  C   UNL     1      -1.760  11.566  19.507  0.00  0.00    +0.000 A 
ATOM      7  C   UNL     1      -0.712  11.527  18.606  0.00  0.00    +0.000 A 
ATOM      8  N   UNL     1      -1.242  11.485  17.344  0.00  0.00    +0.000 N 
ATOM      9  C   UNL     1      -2.625  11.505  17.421  0.00  0.00    +0.000 A 
ATOM     10  C   UNL     1      -3.584  11.500  16.396  0.00  0.00    +0.000 A 
ATOM     11  C   UNL     1      -4.933  11.537  16.770  0.00  0.00    +0.000 A 
ATOM     12  C   UNL     1      -5.299  11.565  18.114  0.00  0.00    +0.000 A 
ATOM     13 CL   UNL     1      -6.968  11.606  18.542  0.00  0.00    +0.000 Cl
ATOM     14  C   UNL     1      -4.334  11.567  19.125  0.00  0.00    +0.000 A 
ATOM     15  C   UNL     1      -2.973  11.542  18.772  0.00  0.00    +0.000 A 
ATOM     16  C   UNL     1       0.755  11.533  18.955  0.00  0.00    +0.000 C 
ATOM     17  H   UNL     1      -0.719  11.448  16.480  0.00  0.00    +0.000 HD
ENDROOT
BRANCH  16  18
ATOM     18  C   UNL     1       1.383  10.136  19.008  0.00  0.00    +0.000 A 
ATOM     19  C   UNL     1       1.929   9.504  17.870  0.00  0.00    +0.000 A 
ATOM     20  C   UNL     1       2.299   8.157  17.894  0.00  0.00    +0.000 A 
ATOM     21  C   UNL     1       2.165   7.421  19.065  0.00  0.00    +0.000 A 
ATOM     22  C   UNL     1       1.681   8.047  20.209  0.00  0.00    +0.000 A 
ATOM     23  C   UNL     1       1.295   9.387  20.192  0.00  0.00    +0.000 A 
BRANCH  22  24
ATOM     24  O   UNL     1       1.538   7.363  21.380  0.00  0.00    +0.000 OA
ATOM     25  H   UNL     1       0.624   7.476  21.691  0.00  0.00    +0.000 HD
ENDBRANCH  22  24
ENDBRANCH  16  18
BRANCH   2  26
ATOM     26  C   UNL     1       2.276  14.173  19.613  0.00  0.00    +0.000 C 
BRANCH  26  27
ATOM     27  C   UNL     1       2.079  15.709  19.690  0.00  0.00    +0.000 C 
ATOM     28  C   UNL     1       1.920  16.435  18.340  0.00  0.00    +0.000 C 
ATOM     29  C   UNL     1       3.221  16.508  17.541  0.00  0.00    +0.000 C 
ATOM     30  N   UNL     1       4.299  17.145  18.302  0.00  0.00    +0.000 NA
ATOM     31  C   UNL     1       4.523  16.480  19.585  0.00  0.00    +0.000 C 
ATOM     32  C   UNL     1       3.251  16.382  20.435  0.00  0.00    +0.000 C 
ATOM     33  H   UNL     1       4.057  18.121  18.465  0.00  0.00    +0.000 HD
ENDBRANCH  26  27
ENDBRANCH   2  26
TORSDOF 4
ENDMDL
