MODEL 1
REMARK VINA RESULT:      -8.7      0.000      0.000
REMARK  Name = 
REMARK  2 active torsions:
REMARK  status: ('A' for Active; 'I' for Inactive)
REMARK    1  A    between atoms: C_12  and  C_13
REMARK    2  A    between atoms: C_17  and  O_18
REMARK                            x       y       z     vdW  Elec       q    Type
REMARK                         _______ _______ _______ _____ _____    ______ ____
ROOT
ATOM      1  O   UNL     1       3.703   1.132  18.291  0.00  0.00    +0.000 OA
ATOM      2  C   UNL     1       3.574   2.336  18.390  0.00  0.00    +0.000 C 
ATOM      3  C   UNL     1       2.855   3.076  19.454  0.00  0.00    +0.000 A 
ATOM      4  C   UNL     1       2.182   2.595  20.559  0.00  0.00    +0.000 A 
ATOM      5  C   UNL     1       1.586   3.540  21.395  0.00  0.00    +0.000 A 
ATOM      6  C   UNL     1       1.682   4.917  21.112  0.00  0.00    +0.000 A 
ATOM      7  C   UNL     1       2.375   5.380  19.987  0.00  0.00    +0.000 A 
ATOM      8  C   UNL     1       2.963   4.445  19.158  0.00  0.00    +0.000 A 
ATOM      9  C   UNL     1       3.732   4.587  17.948  0.00  0.00    +0.000 A 
ATOM     10  N   UNL     1       4.075   5.724  17.343  0.00  0.00    +0.000 NA
ATOM     11  N   UNL     1       4.830   5.620  16.197  0.00  0.00    +0.000 NA
ATOM     12  C   UNL     1       5.208   4.401  15.691  0.00  0.00    +0.000 A 
ATOM     13  C   UNL     1       4.854   3.218  16.324  0.00  0.00    +0.000 A 
ATOM     14  C   UNL     1       4.108   3.347  17.467  0.00  0.00    +0.000 A 
ENDROOT
BRANCH  12  15
ATOM     15  C   UNL     1       5.988   4.426  14.446  0.00  0.00    +0.000 A 
ATOM     16  C   UNL     1       5.628   3.617  13.352  0.00  0.00    +0.000 A 
ATOM     17  C   UNL     1       6.377   3.619  12.174  0.00  0.00    +0.000 A 
ATOM     18  C   UNL     1       7.508   4.423  12.066  0.00  0.00    +0.000 A 
ATOM     19  C   UNL     1       7.878   5.224  13.139  0.00  0.00    +0.000 A 
ATOM     20  C   UNL     1       7.127   5.240  14.308  0.00  0.00    +0.000 A 
BRANCH  19  21
ATOM     21  O   UNL     1       8.991   6.008  13.084  0.00  0.00    +0.000 OA
ATOM     22  H   UNL     1       9.771   5.447  13.233  0.00  0.00    +0.000 HD
ENDBRANCH  19  21
ENDBRANCH  12  15
TORSDOF 2
ENDMDL
MODEL 2
REMARK VINA RESULT:      -8.2      4.604      6.267
REMARK  Name = 
REMARK  2 active torsions:
REMARK  status: ('A' for Active; 'I' for Inactive)
REMARK    1  A    between atoms: C_12  and  C_13
REMARK    2  A    between atoms: C_17  and  O_18
REMARK                            x       y       z     vdW  Elec       q    Type
REMARK                         _______ _______ _______ _____ _____    ______ ____
ROOT
ATOM      1  O   UNL     1       0.960  11.075  18.430  0.00  0.00    +0.000 OA
ATOM      2  C   UNL     1       0.892  10.281  19.348  0.00  0.00    +0.000 C 
ATOM      3  C   UNL     1       0.213  10.471  20.651  0.00  0.00    +0.000 A 
ATOM      4  C   UNL     1      -0.491  11.561  21.125  0.00  0.00    +0.000 A 
ATOM      5  C   UNL     1      -1.022  11.457  22.411  0.00  0.00    +0.000 A 
ATOM      6  C   UNL     1      -0.843  10.286  23.175  0.00  0.00    +0.000 A 
ATOM      7  C   UNL     1      -0.129   9.192  22.668  0.00  0.00    +0.000 A 
ATOM      8  C   UNL     1       0.398   9.295  21.397  0.00  0.00    +0.000 A 
ATOM      9  C   UNL     1       1.165   8.372  20.600  0.00  0.00    +0.000 A 
ATOM     10  N   UNL     1       1.538   7.137  20.938  0.00  0.00    +0.000 NA
ATOM     11  N   UNL     1       2.260   6.425  20.007  0.00  0.00    +0.000 NA
ATOM     12  C   UNL     1       2.591   6.962  18.787  0.00  0.00    +0.000 A 
ATOM     13  C   UNL     1       2.199   8.245  18.435  0.00  0.00    +0.000 A 
ATOM     14  C   UNL     1       1.475   8.932  19.376  0.00  0.00    +0.000 A 
ENDROOT
BRANCH  12  15
ATOM     15  C   UNL     1       3.389   6.108  17.895  0.00  0.00    +0.000 A 
ATOM     16  C   UNL     1       3.114   4.733  17.776  0.00  0.00    +0.000 A 
ATOM     17  C   UNL     1       3.881   3.911  16.948  0.00  0.00    +0.000 A 
ATOM     18  C   UNL     1       4.944   4.446  16.226  0.00  0.00    +0.000 A 
ATOM     19  C   UNL     1       5.230   5.800  16.335  0.00  0.00    +0.000 A 
ATOM     20  C   UNL     1       4.460   6.627  17.145  0.00  0.00    +0.000 A 
BRANCH  19  21
ATOM     21  O   UNL     1       6.276   6.358  15.664  0.00  0.00    +0.000 OA
ATOM     22  H   UNL     1       5.966   7.172  15.231  0.00  0.00    +0.000 HD
ENDBRANCH  19  21
ENDBRANCH  12  15
TORSDOF 2
ENDMDL
MODEL 3
REMARK VINA RESULT:      -8.2      3.885      5.072
REMARK  Name = 
REMARK  2 active torsions:
REMARK  status: ('A' for Active; 'I' for Inactive)
REMARK    1  A    between atoms: C_12  and  C_13
REMARK    2  A    between atoms: C_17  and  O_18
REMARK                            x       y       z     vdW  Elec       q    Type
REMARK                         _______ _______ _______ _____ _____    ______ ____
ROOT
ATOM      1  O   UNL     1       1.880  10.241  17.438  0.00  0.00    +0.000 OA
ATOM      2  C   UNL     1       1.834   9.420  18.333  0.00  0.00    +0.000 C 
ATOM      3  C   UNL     1       0.988   9.464  19.548  0.00  0.00    +0.000 A 
ATOM      4  C   UNL     1       0.071  10.416  19.947  0.00  0.00    +0.000 A 
ATOM      5  C   UNL     1      -0.581  10.193  21.160  0.00  0.00    +0.000 A 
ATOM      6  C   UNL     1      -0.308   9.042  21.927  0.00  0.00    +0.000 A 
ATOM      7  C   UNL     1       0.624   8.089  21.497  0.00  0.00    +0.000 A 
ATOM      8  C   UNL     1       1.271   8.310  20.298  0.00  0.00    +0.000 A 
ATOM      9  C   UNL     1       2.261   7.542  19.588  0.00  0.00    +0.000 A 
ATOM     10  N   UNL     1       2.784   6.371  19.954  0.00  0.00    +0.000 NA
ATOM     11  N   UNL     1       3.712   5.808  19.107  0.00  0.00    +0.000 NA
ATOM     12  C   UNL     1       4.092   6.425  17.941  0.00  0.00    +0.000 A 
ATOM     13  C   UNL     1       3.544   7.641  17.559  0.00  0.00    +0.000 A 
ATOM     14  C   UNL     1       2.617   8.178  18.414  0.00  0.00    +0.000 A 
ENDROOT
BRANCH  12  15
ATOM     15  C   UNL     1       5.111   5.733  17.141  0.00  0.00    +0.000 A 
ATOM     16  C   UNL     1       4.951   5.570  15.752  0.00  0.00    +0.000 A 
ATOM     17  C   UNL     1       5.904   4.895  14.988  0.00  0.00    +0.000 A 
ATOM     18  C   UNL     1       7.036   4.360  15.597  0.00  0.00    +0.000 A 
ATOM     19  C   UNL     1       7.207   4.509  16.967  0.00  0.00    +0.000 A 
ATOM     20  C   UNL     1       6.270   5.195  17.731  0.00  0.00    +0.000 A 
BRANCH  19  21
ATOM     21  O   UNL     1       8.288   3.980  17.606  0.00  0.00    +0.000 OA
ATOM     22  H   UNL     1       8.411   4.453  18.446  0.00  0.00    +0.000 HD
ENDBRANCH  19  21
ENDBRANCH  12  15
TORSDOF 2
ENDMDL
MODEL 4
REMARK VINA RESULT:      -8.1      4.555      6.450
REMARK  Name = 
REMARK  2 active torsions:
REMARK  status: ('A' for Active; 'I' for Inactive)
REMARK    1  A    between atoms: C_12  and  C_13
REMARK    2  A    between atoms: C_17  and  O_18
REMARK                            x       y       z     vdW  Elec       q    Type
REMARK                         _______ _______ _______ _____ _____    ______ ____
ROOT
ATOM      1  O   UNL     1       1.061  11.127  18.443  0.00  0.00    +0.000 OA
ATOM      2  C   UNL     1       0.967  10.321  19.348  0.00  0.00    +0.000 C 
ATOM      3  C   UNL     1       0.242  10.491  20.629  0.00  0.00    +0.000 A 
ATOM      4  C   UNL     1      -0.483  11.570  21.092  0.00  0.00    +0.000 A 
ATOM      5  C   UNL     1      -1.058  11.447  22.358  0.00  0.00    +0.000 A 
ATOM      6  C   UNL     1      -0.898  10.267  23.112  0.00  0.00    +0.000 A 
ATOM      7  C   UNL     1      -0.160   9.184  22.617  0.00  0.00    +0.000 A 
ATOM      8  C   UNL     1       0.410   9.306  21.366  0.00  0.00    +0.000 A 
ATOM      9  C   UNL     1       1.209   8.398  20.585  0.00  0.00    +0.000 A 
ATOM     10  N   UNL     1       1.578   7.161  20.918  0.00  0.00    +0.000 NA
ATOM     11  N   UNL     1       2.335   6.465  20.004  0.00  0.00    +0.000 NA
ATOM     12  C   UNL     1       2.705   7.019  18.804  0.00  0.00    +0.000 A 
ATOM     13  C   UNL     1       2.317   8.305  18.454  0.00  0.00    +0.000 A 
ATOM     14  C   UNL     1       1.557   8.975  19.378  0.00  0.00    +0.000 A 
ENDROOT
BRANCH  12  15
ATOM     15  C   UNL     1       3.537   6.182  17.929  0.00  0.00    +0.000 A 
ATOM     16  C   UNL     1       4.312   6.756  16.904  0.00  0.00    +0.000 A 
ATOM     17  C   UNL     1       5.088   5.966  16.054  0.00  0.00    +0.000 A 
ATOM     18  C   UNL     1       5.101   4.582  16.206  0.00  0.00    +0.000 A 
ATOM     19  C   UNL     1       4.339   4.000  17.210  0.00  0.00    +0.000 A 
ATOM     20  C   UNL     1       3.577   4.783  18.070  0.00  0.00    +0.000 A 
BRANCH  19  21
ATOM     21  O   UNL     1       4.304   2.649  17.377  0.00  0.00    +0.000 OA
ATOM     22  H   UNL     1       4.723   2.432  18.228  0.00  0.00    +0.000 HD
ENDBRANCH  19  21
ENDBRANCH  12  15
TORSDOF 2
ENDMDL
MODEL 5
REMARK VINA RESULT:      -8.0      4.088      8.062
REMARK  Name = 
REMARK  2 active torsions:
REMARK  status: ('A' for Active; 'I' for Inactive)
REMARK    1  A    between atoms: C_12  and  C_13
REMARK    2  A    between atoms: C_17  and  O_18
REMARK                            x       y       z     vdW  Elec       q    Type
REMARK                         _______ _______ _______ _____ _____    ______ ____
ROOT
ATOM      1  O   UNL     1       3.511   4.219  19.715  0.00  0.00    +0.000 OA
ATOM      2  C   UNL     1       3.657   5.075  18.864  0.00  0.00    +0.000 C 
ATOM      3  C   UNL     1       4.458   4.976  17.621  0.00  0.00    +0.000 A 
ATOM      4  C   UNL     1       5.208   3.922  17.139  0.00  0.00    +0.000 A 
ATOM      5  C   UNL     1       5.871   4.121  15.928  0.00  0.00    +0.000 A 
ATOM      6  C   UNL     1       5.766   5.347  15.240  0.00  0.00    +0.000 A 
ATOM      7  C   UNL     1       4.994   6.400  15.748  0.00  0.00    +0.000 A 
ATOM      8  C   UNL     1       4.340   6.204  16.948  0.00  0.00    +0.000 A 
ATOM      9  C   UNL     1       3.485   7.064  17.724  0.00  0.00    +0.000 A 
ATOM     10  N   UNL     1       3.107   8.307  17.422  0.00  0.00    +0.000 NA
ATOM     11  N   UNL     1       2.268   8.940  18.310  0.00  0.00    +0.000 NA
ATOM     12  C   UNL     1       1.845   8.327  19.464  0.00  0.00    +0.000 A 
ATOM     13  C   UNL     1       2.235   7.032  19.776  0.00  0.00    +0.000 A 
ATOM     14  C   UNL     1       3.064   6.420  18.872  0.00  0.00    +0.000 A 
ENDROOT
BRANCH  12  15
ATOM     15  C   UNL     1       0.975   9.121  20.342  0.00  0.00    +0.000 A 
ATOM     16  C   UNL     1       0.070  10.056  19.807  0.00  0.00    +0.000 A 
ATOM     17  C   UNL     1      -0.744  10.831  20.635  0.00  0.00    +0.000 A 
ATOM     18  C   UNL     1      -0.665  10.693  22.018  0.00  0.00    +0.000 A 
ATOM     19  C   UNL     1       0.226   9.777  22.562  0.00  0.00    +0.000 A 
ATOM     20  C   UNL     1       1.027   8.991  21.742  0.00  0.00    +0.000 A 
BRANCH  19  21
ATOM     21  O   UNL     1       0.351   9.628  23.910  0.00  0.00    +0.000 OA
ATOM     22  H   UNL     1      -0.182  10.314  24.347  0.00  0.00    +0.000 HD
ENDBRANCH  19  21
ENDBRANCH  12  15
TORSDOF 2
ENDMDL
MODEL 6
REMARK VINA RESULT:      -7.9      3.686      4.946
REMARK  Name = 
REMARK  2 active torsions:
REMARK  status: ('A' for Active; 'I' for Inactive)
REMARK    1  A    between atoms: C_12  and  C_13
REMARK    2  A    between atoms: C_17  and  O_18
REMARK                            x       y       z     vdW  Elec       q    Type
REMARK                         _______ _______ _______ _____ _____    ______ ____
ROOT
ATOM      1  O   UNL     1       1.858  10.163  17.448  0.00  0.00    +0.000 OA
ATOM      2  C   UNL     1       1.808   9.356  18.356  0.00  0.00    +0.000 C 
ATOM      3  C   UNL     1       1.065   9.486  19.631  0.00  0.00    +0.000 A 
ATOM      4  C   UNL     1       0.270  10.520  20.084  0.00  0.00    +0.000 A 
ATOM      5  C   UNL     1      -0.305  10.366  21.346  0.00  0.00    +0.000 A 
ATOM      6  C   UNL     1      -0.077   9.202  22.108  0.00  0.00    +0.000 A 
ATOM      7  C   UNL     1       0.731   8.165  21.623  0.00  0.00    +0.000 A 
ATOM      8  C   UNL     1       1.301   8.318  20.375  0.00  0.00    +0.000 A 
ATOM      9  C   UNL     1       2.162   7.458  19.604  0.00  0.00    +0.000 A 
ATOM     10  N   UNL     1       2.605   6.248  19.947  0.00  0.00    +0.000 NA
ATOM     11  N   UNL     1       3.411   5.597  19.042  0.00  0.00    +0.000 NA
ATOM     12  C   UNL     1       3.754   6.168  17.841  0.00  0.00    +0.000 A 
ATOM     13  C   UNL     1       3.289   7.425  17.482  0.00  0.00    +0.000 A 
ATOM     14  C   UNL     1       2.482   8.050  18.397  0.00  0.00    +0.000 A 
ENDROOT
BRANCH  12  15
ATOM     15  C   UNL     1       4.644   5.381  16.976  0.00  0.00    +0.000 A 
ATOM     16  C   UNL     1       4.385   4.021  16.720  0.00  0.00    +0.000 A 
ATOM     17  C   UNL     1       5.237   3.261  15.918  0.00  0.00    +0.000 A 
ATOM     18  C   UNL     1       6.373   3.841  15.359  0.00  0.00    +0.000 A 
ATOM     19  C   UNL     1       6.645   5.181  15.606  0.00  0.00    +0.000 A 
ATOM     20  C   UNL     1       5.791   5.948  16.390  0.00  0.00    +0.000 A 
BRANCH  19  21
ATOM     21  O   UNL     1       7.757   5.781  15.098  0.00  0.00    +0.000 OA
ATOM     22  H   UNL     1       8.215   6.244  15.821  0.00  0.00    +0.000 HD
ENDBRANCH  19  21
ENDBRANCH  12  15
TORSDOF 2
ENDMDL
MODEL 7
REMARK VINA RESULT:      -7.8      4.546      6.698
REMARK  Name = 
REMARK  2 active torsions:
REMARK  status: ('A' for Active; 'I' for Inactive)
REMARK    1  A    between atoms: C_12  and  C_13
REMARK    2  A    between atoms: C_17  and  O_18
REMARK                            x       y       z     vdW  Elec       q    Type
REMARK                         _______ _______ _______ _____ _____    ______ ____
ROOT
ATOM      1  O   UNL     1       2.214   9.455  17.169  0.00  0.00    +0.000 OA
ATOM      2  C   UNL     1       1.858   9.188  18.300  0.00  0.00    +0.000 C 
ATOM      3  C   UNL     1       1.272  10.113  19.298  0.00  0.00    +0.000 A 
ATOM      4  C   UNL     1       0.992  11.460  19.190  0.00  0.00    +0.000 A 
ATOM      5  C   UNL     1       0.441  12.081  20.312  0.00  0.00    +0.000 A 
ATOM      6  C   UNL     1       0.185  11.350  21.490  0.00  0.00    +0.000 A 
ATOM      7  C   UNL     1       0.473   9.982  21.571  0.00  0.00    +0.000 A 
ATOM      8  C   UNL     1       1.020   9.368  20.463  0.00  0.00    +0.000 A 
ATOM      9  C   UNL     1       1.423   8.006  20.223  0.00  0.00    +0.000 A 
ATOM     10  N   UNL     1       1.331   6.980  21.070  0.00  0.00    +0.000 NA
ATOM     11  N   UNL     1       1.767   5.755  20.620  0.00  0.00    +0.000 NA
ATOM     12  C   UNL     1       2.284   5.593  19.357  0.00  0.00    +0.000 A 
ATOM     13  C   UNL     1       2.374   6.660  18.475  0.00  0.00    +0.000 A 
ATOM     14  C   UNL     1       1.927   7.868  18.944  0.00  0.00    +0.000 A 
ENDROOT
BRANCH  12  15
ATOM     15  C   UNL     1       2.740   4.241  19.009  0.00  0.00    +0.000 A 
ATOM     16  C   UNL     1       2.142   3.526  17.954  0.00  0.00    +0.000 A 
ATOM     17  C   UNL     1       2.555   2.233  17.631  0.00  0.00    +0.000 A 
ATOM     18  C   UNL     1       3.570   1.621  18.361  0.00  0.00    +0.000 A 
ATOM     19  C   UNL     1       4.168   2.312  19.407  0.00  0.00    +0.000 A 
ATOM     20  C   UNL     1       3.773   3.606  19.723  0.00  0.00    +0.000 A 
BRANCH  19  21
ATOM     21  O   UNL     1       5.148   1.741  20.161  0.00  0.00    +0.000 OA
ATOM     22  H   UNL     1       5.038   0.775  20.132  0.00  0.00    +0.000 HD
ENDBRANCH  19  21
ENDBRANCH  12  15
TORSDOF 2
ENDMDL
MODEL 8
REMARK VINA RESULT:      -7.8      1.075      1.499
REMARK  Name = 
REMARK  2 active torsions:
REMARK  status: ('A' for Active; 'I' for Inactive)
REMARK    1  A    between atoms: C_12  and  C_13
REMARK    2  A    between atoms: C_17  and  O_18
REMARK                            x       y       z     vdW  Elec       q    Type
REMARK                         _______ _______ _______ _____ _____    ______ ____
ROOT
ATOM      1  O   UNL     1       3.748   1.176  18.380  0.00  0.00    +0.000 OA
ATOM      2  C   UNL     1       3.628   2.384  18.440  0.00  0.00    +0.000 C 
ATOM      3  C   UNL     1       2.921   3.164  19.483  0.00  0.00    +0.000 A 
ATOM      4  C   UNL     1       2.252   2.725  20.607  0.00  0.00    +0.000 A 
ATOM      5  C   UNL     1       1.668   3.702  21.416  0.00  0.00    +0.000 A 
ATOM      6  C   UNL     1       1.771   5.068  21.086  0.00  0.00    +0.000 A 
ATOM      7  C   UNL     1       2.461   5.488  19.941  0.00  0.00    +0.000 A 
ATOM      8  C   UNL     1       3.036   4.522  19.140  0.00  0.00    +0.000 A 
ATOM      9  C   UNL     1       3.798   4.617  17.922  0.00  0.00    +0.000 A 
ATOM     10  N   UNL     1       4.145   5.731  17.276  0.00  0.00    +0.000 NA
ATOM     11  N   UNL     1       4.892   5.584  16.130  0.00  0.00    +0.000 NA
ATOM     12  C   UNL     1       5.258   4.345  15.663  0.00  0.00    +0.000 A 
ATOM     13  C   UNL     1       4.900   3.187  16.337  0.00  0.00    +0.000 A 
ATOM     14  C   UNL     1       4.163   3.360  17.480  0.00  0.00    +0.000 A 
ENDROOT
BRANCH  12  15
ATOM     15  C   UNL     1       6.030   4.323  14.412  0.00  0.00    +0.000 A 
ATOM     16  C   UNL     1       7.080   5.235  14.196  0.00  0.00    +0.000 A 
ATOM     17  C   UNL     1       7.804   5.235  13.003  0.00  0.00    +0.000 A 
ATOM     18  C   UNL     1       7.489   4.328  11.995  0.00  0.00    +0.000 A 
ATOM     19  C   UNL     1       6.453   3.424  12.192  0.00  0.00    +0.000 A 
ATOM     20  C   UNL     1       5.739   3.408  13.384  0.00  0.00    +0.000 A 
BRANCH  19  21
ATOM     21  O   UNL     1       6.097   2.536  11.222  0.00  0.00    +0.000 OA
ATOM     22  H   UNL     1       5.742   1.738  11.650  0.00  0.00    +0.000 HD
ENDBRANCH  19  21
ENDBRANCH  12  15
TORSDOF 2
ENDMDL
MODEL 9
REMARK VINA RESULT:      -7.8      1.540      1.738
REMARK  Name = 
REMARK  2 active torsions:
REMARK  status: ('A' for Active; 'I' for Inactive)
REMARK    1  A    between atoms: C_12  and  C_13
REMARK    2  A    between atoms: C_17  and  O_18
REMARK                            x       y       z     vdW  Elec       q    Type
REMARK                         _______ _______ _______ _____ _____    ______ ____
ROOT
ATOM      1  O   UNL     1       0.964   4.275  17.038  0.00  0.00    +0.000 OA
ATOM      2  C   UNL     1       1.931   3.971  17.709  0.00  0.00    +0.000 C 
ATOM      3  C   UNL     1       1.947   3.594  19.142  0.00  0.00    +0.000 A 
ATOM      4  C   UNL     1       0.900   3.495  20.036  0.00  0.00    +0.000 A 
ATOM      5  C   UNL     1       1.220   3.120  21.342  0.00  0.00    +0.000 A 
ATOM      6  C   UNL     1       2.554   2.853  21.711  0.00  0.00    +0.000 A 
ATOM      7  C   UNL     1       3.597   2.956  20.782  0.00  0.00    +0.000 A 
ATOM      8  C   UNL     1       3.282   3.329  19.491  0.00  0.00    +0.000 A 
ATOM      9  C   UNL     1       4.101   3.521  18.322  0.00  0.00    +0.000 A 
ATOM     10  N   UNL     1       5.420   3.352  18.229  0.00  0.00    +0.000 NA
ATOM     11  N   UNL     1       5.995   3.580  17.000  0.00  0.00    +0.000 NA
ATOM     12  C   UNL     1       5.249   3.974  15.917  0.00  0.00    +0.000 A 
ATOM     13  C   UNL     1       3.876   4.145  16.013  0.00  0.00    +0.000 A 
ATOM     14  C   UNL     1       3.325   3.905  17.245  0.00  0.00    +0.000 A 
ENDROOT
BRANCH  12  15
ATOM     15  C   UNL     1       5.987   4.213  14.669  0.00  0.00    +0.000 A 
ATOM     16  C   UNL     1       5.612   3.571  13.474  0.00  0.00    +0.000 A 
ATOM     17  C   UNL     1       6.322   3.775  12.289  0.00  0.00    +0.000 A 
ATOM     18  C   UNL     1       7.428   4.620  12.275  0.00  0.00    +0.000 A 
ATOM     19  C   UNL     1       7.814   5.258  13.447  0.00  0.00    +0.000 A 
ATOM     20  C   UNL     1       7.101   5.072  14.626  0.00  0.00    +0.000 A 
BRANCH  19  21
ATOM     21  O   UNL     1       8.904   6.073  13.482  0.00  0.00    +0.000 OA
ATOM     22  H   UNL     1       9.295   6.028  14.371  0.00  0.00    +0.000 HD
ENDBRANCH  19  21
ENDBRANCH  12  15
TORSDOF 2
ENDMDL
