MODEL 1
REMARK VINA RESULT:      -4.9      0.000      0.000
REMARK  Name = 
REMARK  3 active torsions:
REMARK  status: ('A' for Active; 'I' for Inactive)
REMARK    1  A    between atoms: C_1  and  O_2
REMARK    2  A    between atoms: O_2  and  C_3
REMARK    3  A    between atoms: C_7  and  C_8
REMARK                            x       y       z     vdW  Elec       q    Type
REMARK                         _______ _______ _______ _____ _____    ______ ____
ROOT
ATOM      1  C   UNL     1       4.169   3.785  18.855  0.00  0.00    +0.000 A 
ATOM      2  C   UNL     1       3.467   4.104  17.688  0.00  0.00    +0.000 A 
ATOM      3  C   UNL     1       2.076   3.980  17.636  0.00  0.00    +0.000 A 
ATOM      4  C   UNL     1       1.375   3.537  18.756  0.00  0.00    +0.000 A 
ATOM      5  C   UNL     1       2.075   3.218  19.922  0.00  0.00    +0.000 A 
ATOM      6  C   UNL     1       3.468   3.338  19.974  0.00  0.00    +0.000 A 
ENDROOT
BRANCH   1   8
ATOM      7  C   UNL     1       6.022   5.231  19.177  0.00  0.00    +0.000 C 
ATOM      8  O   UNL     1       5.525   3.956  18.783  0.00  0.00    +0.000 OA
ENDBRANCH   1   8
BRANCH   5   9
ATOM      9  C   UNL     1       1.338   2.759  21.115  0.00  0.00    +0.000 C 
ATOM     10  O   UNL     1       1.822   2.801  22.240  0.00  0.00    +0.000 OA
ENDBRANCH   5   9
TORSDOF 2
ENDMDL
MODEL 2
REMARK VINA RESULT:      -4.9      2.089      2.305
REMARK  Name = 
REMARK  3 active torsions:
REMARK  status: ('A' for Active; 'I' for Inactive)
REMARK    1  A    between atoms: C_1  and  O_2
REMARK    2  A    between atoms: O_2  and  C_3
REMARK    3  A    between atoms: C_7  and  C_8
REMARK                            x       y       z     vdW  Elec       q    Type
REMARK                         _______ _______ _______ _____ _____    ______ ____
ROOT
ATOM      1  C   UNL     1       2.463   5.717  19.142  0.00  0.00    +0.000 A 
ATOM      2  C   UNL     1       2.037   5.160  17.932  0.00  0.00    +0.000 A 
ATOM      3  C   UNL     1       1.467   3.883  17.895  0.00  0.00    +0.000 A 
ATOM      4  C   UNL     1       1.317   3.155  19.074  0.00  0.00    +0.000 A 
ATOM      5  C   UNL     1       1.742   3.711  20.283  0.00  0.00    +0.000 A 
ATOM      6  C   UNL     1       2.317   4.986  20.320  0.00  0.00    +0.000 A 
ENDROOT
BRANCH   1   8
ATOM      7  C   UNL     1       2.359   7.862  18.135  0.00  0.00    +0.000 C 
ATOM      8  O   UNL     1       2.997   6.974  19.047  0.00  0.00    +0.000 OA
ENDBRANCH   1   8
BRANCH   5   9
ATOM      9  C   UNL     1       1.575   2.950  21.536  0.00  0.00    +0.000 C 
ATOM     10  O   UNL     1       2.530   2.567  22.202  0.00  0.00    +0.000 OA
ENDBRANCH   5   9
TORSDOF 2
ENDMDL
MODEL 3
REMARK VINA RESULT:      -4.8      4.858      5.351
REMARK  Name = 
REMARK  3 active torsions:
REMARK  status: ('A' for Active; 'I' for Inactive)
REMARK    1  A    between atoms: C_1  and  O_2
REMARK    2  A    between atoms: O_2  and  C_3
REMARK    3  A    between atoms: C_7  and  C_8
REMARK                            x       y       z     vdW  Elec       q    Type
REMARK                         _______ _______ _______ _____ _____    ______ ____
ROOT
ATOM      1  C   UNL     1       6.289   4.543  15.839  0.00  0.00    +0.000 A 
ATOM      2  C   UNL     1       5.399   5.581  15.546  0.00  0.00    +0.000 A 
ATOM      3  C   UNL     1       5.305   6.698  16.382  0.00  0.00    +0.000 A 
ATOM      4  C   UNL     1       6.107   6.785  17.519  0.00  0.00    +0.000 A 
ATOM      5  C   UNL     1       6.996   5.749  17.812  0.00  0.00    +0.000 A 
ATOM      6  C   UNL     1       7.087   4.629  16.978  0.00  0.00    +0.000 A 
ENDROOT
BRANCH   1   8
ATOM      7  C   UNL     1       6.203   3.869  13.566  0.00  0.00    +0.000 C 
ATOM      8  O   UNL     1       6.293   3.510  14.941  0.00  0.00    +0.000 OA
ENDBRANCH   1   8
BRANCH   5   9
ATOM      9  C   UNL     1       7.856   5.840  19.008  0.00  0.00    +0.000 C 
ATOM     10  O   UNL     1       7.504   5.411  20.100  0.00  0.00    +0.000 OA
ENDBRANCH   5   9
TORSDOF 2
ENDMDL
MODEL 4
REMARK VINA RESULT:      -4.8      2.094      2.191
REMARK  Name = 
REMARK  3 active torsions:
REMARK  status: ('A' for Active; 'I' for Inactive)
REMARK    1  A    between atoms: C_1  and  O_2
REMARK    2  A    between atoms: O_2  and  C_3
REMARK    3  A    between atoms: C_7  and  C_8
REMARK                            x       y       z     vdW  Elec       q    Type
REMARK                         _______ _______ _______ _____ _____    ______ ____
ROOT
ATOM      1  C   UNL     1       2.124   4.762  18.358  0.00  0.00    +0.000 A 
ATOM      2  C   UNL     1       2.324   3.734  17.430  0.00  0.00    +0.000 A 
ATOM      3  C   UNL     1       2.259   2.395  17.825  0.00  0.00    +0.000 A 
ATOM      4  C   UNL     1       1.989   2.074  19.155  0.00  0.00    +0.000 A 
ATOM      5  C   UNL     1       1.789   3.100  20.081  0.00  0.00    +0.000 A 
ATOM      6  C   UNL     1       1.858   4.441  19.687  0.00  0.00    +0.000 A 
ENDROOT
BRANCH   1   8
ATOM      7  C   UNL     1       2.603   7.051  18.756  0.00  0.00    +0.000 C 
ATOM      8  O   UNL     1       2.205   6.029  17.847  0.00  0.00    +0.000 OA
ENDBRANCH   1   8
BRANCH   5   9
ATOM      9  C   UNL     1       1.491   2.767  21.488  0.00  0.00    +0.000 C 
ATOM     10  O   UNL     1       2.367   2.690  22.341  0.00  0.00    +0.000 OA
ENDBRANCH   5   9
TORSDOF 2
ENDMDL
MODEL 5
REMARK VINA RESULT:      -4.7      2.799      5.231
REMARK  Name = 
REMARK  3 active torsions:
REMARK  status: ('A' for Active; 'I' for Inactive)
REMARK    1  A    between atoms: C_1  and  O_2
REMARK    2  A    between atoms: O_2  and  C_3
REMARK    3  A    between atoms: C_7  and  C_8
REMARK                            x       y       z     vdW  Elec       q    Type
REMARK                         _______ _______ _______ _____ _____    ______ ____
ROOT
ATOM      1  C   UNL     1       3.548   4.191  17.294  0.00  0.00    +0.000 A 
ATOM      2  C   UNL     1       3.292   5.461  17.821  0.00  0.00    +0.000 A 
ATOM      3  C   UNL     1       4.094   6.552  17.475  0.00  0.00    +0.000 A 
ATOM      4  C   UNL     1       5.160   6.380  16.594  0.00  0.00    +0.000 A 
ATOM      5  C   UNL     1       5.416   5.112  16.067  0.00  0.00    +0.000 A 
ATOM      6  C   UNL     1       4.617   4.018  16.416  0.00  0.00    +0.000 A 
ENDROOT
BRANCH   1   8
ATOM      7  C   UNL     1       3.283   1.972  18.091  0.00  0.00    +0.000 C 
ATOM      8  O   UNL     1       2.689   3.207  17.703  0.00  0.00    +0.000 OA
ENDBRANCH   1   8
BRANCH   5   9
ATOM      9  C   UNL     1       6.537   4.926  15.124  0.00  0.00    +0.000 C 
ATOM     10  O   UNL     1       7.574   5.572  15.205  0.00  0.00    +0.000 OA
ENDBRANCH   5   9
TORSDOF 2
ENDMDL
MODEL 6
REMARK VINA RESULT:      -4.7      1.125      1.125
REMARK  Name = 
REMARK  3 active torsions:
REMARK  status: ('A' for Active; 'I' for Inactive)
REMARK    1  A    between atoms: C_1  and  O_2
REMARK    2  A    between atoms: O_2  and  C_3
REMARK    3  A    between atoms: C_7  and  C_8
REMARK                            x       y       z     vdW  Elec       q    Type
REMARK                         _______ _______ _______ _____ _____    ______ ____
ROOT
ATOM      1  C   UNL     1       3.378   5.049  19.066  0.00  0.00    +0.000 A 
ATOM      2  C   UNL     1       2.703   4.923  17.848  0.00  0.00    +0.000 A 
ATOM      3  C   UNL     1       1.565   4.117  17.743  0.00  0.00    +0.000 A 
ATOM      4  C   UNL     1       1.092   3.432  18.861  0.00  0.00    +0.000 A 
ATOM      5  C   UNL     1       1.767   3.558  20.078  0.00  0.00    +0.000 A 
ATOM      6  C   UNL     1       2.908   4.360  20.183  0.00  0.00    +0.000 A 
ENDROOT
BRANCH   1   8
ATOM      7  C   UNL     1       5.391   5.667  17.973  0.00  0.00    +0.000 C 
ATOM      8  O   UNL     1       4.472   5.871  19.042  0.00  0.00    +0.000 OA
ENDBRANCH   1   8
BRANCH   5   9
ATOM      9  C   UNL     1       1.265   2.844  21.268  0.00  0.00    +0.000 C 
ATOM     10  O   UNL     1       2.010   2.449  22.157  0.00  0.00    +0.000 OA
ENDBRANCH   5   9
TORSDOF 2
ENDMDL
MODEL 7
REMARK VINA RESULT:      -4.7      2.451      4.822
REMARK  Name = 
REMARK  3 active torsions:
REMARK  status: ('A' for Active; 'I' for Inactive)
REMARK    1  A    between atoms: C_1  and  O_2
REMARK    2  A    between atoms: O_2  and  C_3
REMARK    3  A    between atoms: C_7  and  C_8
REMARK                            x       y       z     vdW  Elec       q    Type
REMARK                         _______ _______ _______ _____ _____    ______ ____
ROOT
ATOM      1  C   UNL     1       3.080   3.929  17.291  0.00  0.00    +0.000 A 
ATOM      2  C   UNL     1       2.816   5.178  17.863  0.00  0.00    +0.000 A 
ATOM      3  C   UNL     1       3.809   6.160  17.923  0.00  0.00    +0.000 A 
ATOM      4  C   UNL     1       5.077   5.899  17.406  0.00  0.00    +0.000 A 
ATOM      5  C   UNL     1       5.341   4.652  16.834  0.00  0.00    +0.000 A 
ATOM      6  C   UNL     1       4.349   3.668  16.778  0.00  0.00    +0.000 A 
ENDROOT
BRANCH   1   8
ATOM      7  C   UNL     1       1.314   2.921  18.512  0.00  0.00    +0.000 C 
ATOM      8  O   UNL     1       2.025   3.058  17.286  0.00  0.00    +0.000 OA
ENDBRANCH   1   8
BRANCH   5   9
ATOM      9  C   UNL     1       6.678   4.374  16.274  0.00  0.00    +0.000 C 
ATOM     10  O   UNL     1       7.709   4.675  16.863  0.00  0.00    +0.000 OA
ENDBRANCH   5   9
TORSDOF 2
ENDMDL
MODEL 8
REMARK VINA RESULT:      -4.7      1.198      1.232
REMARK  Name = 
REMARK  3 active torsions:
REMARK  status: ('A' for Active; 'I' for Inactive)
REMARK    1  A    between atoms: C_1  and  O_2
REMARK    2  A    between atoms: O_2  and  C_3
REMARK    3  A    between atoms: C_7  and  C_8
REMARK                            x       y       z     vdW  Elec       q    Type
REMARK                         _______ _______ _______ _____ _____    ______ ____
ROOT
ATOM      1  C   UNL     1       3.817   3.756  18.170  0.00  0.00    +0.000 A 
ATOM      2  C   UNL     1       2.619   3.992  17.488  0.00  0.00    +0.000 A 
ATOM      3  C   UNL     1       1.388   3.802  18.122  0.00  0.00    +0.000 A 
ATOM      4  C   UNL     1       1.347   3.377  19.449  0.00  0.00    +0.000 A 
ATOM      5  C   UNL     1       2.544   3.142  20.131  0.00  0.00    +0.000 A 
ATOM      6  C   UNL     1       3.776   3.327  19.495  0.00  0.00    +0.000 A 
ENDROOT
BRANCH   1   8
ATOM      7  C   UNL     1       4.920   5.095  16.551  0.00  0.00    +0.000 C 
ATOM      8  O   UNL     1       4.954   3.985  17.443  0.00  0.00    +0.000 OA
ENDBRANCH   1   8
BRANCH   5   9
ATOM      9  C   UNL     1       2.508   2.703  21.539  0.00  0.00    +0.000 C 
ATOM     10  O   UNL     1       1.463   2.623  22.173  0.00  0.00    +0.000 OA
ENDBRANCH   5   9
TORSDOF 2
ENDMDL
MODEL 9
REMARK VINA RESULT:      -4.6      2.275      2.636
REMARK  Name = 
REMARK  3 active torsions:
REMARK  status: ('A' for Active; 'I' for Inactive)
REMARK    1  A    between atoms: C_1  and  O_2
REMARK    2  A    between atoms: O_2  and  C_3
REMARK    3  A    between atoms: C_7  and  C_8
REMARK                            x       y       z     vdW  Elec       q    Type
REMARK                         _______ _______ _______ _____ _____    ______ ____
ROOT
ATOM      1  C   UNL     1       5.527   4.921  19.056  0.00  0.00    +0.000 A 
ATOM      2  C   UNL     1       5.013   5.942  18.249  0.00  0.00    +0.000 A 
ATOM      3  C   UNL     1       3.884   5.724  17.455  0.00  0.00    +0.000 A 
ATOM      4  C   UNL     1       3.256   4.479  17.465  0.00  0.00    +0.000 A 
ATOM      5  C   UNL     1       3.769   3.459  18.271  0.00  0.00    +0.000 A 
ATOM      6  C   UNL     1       4.902   3.675  19.062  0.00  0.00    +0.000 A 
ENDROOT
BRANCH   1   8
ATOM      7  C   UNL     1       7.747   5.754  19.060  0.00  0.00    +0.000 C 
ATOM      8  O   UNL     1       6.630   5.261  19.792  0.00  0.00    +0.000 OA
ENDBRANCH   1   8
BRANCH   5   9
ATOM      9  C   UNL     1       3.102   2.143  18.294  0.00  0.00    +0.000 C 
ATOM     10  O   UNL     1       3.717   1.102  18.497  0.00  0.00    +0.000 OA
ENDBRANCH   5   9
TORSDOF 2
ENDMDL
