MODEL 1
REMARK VINA RESULT:      -8.3      0.000      0.000
REMARK  Name = 
REMARK  9 active torsions:
REMARK  status: ('A' for Active; 'I' for Inactive)
REMARK    1  A    between atoms: C_1  and  C_2
REMARK    2  A    between atoms: N_4  and  C_5
REMARK    3  A    between atoms: C_8  and  O_9
REMARK    4  A    between atoms: O_9  and  C_10
REMARK    5  A    between atoms: C_10  and  N_12
REMARK    6  A    between atoms: N_12  and  C_13
REMARK    7  A    between atoms: C_16  and  N_17
REMARK    8  A    between atoms: N_17  and  C_18
REMARK    9  A    between atoms: C_21  and  N_22
REMARK                            x       y       z     vdW  Elec       q    Type
REMARK                         _______ _______ _______ _____ _____    ______ ____
ROOT
ATOM      1  C   UNL     1       2.337   7.160  19.871  0.00  0.00    +0.000 A 
ATOM      2  C   UNL     1       1.545   8.051  20.600  0.00  0.00    +0.000 A 
ATOM      3  C   UNL     1       0.922   9.130  19.971  0.00  0.00    +0.000 A 
ATOM      4  C   UNL     1       1.113   9.362  18.609  0.00  0.00    +0.000 A 
ATOM      5  C   UNL     1       1.900   8.461  17.880  0.00  0.00    +0.000 A 
ATOM      6  C   UNL     1       2.526   7.382  18.508  0.00  0.00    +0.000 A 
ENDROOT
BRANCH   1   7
ATOM      7  N   UNL     1       2.989   6.061  20.454  0.00  0.00    +0.000 N 
ATOM      8  H   UNL     1       3.755   6.249  21.090  0.00  0.00    +0.000 HD
BRANCH   7   9
ATOM      9  C   UNL     1       2.783   4.731  20.191  0.00  0.00    +0.000 C 
ATOM     10  S   UNL     1       1.327   3.995  20.515  0.00  0.00    +0.000 S 
BRANCH   9  11
ATOM     11  O   UNL     1       3.898   4.057  19.686  0.00  0.00    +0.000 OA
BRANCH  11  15
ATOM     12  C   UNL     1       5.498   4.050  15.814  0.00  0.00    +0.000 A 
ATOM     13  C   UNL     1       4.145   3.780  16.037  0.00  0.00    +0.000 A 
ATOM     14  C   UNL     1       3.634   3.770  17.333  0.00  0.00    +0.000 A 
ATOM     15  C   UNL     1       4.485   4.038  18.399  0.00  0.00    +0.000 A 
ATOM     16  C   UNL     1       5.816   4.377  18.200  0.00  0.00    +0.000 A 
ATOM     17  C   UNL     1       6.329   4.350  16.902  0.00  0.00    +0.000 A 
BRANCH  12  21
ATOM     18  C   UNL     1       7.418   4.606  12.630  0.00  0.00    +0.000 C 
ATOM     19  C   UNL     1       7.123   4.823  14.090  0.00  0.00    +0.000 C 
ATOM     20  O   UNL     1       7.756   5.642  14.745  0.00  0.00    +0.000 OA
ATOM     21  N   UNL     1       6.096   4.015  14.540  0.00  0.00    +0.000 N 
ATOM     22  H   UNL     1       5.773   3.286  13.917  0.00  0.00    +0.000 HD
ENDBRANCH  12  21
ENDBRANCH  11  15
ENDBRANCH   9  11
ENDBRANCH   7   9
ENDBRANCH   1   7
BRANCH   4  23
ATOM     23  N   UNL     1       0.481  10.461  17.989  0.00  0.00    +0.000 N 
ATOM     24  H   UNL     1       0.781  10.571  17.022  0.00  0.00    +0.000 HD
BRANCH  23  25
ATOM     25  C   UNL     1      -0.884  10.808  18.103  0.00  0.00    +0.000 A 
ATOM     26  C   UNL     1      -1.821  10.093  17.343  0.00  0.00    +0.000 A 
ATOM     27  C   UNL     1      -3.186  10.371  17.454  0.00  0.00    +0.000 A 
ATOM     28  C   UNL     1      -3.620  11.355  18.354  0.00  0.00    +0.000 A 
ATOM     29  C   UNL     1      -2.699  12.054  19.141  0.00  0.00    +0.000 A 
ATOM     30  C   UNL     1      -1.337  11.770  19.017  0.00  0.00    +0.000 A 
BRANCH  28  31
ATOM     31  N   UNL     1      -5.053  11.644  18.485  0.00  0.00    +0.000 N 
ATOM     32  O   UNL     1      -5.852  10.766  18.132  0.00  0.00    +0.000 OA
ATOM     33  O   UNL     1      -5.379  12.750  18.940  0.00  0.00    +0.000 OA
ENDBRANCH  28  31
ENDBRANCH  23  25
ENDBRANCH   4  23
TORSDOF 8
ENDMDL
MODEL 2
REMARK VINA RESULT:      -8.3      0.673      1.669
REMARK  Name = 
REMARK  9 active torsions:
REMARK  status: ('A' for Active; 'I' for Inactive)
REMARK    1  A    between atoms: C_1  and  C_2
REMARK    2  A    between atoms: N_4  and  C_5
REMARK    3  A    between atoms: C_8  and  O_9
REMARK    4  A    between atoms: O_9  and  C_10
REMARK    5  A    between atoms: C_10  and  N_12
REMARK    6  A    between atoms: N_12  and  C_13
REMARK    7  A    between atoms: C_16  and  N_17
REMARK    8  A    between atoms: N_17  and  C_18
REMARK    9  A    between atoms: C_21  and  N_22
REMARK                            x       y       z     vdW  Elec       q    Type
REMARK                         _______ _______ _______ _____ _____    ______ ____
ROOT
ATOM      1  C   UNL     1       2.290   6.802  20.053  0.00  0.00    +0.000 A 
ATOM      2  C   UNL     1       2.428   7.018  18.679  0.00  0.00    +0.000 A 
ATOM      3  C   UNL     1       1.894   8.159  18.080  0.00  0.00    +0.000 A 
ATOM      4  C   UNL     1       1.177   9.087  18.836  0.00  0.00    +0.000 A 
ATOM      5  C   UNL     1       1.050   8.871  20.214  0.00  0.00    +0.000 A 
ATOM      6  C   UNL     1       1.581   7.728  20.816  0.00  0.00    +0.000 A 
ENDROOT
BRANCH   1   7
ATOM      7  N   UNL     1       2.804   5.669  20.706  0.00  0.00    +0.000 N 
ATOM      8  H   UNL     1       2.858   5.690  21.717  0.00  0.00    +0.000 HD
BRANCH   7   9
ATOM      9  C   UNL     1       3.350   4.550  20.131  0.00  0.00    +0.000 C 
ATOM     10  S   UNL     1       2.620   3.061  20.262  0.00  0.00    +0.000 S 
BRANCH   9  11
ATOM     11  O   UNL     1       4.572   4.760  19.488  0.00  0.00    +0.000 OA
BRANCH  11  15
ATOM     12  C   UNL     1       5.956   4.000  15.607  0.00  0.00    +0.000 A 
ATOM     13  C   UNL     1       6.826   4.431  16.612  0.00  0.00    +0.000 A 
ATOM     14  C   UNL     1       6.344   4.695  17.893  0.00  0.00    +0.000 A 
ATOM     15  C   UNL     1       4.991   4.518  18.158  0.00  0.00    +0.000 A 
ATOM     16  C   UNL     1       4.120   4.026  17.197  0.00  0.00    +0.000 A 
ATOM     17  C   UNL     1       4.602   3.797  15.908  0.00  0.00    +0.000 A 
BRANCH  12  21
ATOM     18  C   UNL     1       7.278   4.117  12.089  0.00  0.00    +0.000 C 
ATOM     19  C   UNL     1       7.171   4.592  13.514  0.00  0.00    +0.000 C 
ATOM     20  O   UNL     1       7.760   5.600  13.887  0.00  0.00    +0.000 OA
ATOM     21  N   UNL     1       6.359   3.776  14.277  0.00  0.00    +0.000 N 
ATOM     22  H   UNL     1       6.064   2.900  13.864  0.00  0.00    +0.000 HD
ENDBRANCH  12  21
ENDBRANCH  11  15
ENDBRANCH   9  11
ENDBRANCH   7   9
ENDBRANCH   1   7
BRANCH   4  23
ATOM     23  N   UNL     1       0.638  10.232  18.214  0.00  0.00    +0.000 N 
ATOM     24  H   UNL     1       1.065  10.403  17.304  0.00  0.00    +0.000 HD
BRANCH  23  25
ATOM     25  C   UNL     1      -0.728  10.587  18.169  0.00  0.00    +0.000 A 
ATOM     26  C   UNL     1      -1.179  11.619  19.005  0.00  0.00    +0.000 A 
ATOM     27  C   UNL     1      -2.514  12.034  18.964  0.00  0.00    +0.000 A 
ATOM     28  C   UNL     1      -3.399  11.430  18.061  0.00  0.00    +0.000 A 
ATOM     29  C   UNL     1      -2.955  10.420  17.199  0.00  0.00    +0.000 A 
ATOM     30  C   UNL     1      -1.621  10.012  17.252  0.00  0.00    +0.000 A 
BRANCH  28  31
ATOM     31  N   UNL     1      -4.797  11.868  18.004  0.00  0.00    +0.000 N 
ATOM     32  O   UNL     1      -5.342  11.917  16.893  0.00  0.00    +0.000 OA
ATOM     33  O   UNL     1      -5.353  12.164  19.073  0.00  0.00    +0.000 OA
ENDBRANCH  28  31
ENDBRANCH  23  25
ENDBRANCH   4  23
TORSDOF 8
ENDMDL
MODEL 3
REMARK VINA RESULT:      -8.2      1.441      1.861
REMARK  Name = 
REMARK  9 active torsions:
REMARK  status: ('A' for Active; 'I' for Inactive)
REMARK    1  A    between atoms: C_1  and  C_2
REMARK    2  A    between atoms: N_4  and  C_5
REMARK    3  A    between atoms: C_8  and  O_9
REMARK    4  A    between atoms: O_9  and  C_10
REMARK    5  A    between atoms: C_10  and  N_12
REMARK    6  A    between atoms: N_12  and  C_13
REMARK    7  A    between atoms: C_16  and  N_17
REMARK    8  A    between atoms: N_17  and  C_18
REMARK    9  A    between atoms: C_21  and  N_22
REMARK                            x       y       z     vdW  Elec       q    Type
REMARK                         _______ _______ _______ _____ _____    ______ ____
ROOT
ATOM      1  C   UNL     1       1.903   7.806  19.881  0.00  0.00    +0.000 A 
ATOM      2  C   UNL     1       1.959   8.381  18.608  0.00  0.00    +0.000 A 
ATOM      3  C   UNL     1       1.207   9.517  18.306  0.00  0.00    +0.000 A 
ATOM      4  C   UNL     1       0.355  10.077  19.257  0.00  0.00    +0.000 A 
ATOM      5  C   UNL     1       0.309   9.503  20.534  0.00  0.00    +0.000 A 
ATOM      6  C   UNL     1       1.058   8.364  20.839  0.00  0.00    +0.000 A 
ENDROOT
BRANCH   1   7
ATOM      7  N   UNL     1       2.635   6.661  20.237  0.00  0.00    +0.000 N 
ATOM      8  H   UNL     1       2.938   6.575  21.199  0.00  0.00    +0.000 HD
BRANCH   7   9
ATOM      9  C   UNL     1       3.089   5.668  19.407  0.00  0.00    +0.000 C 
ATOM     10  S   UNL     1       2.206   4.284  19.142  0.00  0.00    +0.000 S 
BRANCH   9  11
ATOM     11  O   UNL     1       4.354   5.898  18.860  0.00  0.00    +0.000 OA
BRANCH  11  15
ATOM     12  C   UNL     1       6.109   4.879  15.194  0.00  0.00    +0.000 A 
ATOM     13  C   UNL     1       5.457   6.104  15.367  0.00  0.00    +0.000 A 
ATOM     14  C   UNL     1       4.865   6.418  16.589  0.00  0.00    +0.000 A 
ATOM     15  C   UNL     1       4.936   5.502  17.633  0.00  0.00    +0.000 A 
ATOM     16  C   UNL     1       5.636   4.310  17.507  0.00  0.00    +0.000 A 
ATOM     17  C   UNL     1       6.196   3.987  16.272  0.00  0.00    +0.000 A 
BRANCH  12  21
ATOM     18  C   UNL     1       6.953   3.430  11.829  0.00  0.00    +0.000 C 
ATOM     19  C   UNL     1       6.012   3.864  12.921  0.00  0.00    +0.000 C 
ATOM     20  O   UNL     1       4.805   3.668  12.826  0.00  0.00    +0.000 OA
ATOM     21  N   UNL     1       6.674   4.468  13.972  0.00  0.00    +0.000 N 
ATOM     22  H   UNL     1       7.652   4.689  13.837  0.00  0.00    +0.000 HD
ENDBRANCH  12  21
ENDBRANCH  11  15
ENDBRANCH   9  11
ENDBRANCH   7   9
ENDBRANCH   1   7
BRANCH   4  23
ATOM     23  N   UNL     1      -0.403  11.221  18.934  0.00  0.00    +0.000 N 
ATOM     24  H   UNL     1       0.069  11.803  18.243  0.00  0.00    +0.000 HD
BRANCH  23  25
ATOM     25  C   UNL     1      -1.797  11.258  18.708  0.00  0.00    +0.000 A 
ATOM     26  C   UNL     1      -2.357  10.323  17.824  0.00  0.00    +0.000 A 
ATOM     27  C   UNL     1      -3.736  10.293  17.603  0.00  0.00    +0.000 A 
ATOM     28  C   UNL     1      -4.567  11.189  18.290  0.00  0.00    +0.000 A 
ATOM     29  C   UNL     1      -4.026  12.107  19.196  0.00  0.00    +0.000 A 
ATOM     30  C   UNL     1      -2.646  12.129  19.407  0.00  0.00    +0.000 A 
BRANCH  28  31
ATOM     31  N   UNL     1      -6.017  11.155  18.070  0.00  0.00    +0.000 N 
ATOM     32  O   UNL     1      -6.510  12.026  17.342  0.00  0.00    +0.000 OA
ATOM     33  O   UNL     1      -6.665  10.256  18.628  0.00  0.00    +0.000 OA
ENDBRANCH  28  31
ENDBRANCH  23  25
ENDBRANCH   4  23
TORSDOF 8
ENDMDL
MODEL 4
REMARK VINA RESULT:      -8.2      2.997      3.858
REMARK  Name = 
REMARK  9 active torsions:
REMARK  status: ('A' for Active; 'I' for Inactive)
REMARK    1  A    between atoms: C_1  and  C_2
REMARK    2  A    between atoms: N_4  and  C_5
REMARK    3  A    between atoms: C_8  and  O_9
REMARK    4  A    between atoms: O_9  and  C_10
REMARK    5  A    between atoms: C_10  and  N_12
REMARK    6  A    between atoms: N_12  and  C_13
REMARK    7  A    between atoms: C_16  and  N_17
REMARK    8  A    between atoms: N_17  and  C_18
REMARK    9  A    between atoms: C_21  and  N_22
REMARK                            x       y       z     vdW  Elec       q    Type
REMARK                         _______ _______ _______ _____ _____    ______ ____
ROOT
ATOM      1  C   UNL     1       2.324   7.247  19.776  0.00  0.00    +0.000 A 
ATOM      2  C   UNL     1       2.452   7.578  18.424  0.00  0.00    +0.000 A 
ATOM      3  C   UNL     1       1.853   8.729  17.912  0.00  0.00    +0.000 A 
ATOM      4  C   UNL     1       1.082   9.551  18.733  0.00  0.00    +0.000 A 
ATOM      5  C   UNL     1       0.964   9.222  20.090  0.00  0.00    +0.000 A 
ATOM      6  C   UNL     1       1.560   8.068  20.604  0.00  0.00    +0.000 A 
ENDROOT
BRANCH   1   7
ATOM      7  N   UNL     1       2.903   6.099  20.342  0.00  0.00    +0.000 N 
ATOM      8  H   UNL     1       3.604   6.228  21.061  0.00  0.00    +0.000 HD
BRANCH   7   9
ATOM      9  C   UNL     1       2.708   4.794  19.966  0.00  0.00    +0.000 C 
ATOM     10  S   UNL     1       1.261   4.019  20.232  0.00  0.00    +0.000 S 
BRANCH   9  11
ATOM     11  O   UNL     1       3.828   4.176  19.402  0.00  0.00    +0.000 OA
BRANCH  11  15
ATOM     12  C   UNL     1       6.334   5.107  16.176  0.00  0.00    +0.000 A 
ATOM     13  C   UNL     1       6.852   4.904  17.458  0.00  0.00    +0.000 A 
ATOM     14  C   UNL     1       6.001   4.611  18.522  0.00  0.00    +0.000 A 
ATOM     15  C   UNL     1       4.634   4.519  18.291  0.00  0.00    +0.000 A 
ATOM     16  C   UNL     1       4.102   4.649  17.016  0.00  0.00    +0.000 A 
ATOM     17  C   UNL     1       4.955   4.976  15.962  0.00  0.00    +0.000 A 
BRANCH  12  21
ATOM     18  C   UNL     1       8.224   5.401  12.940  0.00  0.00    +0.000 C 
ATOM     19  C   UNL     1       7.161   4.833  13.842  0.00  0.00    +0.000 C 
ATOM     20  O   UNL     1       6.447   3.910  13.469  0.00  0.00    +0.000 OA
ATOM     21  N   UNL     1       7.124   5.468  15.068  0.00  0.00    +0.000 N 
ATOM     22  H   UNL     1       7.678   6.308  15.171  0.00  0.00    +0.000 HD
ENDBRANCH  12  21
ENDBRANCH  11  15
ENDBRANCH   9  11
ENDBRANCH   7   9
ENDBRANCH   1   7
BRANCH   4  23
ATOM     23  N   UNL     1       0.478  10.709  18.199  0.00  0.00    +0.000 N 
ATOM     24  H   UNL     1      -0.539  10.645  18.216  0.00  0.00    +0.000 HD
BRANCH  23  25
ATOM     25  C   UNL     1       0.871  12.042  18.451  0.00  0.00    +0.000 A 
ATOM     26  C   UNL     1       2.234  12.364  18.373  0.00  0.00    +0.000 A 
ATOM     27  C   UNL     1       2.666  13.678  18.572  0.00  0.00    +0.000 A 
ATOM     28  C   UNL     1       1.724  14.685  18.825  0.00  0.00    +0.000 A 
ATOM     29  C   UNL     1       0.358  14.384  18.875  0.00  0.00    +0.000 A 
ATOM     30  C   UNL     1      -0.060  13.067  18.679  0.00  0.00    +0.000 A 
BRANCH  28  31
ATOM     31  N   UNL     1       2.169  16.069  19.023  0.00  0.00    +0.000 N 
ATOM     32  O   UNL     1       1.304  16.954  19.052  0.00  0.00    +0.000 OA
ATOM     33  O   UNL     1       3.386  16.271  19.150  0.00  0.00    +0.000 OA
ENDBRANCH  28  31
ENDBRANCH  23  25
ENDBRANCH   4  23
TORSDOF 8
ENDMDL
MODEL 5
REMARK VINA RESULT:      -8.1      1.185      2.024
REMARK  Name = 
REMARK  9 active torsions:
REMARK  status: ('A' for Active; 'I' for Inactive)
REMARK    1  A    between atoms: C_1  and  C_2
REMARK    2  A    between atoms: N_4  and  C_5
REMARK    3  A    between atoms: C_8  and  O_9
REMARK    4  A    between atoms: O_9  and  C_10
REMARK    5  A    between atoms: C_10  and  N_12
REMARK    6  A    between atoms: N_12  and  C_13
REMARK    7  A    between atoms: C_16  and  N_17
REMARK    8  A    between atoms: N_17  and  C_18
REMARK    9  A    between atoms: C_21  and  N_22
REMARK                            x       y       z     vdW  Elec       q    Type
REMARK                         _______ _______ _______ _____ _____    ______ ____
ROOT
ATOM      1  C   UNL     1       2.395   6.012  19.951  0.00  0.00    +0.000 A 
ATOM      2  C   UNL     1       2.624   6.509  18.665  0.00  0.00    +0.000 A 
ATOM      3  C   UNL     1       2.214   7.796  18.316  0.00  0.00    +0.000 A 
ATOM      4  C   UNL     1       1.533   8.596  19.232  0.00  0.00    +0.000 A 
ATOM      5  C   UNL     1       1.314   8.098  20.523  0.00  0.00    +0.000 A 
ATOM      6  C   UNL     1       1.720   6.809  20.875  0.00  0.00    +0.000 A 
ENDROOT
BRANCH   1   7
ATOM      7  N   UNL     1       2.783   4.723  20.355  0.00  0.00    +0.000 N 
ATOM      8  H   UNL     1       2.890   4.551  21.348  0.00  0.00    +0.000 HD
BRANCH   7   9
ATOM      9  C   UNL     1       3.141   3.669  19.554  0.00  0.00    +0.000 C 
ATOM     10  S   UNL     1       2.043   2.503  19.109  0.00  0.00    +0.000 S 
BRANCH   9  11
ATOM     11  O   UNL     1       4.492   3.639  19.199  0.00  0.00    +0.000 OA
BRANCH  11  15
ATOM     12  C   UNL     1       6.659   4.997  15.880  0.00  0.00    +0.000 A 
ATOM     13  C   UNL     1       7.259   4.886  17.138  0.00  0.00    +0.000 A 
ATOM     14  C   UNL     1       6.518   4.448  18.234  0.00  0.00    +0.000 A 
ATOM     15  C   UNL     1       5.178   4.119  18.059  0.00  0.00    +0.000 A 
ATOM     16  C   UNL     1       4.578   4.155  16.808  0.00  0.00    +0.000 A 
ATOM     17  C   UNL     1       5.316   4.627  15.722  0.00  0.00    +0.000 A 
BRANCH  12  21
ATOM     18  C   UNL     1       8.258   5.649  12.541  0.00  0.00    +0.000 C 
ATOM     19  C   UNL     1       7.320   4.937  13.478  0.00  0.00    +0.000 C 
ATOM     20  O   UNL     1       6.659   3.977  13.099  0.00  0.00    +0.000 OA
ATOM     21  N   UNL     1       7.327   5.492  14.744  0.00  0.00    +0.000 N 
ATOM     22  H   UNL     1       7.814   6.371  14.861  0.00  0.00    +0.000 HD
ENDBRANCH  12  21
ENDBRANCH  11  15
ENDBRANCH   9  11
ENDBRANCH   7   9
ENDBRANCH   1   7
BRANCH   4  23
ATOM     23  N   UNL     1       1.120   9.893  18.860  0.00  0.00    +0.000 N 
ATOM     24  H   UNL     1       1.700  10.274  18.115  0.00  0.00    +0.000 HD
BRANCH  23  25
ATOM     25  C   UNL     1      -0.215  10.321  18.685  0.00  0.00    +0.000 A 
ATOM     26  C   UNL     1      -0.721  11.304  19.549  0.00  0.00    +0.000 A 
ATOM     27  C   UNL     1      -2.022  11.790  19.387  0.00  0.00    +0.000 A 
ATOM     28  C   UNL     1      -2.815  11.307  18.337  0.00  0.00    +0.000 A 
ATOM     29  C   UNL     1      -2.313  10.348  17.450  0.00  0.00    +0.000 A 
ATOM     30  C   UNL     1      -1.013   9.868  17.624  0.00  0.00    +0.000 A 
BRANCH  28  31
ATOM     31  N   UNL     1      -4.177  11.821  18.154  0.00  0.00    +0.000 N 
ATOM     32  O   UNL     1      -4.682  12.459  19.088  0.00  0.00    +0.000 OA
ATOM     33  O   UNL     1      -4.743  11.586  17.076  0.00  0.00    +0.000 OA
ENDBRANCH  28  31
ENDBRANCH  23  25
ENDBRANCH   4  23
TORSDOF 8
ENDMDL
MODEL 6
REMARK VINA RESULT:      -8.0      1.445      2.000
REMARK  Name = 
REMARK  9 active torsions:
REMARK  status: ('A' for Active; 'I' for Inactive)
REMARK    1  A    between atoms: C_1  and  C_2
REMARK    2  A    between atoms: N_4  and  C_5
REMARK    3  A    between atoms: C_8  and  O_9
REMARK    4  A    between atoms: O_9  and  C_10
REMARK    5  A    between atoms: C_10  and  N_12
REMARK    6  A    between atoms: N_12  and  C_13
REMARK    7  A    between atoms: C_16  and  N_17
REMARK    8  A    between atoms: N_17  and  C_18
REMARK    9  A    between atoms: C_21  and  N_22
REMARK                            x       y       z     vdW  Elec       q    Type
REMARK                         _______ _______ _______ _____ _____    ______ ____
ROOT
ATOM      1  C   UNL     1       2.149   7.674  19.699  0.00  0.00    +0.000 A 
ATOM      2  C   UNL     1       2.075   8.145  18.386  0.00  0.00    +0.000 A 
ATOM      3  C   UNL     1       1.293   9.257  18.072  0.00  0.00    +0.000 A 
ATOM      4  C   UNL     1       0.539   9.895  19.056  0.00  0.00    +0.000 A 
ATOM      5  C   UNL     1       0.624   9.424  20.374  0.00  0.00    +0.000 A 
ATOM      6  C   UNL     1       1.404   8.310  20.690  0.00  0.00    +0.000 A 
ENDROOT
BRANCH   1   7
ATOM      7  N   UNL     1       2.917   6.557  20.070  0.00  0.00    +0.000 N 
ATOM      8  H   UNL     1       3.285   6.528  21.014  0.00  0.00    +0.000 HD
BRANCH   7   9
ATOM      9  C   UNL     1       3.327   5.522  19.269  0.00  0.00    +0.000 C 
ATOM     10  S   UNL     1       2.436   4.124  19.131  0.00  0.00    +0.000 S 
BRANCH   9  11
ATOM     11  O   UNL     1       4.557   5.724  18.638  0.00  0.00    +0.000 OA
BRANCH  11  15
ATOM     12  C   UNL     1       5.986   4.204  15.004  0.00  0.00    +0.000 A 
ATOM     13  C   UNL     1       5.533   3.352  16.015  0.00  0.00    +0.000 A 
ATOM     14  C   UNL     1       5.077   3.875  17.223  0.00  0.00    +0.000 A 
ATOM     15  C   UNL     1       5.073   5.253  17.407  0.00  0.00    +0.000 A 
ATOM     16  C   UNL     1       5.452   6.123  16.394  0.00  0.00    +0.000 A 
ATOM     17  C   UNL     1       5.941   5.592  15.201  0.00  0.00    +0.000 A 
BRANCH  12  21
ATOM     18  C   UNL     1       6.688   2.835  11.574  0.00  0.00    +0.000 C 
ATOM     19  C   UNL     1       5.809   3.428  12.643  0.00  0.00    +0.000 C 
ATOM     20  O   UNL     1       4.607   3.579  12.458  0.00  0.00    +0.000 OA
ATOM     21  N   UNL     1       6.520   3.746  13.784  0.00  0.00    +0.000 N 
ATOM     22  H   UNL     1       7.529   3.699  13.730  0.00  0.00    +0.000 HD
ENDBRANCH  12  21
ENDBRANCH  11  15
ENDBRANCH   9  11
ENDBRANCH   7   9
ENDBRANCH   1   7
BRANCH   4  23
ATOM     23  N   UNL     1      -0.251  11.014  18.721  0.00  0.00    +0.000 N 
ATOM     24  H   UNL     1       0.186  11.579  17.994  0.00  0.00    +0.000 HD
BRANCH  23  25
ATOM     25  C   UNL     1      -1.652  11.019  18.544  0.00  0.00    +0.000 A 
ATOM     26  C   UNL     1      -2.411  11.974  19.237  0.00  0.00    +0.000 A 
ATOM     27  C   UNL     1      -3.796  12.044  19.061  0.00  0.00    +0.000 A 
ATOM     28  C   UNL     1      -4.425  11.169  18.164  0.00  0.00    +0.000 A 
ATOM     29  C   UNL     1      -3.676  10.232  17.444  0.00  0.00    +0.000 A 
ATOM     30  C   UNL     1      -2.294  10.169  17.631  0.00  0.00    +0.000 A 
BRANCH  28  31
ATOM     31  N   UNL     1      -5.876  11.246  17.966  0.00  0.00    +0.000 N 
ATOM     32  O   UNL     1      -6.582  10.413  18.551  0.00  0.00    +0.000 OA
ATOM     33  O   UNL     1      -6.311  12.139  17.224  0.00  0.00    +0.000 OA
ENDBRANCH  28  31
ENDBRANCH  23  25
ENDBRANCH   4  23
TORSDOF 8
ENDMDL
MODEL 7
REMARK VINA RESULT:      -8.0      3.100      3.892
REMARK  Name = 
REMARK  9 active torsions:
REMARK  status: ('A' for Active; 'I' for Inactive)
REMARK    1  A    between atoms: C_1  and  C_2
REMARK    2  A    between atoms: N_4  and  C_5
REMARK    3  A    between atoms: C_8  and  O_9
REMARK    4  A    between atoms: O_9  and  C_10
REMARK    5  A    between atoms: C_10  and  N_12
REMARK    6  A    between atoms: N_12  and  C_13
REMARK    7  A    between atoms: C_16  and  N_17
REMARK    8  A    between atoms: N_17  and  C_18
REMARK    9  A    between atoms: C_21  and  N_22
REMARK                            x       y       z     vdW  Elec       q    Type
REMARK                         _______ _______ _______ _____ _____    ______ ____
ROOT
ATOM      1  C   UNL     1       2.178   7.139  19.976  0.00  0.00    +0.000 A 
ATOM      2  C   UNL     1       1.478   8.065  20.755  0.00  0.00    +0.000 A 
ATOM      3  C   UNL     1       0.991   9.245  20.192  0.00  0.00    +0.000 A 
ATOM      4  C   UNL     1       1.230   9.542  18.851  0.00  0.00    +0.000 A 
ATOM      5  C   UNL     1       1.925   8.607  18.072  0.00  0.00    +0.000 A 
ATOM      6  C   UNL     1       2.415   7.426  18.633  0.00  0.00    +0.000 A 
ENDROOT
BRANCH   1   7
ATOM      7  N   UNL     1       2.693   5.938  20.492  0.00  0.00    +0.000 N 
ATOM      8  H   UNL     1       3.118   5.962  21.411  0.00  0.00    +0.000 HD
BRANCH   7   9
ATOM      9  C   UNL     1       2.786   4.727  19.855  0.00  0.00    +0.000 C 
ATOM     10  S   UNL     1       1.453   3.760  19.625  0.00  0.00    +0.000 S 
BRANCH   9  11
ATOM     11  O   UNL     1       4.081   4.367  19.473  0.00  0.00    +0.000 OA
BRANCH  11  15
ATOM     12  C   UNL     1       6.454   5.173  16.115  0.00  0.00    +0.000 A 
ATOM     13  C   UNL     1       7.029   4.954  17.370  0.00  0.00    +0.000 A 
ATOM     14  C   UNL     1       6.223   4.703  18.479  0.00  0.00    +0.000 A 
ATOM     15  C   UNL     1       4.842   4.669  18.319  0.00  0.00    +0.000 A 
ATOM     16  C   UNL     1       4.250   4.815  17.072  0.00  0.00    +0.000 A 
ATOM     17  C   UNL     1       5.061   5.100  15.973  0.00  0.00    +0.000 A 
BRANCH  12  21
ATOM     18  C   UNL     1       8.213   5.352  12.798  0.00  0.00    +0.000 C 
ATOM     19  C   UNL     1       7.185   4.819  13.759  0.00  0.00    +0.000 C 
ATOM     20  O   UNL     1       6.454   3.886  13.447  0.00  0.00    +0.000 OA
ATOM     21  N   UNL     1       7.200   5.493  14.965  0.00  0.00    +0.000 N 
ATOM     22  H   UNL     1       7.759   6.335  15.018  0.00  0.00    +0.000 HD
ENDBRANCH  12  21
ENDBRANCH  11  15
ENDBRANCH   9  11
ENDBRANCH   7   9
ENDBRANCH   1   7
BRANCH   4  23
ATOM     23  N   UNL     1       0.737  10.743  18.299  0.00  0.00    +0.000 N 
ATOM     24  H   UNL     1      -0.277  10.722  18.197  0.00  0.00    +0.000 HD
BRANCH  23  25
ATOM     25  C   UNL     1       1.150  12.049  18.648  0.00  0.00    +0.000 A 
ATOM     26  C   UNL     1       0.328  12.806  19.496  0.00  0.00    +0.000 A 
ATOM     27  C   UNL     1       0.716  14.086  19.903  0.00  0.00    +0.000 A 
ATOM     28  C   UNL     1       1.948  14.603  19.479  0.00  0.00    +0.000 A 
ATOM     29  C   UNL     1       2.791  13.847  18.657  0.00  0.00    +0.000 A 
ATOM     30  C   UNL     1       2.391  12.571  18.254  0.00  0.00    +0.000 A 
BRANCH  28  31
ATOM     31  N   UNL     1       2.366  15.941  19.911  0.00  0.00    +0.000 N 
ATOM     32  O   UNL     1       3.499  16.062  20.397  0.00  0.00    +0.000 OA
ATOM     33  O   UNL     1       1.561  16.873  19.765  0.00  0.00    +0.000 OA
ENDBRANCH  28  31
ENDBRANCH  23  25
ENDBRANCH   4  23
TORSDOF 8
ENDMDL
MODEL 8
REMARK VINA RESULT:      -7.9      3.125      4.135
REMARK  Name = 
REMARK  9 active torsions:
REMARK  status: ('A' for Active; 'I' for Inactive)
REMARK    1  A    between atoms: C_1  and  C_2
REMARK    2  A    between atoms: N_4  and  C_5
REMARK    3  A    between atoms: C_8  and  O_9
REMARK    4  A    between atoms: O_9  and  C_10
REMARK    5  A    between atoms: C_10  and  N_12
REMARK    6  A    between atoms: N_12  and  C_13
REMARK    7  A    between atoms: C_16  and  N_17
REMARK    8  A    between atoms: N_17  and  C_18
REMARK    9  A    between atoms: C_21  and  N_22
REMARK                            x       y       z     vdW  Elec       q    Type
REMARK                         _______ _______ _______ _____ _____    ______ ____
ROOT
ATOM      1  C   UNL     1       2.595   5.215  18.421  0.00  0.00    +0.000 A 
ATOM      2  C   UNL     1       2.029   4.804  19.631  0.00  0.00    +0.000 A 
ATOM      3  C   UNL     1       1.706   5.734  20.619  0.00  0.00    +0.000 A 
ATOM      4  C   UNL     1       1.979   7.089  20.434  0.00  0.00    +0.000 A 
ATOM      5  C   UNL     1       2.538   7.498  19.216  0.00  0.00    +0.000 A 
ATOM      6  C   UNL     1       2.865   6.569  18.226  0.00  0.00    +0.000 A 
ENDROOT
BRANCH   1   7
ATOM      7  N   UNL     1       2.943   4.321  17.395  0.00  0.00    +0.000 N 
ATOM      8  H   UNL     1       2.400   4.349  16.540  0.00  0.00    +0.000 HD
BRANCH   7   9
ATOM      9  C   UNL     1       3.882   3.322  17.440  0.00  0.00    +0.000 C 
ATOM     10  S   UNL     1       3.508   1.803  18.003  0.00  0.00    +0.000 S 
BRANCH   9  11
ATOM     11  O   UNL     1       5.161   3.705  17.028  0.00  0.00    +0.000 OA
BRANCH  11  15
ATOM     12  C   UNL     1       7.626   6.876  18.223  0.00  0.00    +0.000 A 
ATOM     13  C   UNL     1       7.059   6.843  16.945  0.00  0.00    +0.000 A 
ATOM     14  C   UNL     1       6.254   5.772  16.560  0.00  0.00    +0.000 A 
ATOM     15  C   UNL     1       6.020   4.741  17.463  0.00  0.00    +0.000 A 
ATOM     16  C   UNL     1       6.515   4.783  18.759  0.00  0.00    +0.000 A 
ATOM     17  C   UNL     1       7.348   5.841  19.126  0.00  0.00    +0.000 A 
BRANCH  12  21
ATOM     18  C   UNL     1       9.598  10.011  18.867  0.00  0.00    +0.000 C 
ATOM     19  C   UNL     1       8.419   9.235  18.345  0.00  0.00    +0.000 C 
ATOM     20  O   UNL     1       7.527   9.792  17.715  0.00  0.00    +0.000 OA
ATOM     21  N   UNL     1       8.498   7.891  18.658  0.00  0.00    +0.000 N 
ATOM     22  H   UNL     1       9.219   7.610  19.308  0.00  0.00    +0.000 HD
ENDBRANCH  12  21
ENDBRANCH  11  15
ENDBRANCH   9  11
ENDBRANCH   7   9
ENDBRANCH   1   7
BRANCH   4  23
ATOM     23  N   UNL     1       1.652   8.016  21.445  0.00  0.00    +0.000 N 
ATOM     24  H   UNL     1       2.484   8.363  21.921  0.00  0.00    +0.000 HD
BRANCH  23  25
ATOM     25  C   UNL     1       0.699   9.054  21.344  0.00  0.00    +0.000 A 
ATOM     26  C   UNL     1       0.227   9.646  22.525  0.00  0.00    +0.000 A 
ATOM     27  C   UNL     1      -0.685  10.704  22.473  0.00  0.00    +0.000 A 
ATOM     28  C   UNL     1      -1.108  11.192  21.230  0.00  0.00    +0.000 A 
ATOM     29  C   UNL     1      -0.622  10.631  20.043  0.00  0.00    +0.000 A 
ATOM     30  C   UNL     1       0.285   9.571  20.108  0.00  0.00    +0.000 A 
BRANCH  28  31
ATOM     31  N   UNL     1      -2.056  12.311  21.168  0.00  0.00    +0.000 N 
ATOM     32  O   UNL     1      -2.307  12.792  20.055  0.00  0.00    +0.000 OA
ATOM     33  O   UNL     1      -2.549  12.709  22.234  0.00  0.00    +0.000 OA
ENDBRANCH  28  31
ENDBRANCH  23  25
ENDBRANCH   4  23
TORSDOF 8
ENDMDL
MODEL 9
REMARK VINA RESULT:      -7.8      3.429     11.396
REMARK  Name = 
REMARK  9 active torsions:
REMARK  status: ('A' for Active; 'I' for Inactive)
REMARK    1  A    between atoms: C_1  and  C_2
REMARK    2  A    between atoms: N_4  and  C_5
REMARK    3  A    between atoms: C_8  and  O_9
REMARK    4  A    between atoms: O_9  and  C_10
REMARK    5  A    between atoms: C_10  and  N_12
REMARK    6  A    between atoms: N_12  and  C_13
REMARK    7  A    between atoms: C_16  and  N_17
REMARK    8  A    between atoms: N_17  and  C_18
REMARK    9  A    between atoms: C_21  and  N_22
REMARK                            x       y       z     vdW  Elec       q    Type
REMARK                         _______ _______ _______ _____ _____    ______ ____
ROOT
ATOM      1  C   UNL     1       1.011   9.330  19.382  0.00  0.00    +0.000 A 
ATOM      2  C   UNL     1       1.654   9.012  18.183  0.00  0.00    +0.000 A 
ATOM      3  C   UNL     1       2.456   7.874  18.085  0.00  0.00    +0.000 A 
ATOM      4  C   UNL     1       2.663   7.055  19.195  0.00  0.00    +0.000 A 
ATOM      5  C   UNL     1       2.008   7.373  20.392  0.00  0.00    +0.000 A 
ATOM      6  C   UNL     1       1.207   8.513  20.493  0.00  0.00    +0.000 A 
ENDROOT
BRANCH   1   7
ATOM      7  N   UNL     1       0.196  10.464  19.536  0.00  0.00    +0.000 N 
ATOM      8  H   UNL     1      -0.753  10.417  19.184  0.00  0.00    +0.000 HD
BRANCH   7   9
ATOM      9  C   UNL     1       0.559  11.693  20.025  0.00  0.00    +0.000 C 
ATOM     10  S   UNL     1       1.570  12.703  19.174  0.00  0.00    +0.000 S 
BRANCH   9  11
ATOM     11  O   UNL     1       0.056  11.988  21.295  0.00  0.00    +0.000 OA
BRANCH  11  15
ATOM     12  C   UNL     1      -3.677  13.289  22.685  0.00  0.00    +0.000 A 
ATOM     13  C   UNL     1      -2.566  13.245  23.532  0.00  0.00    +0.000 A 
ATOM     14  C   UNL     1      -1.336  12.795  23.056  0.00  0.00    +0.000 A 
ATOM     15  C   UNL     1      -1.228  12.394  21.729  0.00  0.00    +0.000 A 
ATOM     16  C   UNL     1      -2.298  12.492  20.851  0.00  0.00    +0.000 A 
ATOM     17  C   UNL     1      -3.535  12.912  21.342  0.00  0.00    +0.000 A 
BRANCH  12  21
ATOM     18  C   UNL     1      -7.160  13.595  24.066  0.00  0.00    +0.000 C 
ATOM     19  C   UNL     1      -5.807  12.949  23.933  0.00  0.00    +0.000 C 
ATOM     20  O   UNL     1      -5.551  11.899  24.509  0.00  0.00    +0.000 OA
ATOM     21  N   UNL     1      -4.962  13.672  23.111  0.00  0.00    +0.000 N 
ATOM     22  H   UNL     1      -5.269  14.593  22.828  0.00  0.00    +0.000 HD
ENDBRANCH  12  21
ENDBRANCH  11  15
ENDBRANCH   9  11
ENDBRANCH   7   9
ENDBRANCH   1   7
BRANCH   4  23
ATOM     23  N   UNL     1       3.482   5.913  19.081  0.00  0.00    +0.000 N 
ATOM     24  H   UNL     1       2.988   5.066  19.361  0.00  0.00    +0.000 HD
BRANCH  23  25
ATOM     25  C   UNL     1       4.352   5.618  18.007  0.00  0.00    +0.000 A 
ATOM     26  C   UNL     1       4.012   4.570  17.139  0.00  0.00    +0.000 A 
ATOM     27  C   UNL     1       4.820   4.270  16.038  0.00  0.00    +0.000 A 
ATOM     28  C   UNL     1       5.964   5.041  15.789  0.00  0.00    +0.000 A 
ATOM     29  C   UNL     1       6.299   6.108  16.631  0.00  0.00    +0.000 A 
ATOM     30  C   UNL     1       5.486   6.395  17.729  0.00  0.00    +0.000 A 
BRANCH  28  31
ATOM     31  N   UNL     1       6.810   4.739  14.630  0.00  0.00    +0.000 N 
ATOM     32  O   UNL     1       7.809   5.447  14.445  0.00  0.00    +0.000 OA
ATOM     33  O   UNL     1       6.476   3.791  13.902  0.00  0.00    +0.000 OA
ENDBRANCH  28  31
ENDBRANCH  23  25
ENDBRANCH   4  23
TORSDOF 8
ENDMDL
