MODEL 1
REMARK VINA RESULT:      -6.6      0.000      0.000
REMARK  Name = 
REMARK  9 active torsions:
REMARK  status: ('A' for Active; 'I' for Inactive)
REMARK    1  A    between atoms: C_2  and  C_3
REMARK    2  A    between atoms: C_3  and  N_4
REMARK    3  A    between atoms: N_4  and  C_5
REMARK    4  A    between atoms: N_4  and  C_6
REMARK    5  A    between atoms: C_6  and  C_7
REMARK    6  A    between atoms: C_7  and  C_8
REMARK    7  A    between atoms: N_11  and  C_12
REMARK    8  A    between atoms: C_18  and  C_19
REMARK    9  A    between atoms: C_19  and  C_20
REMARK                            x       y       z     vdW  Elec       q    Type
REMARK                         _______ _______ _______ _____ _____    ______ ____
ROOT
ATOM      1  C   UNL     1       5.672   5.646  18.308  0.00  0.00    +0.000 A 
ATOM      2  N   UNL     1       6.258   4.546  18.869  0.00  0.00    +0.000 NA
ATOM      3  N   UNL     1       5.309   3.773  19.362  0.00  0.00    +0.000 NA
ATOM      4  N   UNL     1       4.107   4.376  19.184  0.00  0.00    +0.000 N 
ATOM      5  C   UNL     1       4.295   5.597  18.519  0.00  0.00    +0.000 A 
ENDROOT
BRANCH   4   6
ATOM      6  C   UNL     1       2.903   3.708  19.571  0.00  0.00    +0.000 A 
ATOM      7  C   UNL     1       2.459   3.662  20.899  0.00  0.00    +0.000 A 
ATOM      8  C   UNL     1       1.219   3.117  21.227  0.00  0.00    +0.000 A 
ATOM      9  C   UNL     1       0.415   2.583  20.237  0.00  0.00    +0.000 A 
ATOM     10  C   UNL     1       0.866   2.564  18.912  0.00  0.00    +0.000 A 
ATOM     11  C   UNL     1       2.108   3.110  18.580  0.00  0.00    +0.000 A 
ENDBRANCH   4   6
BRANCH   5  12
ATOM     12  C   UNL     1       3.155   6.485  18.128  0.00  0.00    +0.000 C 
ATOM     13  C   UNL     1       2.466   7.285  19.212  0.00  0.00    +0.000 C 
ENDBRANCH   5  12
BRANCH   1  14
ATOM     14  C   UNL     1       6.526   6.654  17.620  0.00  0.00    +0.000 C 
BRANCH  14  15
ATOM     15  C   UNL     1       7.442   6.074  16.523  0.00  0.00    +0.000 C 
BRANCH  15  16
ATOM     16  N   UNL     1       6.718   5.718  15.274  0.00  0.00    +0.000 NA
ATOM     17  C   UNL     1       5.387   6.337  15.223  0.00  0.00    +0.000 C 
BRANCH  16  18
ATOM     18  C   UNL     1       6.624   4.247  15.149  0.00  0.00    +0.000 C 
BRANCH  18  20
ATOM     19  C   UNL     1       5.883   3.507  12.526  0.00  0.00    +0.000 C 
ATOM     20  C   UNL     1       6.225   3.849  13.737  0.00  0.00    +0.000 C 
ENDBRANCH  18  20
ENDBRANCH  16  18
ENDBRANCH  15  16
ENDBRANCH  14  15
ENDBRANCH   1  14
TORSDOF 7
ENDMDL
MODEL 2
REMARK VINA RESULT:      -6.6      0.984      1.149
REMARK  Name = 
REMARK  9 active torsions:
REMARK  status: ('A' for Active; 'I' for Inactive)
REMARK    1  A    between atoms: C_2  and  C_3
REMARK    2  A    between atoms: C_3  and  N_4
REMARK    3  A    between atoms: N_4  and  C_5
REMARK    4  A    between atoms: N_4  and  C_6
REMARK    5  A    between atoms: C_6  and  C_7
REMARK    6  A    between atoms: C_7  and  C_8
REMARK    7  A    between atoms: N_11  and  C_12
REMARK    8  A    between atoms: C_18  and  C_19
REMARK    9  A    between atoms: C_19  and  C_20
REMARK                            x       y       z     vdW  Elec       q    Type
REMARK                         _______ _______ _______ _____ _____    ______ ____
ROOT
ATOM      1  C   UNL     1       6.215   5.503  17.866  0.00  0.00    +0.000 A 
ATOM      2  N   UNL     1       6.762   4.615  18.748  0.00  0.00    +0.000 NA
ATOM      3  N   UNL     1       5.783   4.016  19.400  0.00  0.00    +0.000 NA
ATOM      4  N   UNL     1       4.598   4.540  19.000  0.00  0.00    +0.000 N 
ATOM      5  C   UNL     1       4.829   5.516  18.019  0.00  0.00    +0.000 A 
ENDROOT
BRANCH   4   6
ATOM      6  C   UNL     1       3.370   4.013  19.509  0.00  0.00    +0.000 A 
ATOM      7  C   UNL     1       2.520   4.749  20.347  0.00  0.00    +0.000 A 
ATOM      8  C   UNL     1       1.272   4.258  20.721  0.00  0.00    +0.000 A 
ATOM      9  C   UNL     1       0.863   3.010  20.289  0.00  0.00    +0.000 A 
ATOM     10  C   UNL     1       1.720   2.232  19.501  0.00  0.00    +0.000 A 
ATOM     11  C   UNL     1       2.972   2.722  19.124  0.00  0.00    +0.000 A 
ENDBRANCH   4   6
BRANCH   5  12
ATOM     12  C   UNL     1       3.718   6.251  17.336  0.00  0.00    +0.000 C 
ATOM     13  C   UNL     1       3.291   7.589  17.901  0.00  0.00    +0.000 C 
ENDBRANCH   5  12
BRANCH   1  14
ATOM     14  C   UNL     1       7.111   6.269  16.954  0.00  0.00    +0.000 C 
BRANCH  14  15
ATOM     15  C   UNL     1       6.738   6.172  15.461  0.00  0.00    +0.000 C 
BRANCH  15  16
ATOM     16  N   UNL     1       7.342   4.998  14.776  0.00  0.00    +0.000 NA
ATOM     17  C   UNL     1       7.823   5.342  13.432  0.00  0.00    +0.000 C 
BRANCH  16  18
ATOM     18  C   UNL     1       6.364   3.890  14.721  0.00  0.00    +0.000 C 
BRANCH  18  20
ATOM     19  C   UNL     1       5.622   3.333  12.054  0.00  0.00    +0.000 C 
ATOM     20  C   UNL     1       5.964   3.591  13.286  0.00  0.00    +0.000 C 
ENDBRANCH  18  20
ENDBRANCH  16  18
ENDBRANCH  15  16
ENDBRANCH  14  15
ENDBRANCH   1  14
TORSDOF 7
ENDMDL
MODEL 3
REMARK VINA RESULT:      -6.5      1.726      3.138
REMARK  Name = 
REMARK  9 active torsions:
REMARK  status: ('A' for Active; 'I' for Inactive)
REMARK    1  A    between atoms: C_2  and  C_3
REMARK    2  A    between atoms: C_3  and  N_4
REMARK    3  A    between atoms: N_4  and  C_5
REMARK    4  A    between atoms: N_4  and  C_6
REMARK    5  A    between atoms: C_6  and  C_7
REMARK    6  A    between atoms: C_7  and  C_8
REMARK    7  A    between atoms: N_11  and  C_12
REMARK    8  A    between atoms: C_18  and  C_19
REMARK    9  A    between atoms: C_19  and  C_20
REMARK                            x       y       z     vdW  Elec       q    Type
REMARK                         _______ _______ _______ _____ _____    ______ ____
ROOT
ATOM      1  C   UNL     1       4.229   6.196  17.109  0.00  0.00    +0.000 A 
ATOM      2  N   UNL     1       3.625   7.184  17.834  0.00  0.00    +0.000 NA
ATOM      3  N   UNL     1       2.925   6.623  18.803  0.00  0.00    +0.000 NA
ATOM      4  N   UNL     1       3.013   5.275  18.691  0.00  0.00    +0.000 N 
ATOM      5  C   UNL     1       3.834   4.952  17.600  0.00  0.00    +0.000 A 
ENDROOT
BRANCH   4   6
ATOM      6  C   UNL     1       2.397   4.430  19.667  0.00  0.00    +0.000 A 
ATOM      7  C   UNL     1       1.059   4.021  19.574  0.00  0.00    +0.000 A 
ATOM      8  C   UNL     1       0.524   3.096  20.468  0.00  0.00    +0.000 A 
ATOM      9  C   UNL     1       1.308   2.587  21.487  0.00  0.00    +0.000 A 
ATOM     10  C   UNL     1       2.628   3.028  21.634  0.00  0.00    +0.000 A 
ATOM     11  C   UNL     1       3.168   3.954  20.740  0.00  0.00    +0.000 A 
ENDBRANCH   4   6
BRANCH   5  12
ATOM     12  C   UNL     1       4.173   3.540  17.237  0.00  0.00    +0.000 C 
ATOM     13  C   UNL     1       3.041   2.544  17.101  0.00  0.00    +0.000 C 
ENDBRANCH   5  12
BRANCH   1  14
ATOM     14  C   UNL     1       5.135   6.568  15.987  0.00  0.00    +0.000 C 
BRANCH  14  15
ATOM     15  C   UNL     1       6.627   6.650  16.370  0.00  0.00    +0.000 C 
BRANCH  15  16
ATOM     16  N   UNL     1       7.424   5.487  15.897  0.00  0.00    +0.000 NA
ATOM     17  C   UNL     1       6.841   4.883  14.692  0.00  0.00    +0.000 C 
BRANCH  16  18
ATOM     18  C   UNL     1       7.552   4.490  16.982  0.00  0.00    +0.000 C 
BRANCH  18  20
ATOM     19  C   UNL     1       7.708   5.760  19.500  0.00  0.00    +0.000 C 
ATOM     20  C   UNL     1       7.636   5.173  18.338  0.00  0.00    +0.000 C 
ENDBRANCH  18  20
ENDBRANCH  16  18
ENDBRANCH  15  16
ENDBRANCH  14  15
ENDBRANCH   1  14
TORSDOF 7
ENDMDL
MODEL 4
REMARK VINA RESULT:      -6.5      0.961      1.475
REMARK  Name = 
REMARK  9 active torsions:
REMARK  status: ('A' for Active; 'I' for Inactive)
REMARK    1  A    between atoms: C_2  and  C_3
REMARK    2  A    between atoms: C_3  and  N_4
REMARK    3  A    between atoms: N_4  and  C_5
REMARK    4  A    between atoms: N_4  and  C_6
REMARK    5  A    between atoms: C_6  and  C_7
REMARK    6  A    between atoms: C_7  and  C_8
REMARK    7  A    between atoms: N_11  and  C_12
REMARK    8  A    between atoms: C_18  and  C_19
REMARK    9  A    between atoms: C_19  and  C_20
REMARK                            x       y       z     vdW  Elec       q    Type
REMARK                         _______ _______ _______ _____ _____    ______ ____
ROOT
ATOM      1  C   UNL     1       6.130   5.307  17.791  0.00  0.00    +0.000 A 
ATOM      2  N   UNL     1       6.668   4.414  18.674  0.00  0.00    +0.000 NA
ATOM      3  N   UNL     1       5.685   3.864  19.363  0.00  0.00    +0.000 NA
ATOM      4  N   UNL     1       4.510   4.425  18.985  0.00  0.00    +0.000 N 
ATOM      5  C   UNL     1       4.750   5.375  17.981  0.00  0.00    +0.000 A 
ENDROOT
BRANCH   4   6
ATOM      6  C   UNL     1       3.278   3.953  19.536  0.00  0.00    +0.000 A 
ATOM      7  C   UNL     1       2.583   2.858  19.002  0.00  0.00    +0.000 A 
ATOM      8  C   UNL     1       1.455   2.341  19.636  0.00  0.00    +0.000 A 
ATOM      9  C   UNL     1       0.986   2.926  20.798  0.00  0.00    +0.000 A 
ATOM     10  C   UNL     1       1.629   4.057  21.315  0.00  0.00    +0.000 A 
ATOM     11  C   UNL     1       2.760   4.578  20.682  0.00  0.00    +0.000 A 
ENDBRANCH   4   6
BRANCH   5  12
ATOM     12  C   UNL     1       3.649   6.139  17.315  0.00  0.00    +0.000 C 
ATOM     13  C   UNL     1       3.108   7.370  18.010  0.00  0.00    +0.000 C 
ENDBRANCH   5  12
BRANCH   1  14
ATOM     14  C   UNL     1       7.028   6.024  16.842  0.00  0.00    +0.000 C 
BRANCH  14  15
ATOM     15  C   UNL     1       7.504   5.174  15.647  0.00  0.00    +0.000 C 
BRANCH  15  16
ATOM     16  N   UNL     1       6.582   5.224  14.481  0.00  0.00    +0.000 NA
ATOM     17  C   UNL     1       5.403   4.371  14.684  0.00  0.00    +0.000 C 
BRANCH  16  18
ATOM     18  C   UNL     1       7.307   4.843  13.250  0.00  0.00    +0.000 C 
BRANCH  18  20
ATOM     19  C   UNL     1       5.909   2.834  11.841  0.00  0.00    +0.000 C 
ATOM     20  C   UNL     1       6.554   3.762  12.491  0.00  0.00    +0.000 C 
ENDBRANCH  18  20
ENDBRANCH  16  18
ENDBRANCH  15  16
ENDBRANCH  14  15
ENDBRANCH   1  14
TORSDOF 7
ENDMDL
MODEL 5
REMARK VINA RESULT:      -6.3      1.646      5.948
REMARK  Name = 
REMARK  9 active torsions:
REMARK  status: ('A' for Active; 'I' for Inactive)
REMARK    1  A    between atoms: C_2  and  C_3
REMARK    2  A    between atoms: C_3  and  N_4
REMARK    3  A    between atoms: N_4  and  C_5
REMARK    4  A    between atoms: N_4  and  C_6
REMARK    5  A    between atoms: C_6  and  C_7
REMARK    6  A    between atoms: C_7  and  C_8
REMARK    7  A    between atoms: N_11  and  C_12
REMARK    8  A    between atoms: C_18  and  C_19
REMARK    9  A    between atoms: C_19  and  C_20
REMARK                            x       y       z     vdW  Elec       q    Type
REMARK                         _______ _______ _______ _____ _____    ______ ____
ROOT
ATOM      1  C   UNL     1       4.418   2.872  18.286  0.00  0.00    +0.000 A 
ATOM      2  N   UNL     1       4.866   2.970  19.573  0.00  0.00    +0.000 NA
ATOM      3  N   UNL     1       5.640   4.036  19.666  0.00  0.00    +0.000 NA
ATOM      4  N   UNL     1       5.753   4.610  18.443  0.00  0.00    +0.000 N 
ATOM      5  C   UNL     1       4.991   3.883  17.516  0.00  0.00    +0.000 A 
ENDROOT
BRANCH   4   6
ATOM      6  C   UNL     1       6.485   5.828  18.286  0.00  0.00    +0.000 A 
ATOM      7  C   UNL     1       7.675   6.089  18.979  0.00  0.00    +0.000 A 
ATOM      8  C   UNL     1       8.434   7.226  18.710  0.00  0.00    +0.000 A 
ATOM      9  C   UNL     1       8.002   8.136  17.763  0.00  0.00    +0.000 A 
ATOM     10  C   UNL     1       6.786   7.926  17.102  0.00  0.00    +0.000 A 
ATOM     11  C   UNL     1       6.023   6.787  17.369  0.00  0.00    +0.000 A 
ENDBRANCH   4   6
BRANCH   5  12
ATOM     12  C   UNL     1       4.866   4.289  16.081  0.00  0.00    +0.000 C 
ATOM     13  C   UNL     1       5.947   3.852  15.116  0.00  0.00    +0.000 C 
ENDBRANCH   5  12
BRANCH   1  14
ATOM     14  C   UNL     1       3.468   1.781  17.928  0.00  0.00    +0.000 C 
BRANCH  14  15
ATOM     15  C   UNL     1       2.019   2.014  18.401  0.00  0.00    +0.000 C 
BRANCH  15  16
ATOM     16  N   UNL     1       1.792   3.370  18.968  0.00  0.00    +0.000 NA
ATOM     17  C   UNL     1       0.814   3.344  20.063  0.00  0.00    +0.000 C 
BRANCH  16  18
ATOM     18  C   UNL     1       1.366   4.297  17.898  0.00  0.00    +0.000 C 
BRANCH  18  20
ATOM     19  C   UNL     1       2.531   6.845  18.254  0.00  0.00    +0.000 C 
ATOM     20  C   UNL     1       1.992   5.669  18.089  0.00  0.00    +0.000 C 
ENDBRANCH  18  20
ENDBRANCH  16  18
ENDBRANCH  15  16
ENDBRANCH  14  15
ENDBRANCH   1  14
TORSDOF 7
ENDMDL
MODEL 6
REMARK VINA RESULT:      -6.3      3.062      4.758
REMARK  Name = 
REMARK  9 active torsions:
REMARK  status: ('A' for Active; 'I' for Inactive)
REMARK    1  A    between atoms: C_2  and  C_3
REMARK    2  A    between atoms: C_3  and  N_4
REMARK    3  A    between atoms: N_4  and  C_5
REMARK    4  A    between atoms: N_4  and  C_6
REMARK    5  A    between atoms: C_6  and  C_7
REMARK    6  A    between atoms: C_7  and  C_8
REMARK    7  A    between atoms: N_11  and  C_12
REMARK    8  A    between atoms: C_18  and  C_19
REMARK    9  A    between atoms: C_19  and  C_20
REMARK                            x       y       z     vdW  Elec       q    Type
REMARK                         _______ _______ _______ _____ _____    ______ ____
ROOT
ATOM      1  C   UNL     1       6.978   6.321  18.475  0.00  0.00    +0.000 A 
ATOM      2  N   UNL     1       7.049   5.560  19.608  0.00  0.00    +0.000 NA
ATOM      3  N   UNL     1       5.985   4.780  19.655  0.00  0.00    +0.000 NA
ATOM      4  N   UNL     1       5.183   5.059  18.597  0.00  0.00    +0.000 N 
ATOM      5  C   UNL     1       5.778   6.060  17.815  0.00  0.00    +0.000 A 
ENDROOT
BRANCH   4   6
ATOM      6  C   UNL     1       3.992   4.299  18.379  0.00  0.00    +0.000 A 
ATOM      7  C   UNL     1       4.014   2.971  17.930  0.00  0.00    +0.000 A 
ATOM      8  C   UNL     1       2.846   2.216  17.850  0.00  0.00    +0.000 A 
ATOM      9  C   UNL     1       1.632   2.784  18.189  0.00  0.00    +0.000 A 
ATOM     10  C   UNL     1       1.579   4.127  18.582  0.00  0.00    +0.000 A 
ATOM     11  C   UNL     1       2.748   4.886  18.663  0.00  0.00    +0.000 A 
ENDBRANCH   4   6
BRANCH   5  12
ATOM     12  C   UNL     1       5.166   6.559  16.544  0.00  0.00    +0.000 C 
ATOM     13  C   UNL     1       5.394   5.762  15.277  0.00  0.00    +0.000 C 
ENDBRANCH   5  12
BRANCH   1  14
ATOM     14  C   UNL     1       8.098   7.248  18.150  0.00  0.00    +0.000 C 
BRANCH  14  15
ATOM     15  C   UNL     1       7.656   8.668  17.746  0.00  0.00    +0.000 C 
BRANCH  15  16
ATOM     16  N   UNL     1       8.676   9.711  18.034  0.00  0.00    +0.000 NA
ATOM     17  C   UNL     1       9.111   9.673  19.436  0.00  0.00    +0.000 C 
BRANCH  16  18
ATOM     18  C   UNL     1       8.146  11.045  17.679  0.00  0.00    +0.000 C 
BRANCH  18  20
ATOM     19  C   UNL     1      10.165  13.011  17.865  0.00  0.00    +0.000 C 
ATOM     20  C   UNL     1       9.233  12.103  17.779  0.00  0.00    +0.000 C 
ENDBRANCH  18  20
ENDBRANCH  16  18
ENDBRANCH  15  16
ENDBRANCH  14  15
ENDBRANCH   1  14
TORSDOF 7
ENDMDL
MODEL 7
REMARK VINA RESULT:      -6.3      1.704      2.588
REMARK  Name = 
REMARK  9 active torsions:
REMARK  status: ('A' for Active; 'I' for Inactive)
REMARK    1  A    between atoms: C_2  and  C_3
REMARK    2  A    between atoms: C_3  and  N_4
REMARK    3  A    between atoms: N_4  and  C_5
REMARK    4  A    between atoms: N_4  and  C_6
REMARK    5  A    between atoms: C_6  and  C_7
REMARK    6  A    between atoms: C_7  and  C_8
REMARK    7  A    between atoms: N_11  and  C_12
REMARK    8  A    between atoms: C_18  and  C_19
REMARK    9  A    between atoms: C_19  and  C_20
REMARK                            x       y       z     vdW  Elec       q    Type
REMARK                         _______ _______ _______ _____ _____    ______ ____
ROOT
ATOM      1  C   UNL     1       5.689   4.291  16.858  0.00  0.00    +0.000 A 
ATOM      2  N   UNL     1       4.844   3.356  16.330  0.00  0.00    +0.000 NA
ATOM      3  N   UNL     1       3.937   3.050  17.239  0.00  0.00    +0.000 NA
ATOM      4  N   UNL     1       4.208   3.730  18.381  0.00  0.00    +0.000 N 
ATOM      5  C   UNL     1       5.341   4.534  18.187  0.00  0.00    +0.000 A 
ENDROOT
BRANCH   4   6
ATOM      6  C   UNL     1       3.329   3.627  19.505  0.00  0.00    +0.000 A 
ATOM      7  C   UNL     1       2.188   4.429  19.647  0.00  0.00    +0.000 A 
ATOM      8  C   UNL     1       1.282   4.218  20.684  0.00  0.00    +0.000 A 
ATOM      9  C   UNL     1       1.515   3.220  21.613  0.00  0.00    +0.000 A 
ATOM     10  C   UNL     1       2.678   2.447  21.524  0.00  0.00    +0.000 A 
ATOM     11  C   UNL     1       3.588   2.656  20.486  0.00  0.00    +0.000 A 
ENDBRANCH   4   6
BRANCH   5  12
ATOM     12  C   UNL     1       5.872   5.448  19.246  0.00  0.00    +0.000 C 
ATOM     13  C   UNL     1       7.372   5.566  19.404  0.00  0.00    +0.000 C 
ENDBRANCH   5  12
BRANCH   1  14
ATOM     14  C   UNL     1       6.773   4.856  16.007  0.00  0.00    +0.000 C 
BRANCH  14  15
ATOM     15  C   UNL     1       6.339   5.206  14.569  0.00  0.00    +0.000 C 
BRANCH  15  16
ATOM     16  N   UNL     1       6.952   4.329  13.536  0.00  0.00    +0.000 NA
ATOM     17  C   UNL     1       7.843   5.082  12.643  0.00  0.00    +0.000 C 
BRANCH  16  18
ATOM     18  C   UNL     1       5.893   3.639  12.769  0.00  0.00    +0.000 C 
BRANCH  18  20
ATOM     19  C   UNL     1       7.001   1.693  11.049  0.00  0.00    +0.000 C 
ATOM     20  C   UNL     1       6.489   2.591  11.844  0.00  0.00    +0.000 C 
ENDBRANCH  18  20
ENDBRANCH  16  18
ENDBRANCH  15  16
ENDBRANCH  14  15
ENDBRANCH   1  14
TORSDOF 7
ENDMDL
MODEL 8
REMARK VINA RESULT:      -6.3      1.699      6.294
REMARK  Name = 
REMARK  9 active torsions:
REMARK  status: ('A' for Active; 'I' for Inactive)
REMARK    1  A    between atoms: C_2  and  C_3
REMARK    2  A    between atoms: C_3  and  N_4
REMARK    3  A    between atoms: N_4  and  C_5
REMARK    4  A    between atoms: N_4  and  C_6
REMARK    5  A    between atoms: C_6  and  C_7
REMARK    6  A    between atoms: C_7  and  C_8
REMARK    7  A    between atoms: N_11  and  C_12
REMARK    8  A    between atoms: C_18  and  C_19
REMARK    9  A    between atoms: C_19  and  C_20
REMARK                            x       y       z     vdW  Elec       q    Type
REMARK                         _______ _______ _______ _____ _____    ______ ____
ROOT
ATOM      1  C   UNL     1       4.077   2.878  18.696  0.00  0.00    +0.000 A 
ATOM      2  N   UNL     1       4.768   2.947  19.872  0.00  0.00    +0.000 NA
ATOM      3  N   UNL     1       5.631   3.943  19.793  0.00  0.00    +0.000 NA
ATOM      4  N   UNL     1       5.558   4.496  18.557  0.00  0.00    +0.000 N 
ATOM      5  C   UNL     1       4.577   3.830  17.807  0.00  0.00    +0.000 A 
ENDROOT
BRANCH   4   6
ATOM      6  C   UNL     1       6.347   5.644  18.235  0.00  0.00    +0.000 A 
ATOM      7  C   UNL     1       5.937   6.605  17.301  0.00  0.00    +0.000 A 
ATOM      8  C   UNL     1       6.664   7.777  17.104  0.00  0.00    +0.000 A 
ATOM      9  C   UNL     1       7.829   7.996  17.816  0.00  0.00    +0.000 A 
ATOM     10  C   UNL     1       8.289   7.022  18.710  0.00  0.00    +0.000 A 
ATOM     11  C   UNL     1       7.562   5.846  18.910  0.00  0.00    +0.000 A 
ENDBRANCH   4   6
BRANCH   5  12
ATOM     12  C   UNL     1       4.217   4.234  16.412  0.00  0.00    +0.000 C 
ATOM     13  C   UNL     1       5.187   3.904  15.298  0.00  0.00    +0.000 C 
ENDBRANCH   5  12
BRANCH   1  14
ATOM     14  C   UNL     1       2.989   1.871  18.549  0.00  0.00    +0.000 C 
BRANCH  14  15
ATOM     15  C   UNL     1       1.653   2.272  19.206  0.00  0.00    +0.000 C 
BRANCH  15  16
ATOM     16  N   UNL     1       1.818   3.165  20.384  0.00  0.00    +0.000 NA
ATOM     17  C   UNL     1       1.441   2.491  21.633  0.00  0.00    +0.000 C 
BRANCH  16  18
ATOM     18  C   UNL     1       1.032   4.403  20.191  0.00  0.00    +0.000 C 
BRANCH  18  20
ATOM     19  C   UNL     1       2.722   6.581  19.581  0.00  0.00    +0.000 C 
ATOM     20  C   UNL     1       1.942   5.576  19.862  0.00  0.00    +0.000 C 
ENDBRANCH  18  20
ENDBRANCH  16  18
ENDBRANCH  15  16
ENDBRANCH  14  15
ENDBRANCH   1  14
TORSDOF 7
ENDMDL
MODEL 9
REMARK VINA RESULT:      -6.3      1.521      1.956
REMARK  Name = 
REMARK  9 active torsions:
REMARK  status: ('A' for Active; 'I' for Inactive)
REMARK    1  A    between atoms: C_2  and  C_3
REMARK    2  A    between atoms: C_3  and  N_4
REMARK    3  A    between atoms: N_4  and  C_5
REMARK    4  A    between atoms: N_4  and  C_6
REMARK    5  A    between atoms: C_6  and  C_7
REMARK    6  A    between atoms: C_7  and  C_8
REMARK    7  A    between atoms: N_11  and  C_12
REMARK    8  A    between atoms: C_18  and  C_19
REMARK    9  A    between atoms: C_19  and  C_20
REMARK                            x       y       z     vdW  Elec       q    Type
REMARK                         _______ _______ _______ _____ _____    ______ ____
ROOT
ATOM      1  C   UNL     1       4.867   4.575  16.500  0.00  0.00    +0.000 A 
ATOM      2  N   UNL     1       4.817   3.224  16.308  0.00  0.00    +0.000 NA
ATOM      3  N   UNL     1       4.109   2.689  17.285  0.00  0.00    +0.000 NA
ATOM      4  N   UNL     1       3.740   3.664  18.151  0.00  0.00    +0.000 N 
ATOM      5  C   UNL     1       4.221   4.900  17.692  0.00  0.00    +0.000 A 
ENDROOT
BRANCH   4   6
ATOM      6  C   UNL     1       2.901   3.355  19.268  0.00  0.00    +0.000 A 
ATOM      7  C   UNL     1       3.405   2.849  20.474  0.00  0.00    +0.000 A 
ATOM      8  C   UNL     1       2.583   2.680  21.585  0.00  0.00    +0.000 A 
ATOM      9  C   UNL     1       1.236   2.985  21.502  0.00  0.00    +0.000 A 
ATOM     10  C   UNL     1       0.700   3.435  20.289  0.00  0.00    +0.000 A 
ATOM     11  C   UNL     1       1.522   3.606  19.173  0.00  0.00    +0.000 A 
ENDBRANCH   4   6
BRANCH   5  12
ATOM     12  C   UNL     1       3.940   6.187  18.401  0.00  0.00    +0.000 C 
ATOM     13  C   UNL     1       2.665   6.929  18.062  0.00  0.00    +0.000 C 
ENDBRANCH   5  12
BRANCH   1  14
ATOM     14  C   UNL     1       5.559   5.428  15.493  0.00  0.00    +0.000 C 
BRANCH  14  15
ATOM     15  C   UNL     1       6.979   4.955  15.123  0.00  0.00    +0.000 C 
BRANCH  15  16
ATOM     16  N   UNL     1       7.083   4.420  13.739  0.00  0.00    +0.000 NA
ATOM     17  C   UNL     1       7.880   5.300  12.874  0.00  0.00    +0.000 C 
BRANCH  16  18
ATOM     18  C   UNL     1       5.731   4.208  13.180  0.00  0.00    +0.000 C 
BRANCH  18  20
ATOM     19  C   UNL     1       5.716   2.030  11.382  0.00  0.00    +0.000 C 
ATOM     20  C   UNL     1       5.723   3.035  12.213  0.00  0.00    +0.000 C 
ENDBRANCH  18  20
ENDBRANCH  16  18
ENDBRANCH  15  16
ENDBRANCH  14  15
ENDBRANCH   1  14
TORSDOF 7
ENDMDL
