MODEL 1
REMARK VINA RESULT:      -7.5      0.000      0.000
REMARK  Name = 
REMARK  9 active torsions:
REMARK  status: ('A' for Active; 'I' for Inactive)
REMARK    1  A    between atoms: C_1  and  C_2
REMARK    2  A    between atoms: N_4  and  C_5
REMARK    3  A    between atoms: C_6  and  N_7
REMARK    4  A    between atoms: C_9  and  C_10
REMARK    5  A    between atoms: C_10  and  O_12
REMARK    6  A    between atoms: C_14  and  N_15
REMARK    7  A    between atoms: C_16  and  C_18
REMARK    8  A    between atoms: C_18  and  C_19
REMARK    9  A    between atoms: C_18  and  C_20
REMARK                            x       y       z     vdW  Elec       q    Type
REMARK                         _______ _______ _______ _____ _____    ______ ____
ROOT
ATOM      1  C   UNL     1       7.035   4.842  15.137  0.00  0.00    +0.000 C 
ATOM      2  C   UNL     1       7.373   5.326  13.689  0.00  0.00    +0.000 C 
ATOM      3  C   UNL     1       7.180   4.161  12.699  0.00  0.00    +0.000 C 
ATOM      4  C   UNL     1       5.864   3.460  12.868  0.00  0.00    +0.000 C 
ATOM      5  C   UNL     1       5.110   3.608  13.975  0.00  0.00    +0.000 C 
ATOM      6  C   UNL     1       5.524   4.430  15.167  0.00  0.00    +0.000 C 
ENDROOT
BRANCH   1  10
ATOM      7  C   UNL     1       7.805   6.692  18.378  0.00  0.00    +0.000 C 
ATOM      8  C   UNL     1       7.616   5.511  17.465  0.00  0.00    +0.000 C 
ATOM      9  O   UNL     1       7.732   4.353  17.853  0.00  0.00    +0.000 OA
ATOM     10  N   UNL     1       7.355   5.852  16.157  0.00  0.00    +0.000 N 
ATOM     11  H   UNL     1       6.983   6.791  15.996  0.00  0.00    +0.000 HD
ENDBRANCH   1  10
BRANCH   6  12
ATOM     12  N   UNL     1       5.153   3.671  16.358  0.00  0.00    +0.000 N 
ATOM     13  C   UNL     1       4.265   4.172  17.286  0.00  0.00    +0.000 C 
ATOM     14  O   UNL     1       3.825   5.318  17.210  0.00  0.00    +0.000 OA
ATOM     15  H   UNL     1       5.459   2.710  16.444  0.00  0.00    +0.000 HD
BRANCH  13  16
ATOM     16  C   UNL     1       3.866   3.189  18.386  0.00  0.00    +0.000 C 
ATOM     17  C   UNL     1       3.217   3.908  19.566  0.00  0.00    +0.000 C 
ATOM     18  C   UNL     1       2.919   2.123  17.836  0.00  0.00    +0.000 C 
ENDBRANCH  13  16
ENDBRANCH   6  12
BRANCH   2  19
ATOM     19  N   UNL     1       8.727   5.869  13.490  0.00  0.00    +0.000 NA
ATOM     20  H   UNL     1       9.093   6.183  14.398  0.00  0.00    +0.000 HD
ATOM     21  H   UNL     1       8.638   6.757  12.990  0.00  0.00    +0.000 HD
ENDBRANCH   2  19
BRANCH   4  22
ATOM     22  C   UNL     1       5.292   2.658  11.756  0.00  0.00    +0.000 C 
ATOM     23  O   UNL     1       4.267   2.963  11.167  0.00  0.00    +0.000 OA
BRANCH  22  24
ATOM     24  O   UNL     1       5.988   1.542  11.464  0.00  0.00    +0.000 OA
ATOM     25  H   UNL     1       5.564   0.908  10.860  0.00  0.00    +0.000 HD
ENDBRANCH  22  24
ENDBRANCH   4  22
TORSDOF 6
ENDMDL
MODEL 2
REMARK VINA RESULT:      -6.7      3.618      5.855
REMARK  Name = 
REMARK  9 active torsions:
REMARK  status: ('A' for Active; 'I' for Inactive)
REMARK    1  A    between atoms: C_1  and  C_2
REMARK    2  A    between atoms: N_4  and  C_5
REMARK    3  A    between atoms: C_6  and  N_7
REMARK    4  A    between atoms: C_9  and  C_10
REMARK    5  A    between atoms: C_10  and  O_12
REMARK    6  A    between atoms: C_14  and  N_15
REMARK    7  A    between atoms: C_16  and  C_18
REMARK    8  A    between atoms: C_18  and  C_19
REMARK    9  A    between atoms: C_18  and  C_20
REMARK                            x       y       z     vdW  Elec       q    Type
REMARK                         _______ _______ _______ _____ _____    ______ ____
ROOT
ATOM      1  C   UNL     1       3.441   4.718  18.145  0.00  0.00    +0.000 C 
ATOM      2  C   UNL     1       4.661   3.741  18.111  0.00  0.00    +0.000 C 
ATOM      3  C   UNL     1       5.540   4.058  16.885  0.00  0.00    +0.000 C 
ATOM      4  C   UNL     1       5.862   5.518  16.757  0.00  0.00    +0.000 C 
ATOM      5  C   UNL     1       5.176   6.465  17.426  0.00  0.00    +0.000 C 
ATOM      6  C   UNL     1       3.994   6.175  18.313  0.00  0.00    +0.000 C 
ENDROOT
BRANCH   1  10
ATOM      7  C   UNL     1       0.456   3.402  20.114  0.00  0.00    +0.000 C 
ATOM      8  C   UNL     1       1.397   3.543  18.949  0.00  0.00    +0.000 C 
ATOM      9  O   UNL     1       1.237   2.934  17.896  0.00  0.00    +0.000 OA
ATOM     10  N   UNL     1       2.470   4.370  19.193  0.00  0.00    +0.000 N 
ATOM     11  H   UNL     1       2.359   5.048  19.951  0.00  0.00    +0.000 HD
ENDBRANCH   1  10
BRANCH   6  12
ATOM     12  N   UNL     1       2.997   7.208  18.048  0.00  0.00    +0.000 N 
ATOM     13  C   UNL     1       2.214   7.729  19.055  0.00  0.00    +0.000 C 
ATOM     14  O   UNL     1       2.242   7.279  20.199  0.00  0.00    +0.000 OA
ATOM     15  H   UNL     1       2.965   7.637  17.132  0.00  0.00    +0.000 HD
BRANCH  13  16
ATOM     16  C   UNL     1       1.337   8.910  18.638  0.00  0.00    +0.000 C 
ATOM     17  C   UNL     1       0.683   9.572  19.848  0.00  0.00    +0.000 C 
ATOM     18  C   UNL     1       2.155   9.936  17.855  0.00  0.00    +0.000 C 
ENDBRANCH  13  16
ENDBRANCH   6  12
BRANCH   2  19
ATOM     19  N   UNL     1       4.337   2.306  18.075  0.00  0.00    +0.000 NA
ATOM     20  H   UNL     1       3.915   2.040  18.975  0.00  0.00    +0.000 HD
ATOM     21  H   UNL     1       5.217   1.785  18.104  0.00  0.00    +0.000 HD
ENDBRANCH   2  19
BRANCH   4  22
ATOM     22  C   UNL     1       7.038   5.961  15.962  0.00  0.00    +0.000 C 
ATOM     23  O   UNL     1       7.377   5.430  14.916  0.00  0.00    +0.000 OA
BRANCH  22  24
ATOM     24  O   UNL     1       7.719   6.986  16.507  0.00  0.00    +0.000 OA
ATOM     25  H   UNL     1       8.549   7.241  16.069  0.00  0.00    +0.000 HD
ENDBRANCH  22  24
ENDBRANCH   4  22
TORSDOF 6
ENDMDL
MODEL 3
REMARK VINA RESULT:      -6.7      1.045      1.045
REMARK  Name = 
REMARK  9 active torsions:
REMARK  status: ('A' for Active; 'I' for Inactive)
REMARK    1  A    between atoms: C_1  and  C_2
REMARK    2  A    between atoms: N_4  and  C_5
REMARK    3  A    between atoms: C_6  and  N_7
REMARK    4  A    between atoms: C_9  and  C_10
REMARK    5  A    between atoms: C_10  and  O_12
REMARK    6  A    between atoms: C_14  and  N_15
REMARK    7  A    between atoms: C_16  and  C_18
REMARK    8  A    between atoms: C_18  and  C_19
REMARK    9  A    between atoms: C_18  and  C_20
REMARK                            x       y       z     vdW  Elec       q    Type
REMARK                         _______ _______ _______ _____ _____    ______ ____
ROOT
ATOM      1  C   UNL     1       7.179   4.715  15.152  0.00  0.00    +0.000 C 
ATOM      2  C   UNL     1       7.407   5.319  13.728  0.00  0.00    +0.000 C 
ATOM      3  C   UNL     1       7.111   4.248  12.661  0.00  0.00    +0.000 C 
ATOM      4  C   UNL     1       5.799   3.553  12.877  0.00  0.00    +0.000 C 
ATOM      5  C   UNL     1       5.140   3.614  14.051  0.00  0.00    +0.000 C 
ATOM      6  C   UNL     1       5.666   4.323  15.271  0.00  0.00    +0.000 C 
ENDROOT
BRANCH   1  10
ATOM      7  C   UNL     1       7.491   7.582  17.643  0.00  0.00    +0.000 C 
ATOM      8  C   UNL     1       6.835   6.704  16.612  0.00  0.00    +0.000 C 
ATOM      9  O   UNL     1       5.700   6.913  16.194  0.00  0.00    +0.000 OA
ATOM     10  N   UNL     1       7.601   5.627  16.226  0.00  0.00    +0.000 N 
ATOM     11  H   UNL     1       8.609   5.704  16.384  0.00  0.00    +0.000 HD
ENDBRANCH   1  10
BRANCH   6  12
ATOM     12  N   UNL     1       5.378   3.467  16.419  0.00  0.00    +0.000 N 
ATOM     13  C   UNL     1       4.274   3.677  17.216  0.00  0.00    +0.000 C 
ATOM     14  O   UNL     1       3.540   4.652  17.064  0.00  0.00    +0.000 OA
ATOM     15  H   UNL     1       5.930   2.631  16.560  0.00  0.00    +0.000 HD
BRANCH  13  16
ATOM     16  C   UNL     1       4.033   2.601  18.274  0.00  0.00    +0.000 C 
ATOM     17  C   UNL     1       4.412   3.096  19.668  0.00  0.00    +0.000 C 
ATOM     18  C   UNL     1       2.574   2.148  18.257  0.00  0.00    +0.000 C 
ENDBRANCH  13  16
ENDBRANCH   6  12
BRANCH   2  19
ATOM     19  N   UNL     1       8.752   5.859  13.465  0.00  0.00    +0.000 NA
ATOM     20  H   UNL     1       9.398   5.074  13.312  0.00  0.00    +0.000 HD
ATOM     21  H   UNL     1       9.110   6.247  14.340  0.00  0.00    +0.000 HD
ENDBRANCH   2  19
BRANCH   4  22
ATOM     22  C   UNL     1       5.122   2.859  11.751  0.00  0.00    +0.000 C 
ATOM     23  O   UNL     1       4.148   3.314  11.171  0.00  0.00    +0.000 OA
BRANCH  22  24
ATOM     24  O   UNL     1       5.658   1.664  11.435  0.00  0.00    +0.000 OA
ATOM     25  H   UNL     1       5.065   0.895  11.477  0.00  0.00    +0.000 HD
ENDBRANCH  22  24
ENDBRANCH   4  22
TORSDOF 6
ENDMDL
MODEL 4
REMARK VINA RESULT:      -6.7      2.437      5.321
REMARK  Name = 
REMARK  9 active torsions:
REMARK  status: ('A' for Active; 'I' for Inactive)
REMARK    1  A    between atoms: C_1  and  C_2
REMARK    2  A    between atoms: N_4  and  C_5
REMARK    3  A    between atoms: C_6  and  N_7
REMARK    4  A    between atoms: C_9  and  C_10
REMARK    5  A    between atoms: C_10  and  O_12
REMARK    6  A    between atoms: C_14  and  N_15
REMARK    7  A    between atoms: C_16  and  C_18
REMARK    8  A    between atoms: C_18  and  C_19
REMARK    9  A    between atoms: C_18  and  C_20
REMARK                            x       y       z     vdW  Elec       q    Type
REMARK                         _______ _______ _______ _____ _____    ______ ____
ROOT
ATOM      1  C   UNL     1       4.468   5.908  16.959  0.00  0.00    +0.000 C 
ATOM      2  C   UNL     1       3.826   5.900  18.384  0.00  0.00    +0.000 C 
ATOM      3  C   UNL     1       2.594   4.974  18.388  0.00  0.00    +0.000 C 
ATOM      4  C   UNL     1       2.870   3.629  17.784  0.00  0.00    +0.000 C 
ATOM      5  C   UNL     1       3.954   3.396  17.019  0.00  0.00    +0.000 C 
ATOM      6  C   UNL     1       4.958   4.453  16.643  0.00  0.00    +0.000 C 
ENDROOT
BRANCH   1  10
ATOM      7  C   UNL     1       7.583   8.046  17.454  0.00  0.00    +0.000 C 
ATOM      8  C   UNL     1       6.648   6.886  17.664  0.00  0.00    +0.000 C 
ATOM      9  O   UNL     1       6.876   5.993  18.474  0.00  0.00    +0.000 OA
ATOM     10  N   UNL     1       5.550   6.897  16.834  0.00  0.00    +0.000 N 
ATOM     11  H   UNL     1       5.293   7.800  16.429  0.00  0.00    +0.000 HD
ENDBRANCH   1  10
BRANCH   6  12
ATOM     12  N   UNL     1       5.291   4.246  15.237  0.00  0.00    +0.000 N 
ATOM     13  C   UNL     1       6.590   4.324  14.784  0.00  0.00    +0.000 C 
ATOM     14  O   UNL     1       7.513   4.673  15.517  0.00  0.00    +0.000 OA
ATOM     15  H   UNL     1       4.572   3.918  14.605  0.00  0.00    +0.000 HD
BRANCH  13  16
ATOM     16  C   UNL     1       6.783   3.925  13.321  0.00  0.00    +0.000 C 
ATOM     17  C   UNL     1       5.449   3.619  12.646  0.00  0.00    +0.000 C 
ATOM     18  C   UNL     1       7.517   5.027  12.556  0.00  0.00    +0.000 C 
ENDBRANCH  13  16
ENDBRANCH   6  12
BRANCH   2  19
ATOM     19  N   UNL     1       3.408   7.210  18.910  0.00  0.00    +0.000 NA
ATOM     20  H   UNL     1       2.986   7.074  19.839  0.00  0.00    +0.000 HD
ATOM     21  H   UNL     1       2.600   7.523  18.366  0.00  0.00    +0.000 HD
ENDBRANCH   2  19
BRANCH   4  22
ATOM     22  C   UNL     1       2.001   2.468  18.108  0.00  0.00    +0.000 C 
ATOM     23  O   UNL     1       0.787   2.549  18.219  0.00  0.00    +0.000 OA
BRANCH  22  24
ATOM     24  O   UNL     1       2.668   1.313  18.297  0.00  0.00    +0.000 OA
ATOM     25  H   UNL     1       2.741   0.995  19.213  0.00  0.00    +0.000 HD
ENDBRANCH  22  24
ENDBRANCH   4  22
TORSDOF 6
ENDMDL
MODEL 5
REMARK VINA RESULT:      -6.6      3.594      7.484
REMARK  Name = 
REMARK  9 active torsions:
REMARK  status: ('A' for Active; 'I' for Inactive)
REMARK    1  A    between atoms: C_1  and  C_2
REMARK    2  A    between atoms: N_4  and  C_5
REMARK    3  A    between atoms: C_6  and  N_7
REMARK    4  A    between atoms: C_9  and  C_10
REMARK    5  A    between atoms: C_10  and  O_12
REMARK    6  A    between atoms: C_14  and  N_15
REMARK    7  A    between atoms: C_16  and  C_18
REMARK    8  A    between atoms: C_18  and  C_19
REMARK    9  A    between atoms: C_18  and  C_20
REMARK                            x       y       z     vdW  Elec       q    Type
REMARK                         _______ _______ _______ _____ _____    ______ ____
ROOT
ATOM      1  C   UNL     1       2.881   4.364  19.491  0.00  0.00    +0.000 C 
ATOM      2  C   UNL     1       1.414   4.530  20.005  0.00  0.00    +0.000 C 
ATOM      3  C   UNL     1       1.316   5.794  20.881  0.00  0.00    +0.000 C 
ATOM      4  C   UNL     1       1.928   7.003  20.236  0.00  0.00    +0.000 C 
ATOM      5  C   UNL     1       2.766   6.908  19.186  0.00  0.00    +0.000 C 
ATOM      6  C   UNL     1       3.220   5.601  18.591  0.00  0.00    +0.000 C 
ENDROOT
BRANCH   1  10
ATOM      7  C   UNL     1       4.186   1.002  18.260  0.00  0.00    +0.000 C 
ATOM      8  C   UNL     1       4.050   2.186  19.178  0.00  0.00    +0.000 C 
ATOM      9  O   UNL     1       4.708   2.302  20.207  0.00  0.00    +0.000 OA
ATOM     10  N   UNL     1       3.090   3.091  18.785  0.00  0.00    +0.000 N 
ATOM     11  H   UNL     1       2.823   3.072  17.797  0.00  0.00    +0.000 HD
ENDBRANCH   1  10
BRANCH   6  12
ATOM     12  N   UNL     1       4.645   5.735  18.302  0.00  0.00    +0.000 N 
ATOM     13  C   UNL     1       5.201   5.208  17.157  0.00  0.00    +0.000 C 
ATOM     14  O   UNL     1       4.549   4.513  16.379  0.00  0.00    +0.000 OA
ATOM     15  H   UNL     1       5.212   6.331  18.891  0.00  0.00    +0.000 HD
BRANCH  13  16
ATOM     16  C   UNL     1       6.668   5.573  16.930  0.00  0.00    +0.000 C 
ATOM     17  C   UNL     1       6.963   6.999  17.387  0.00  0.00    +0.000 C 
ATOM     18  C   UNL     1       7.585   4.589  17.656  0.00  0.00    +0.000 C 
ENDBRANCH  13  16
ENDBRANCH   6  12
BRANCH   2  19
ATOM     19  N   UNL     1       0.869   3.402  20.778  0.00  0.00    +0.000 NA
ATOM     20  H   UNL     1       1.430   2.563  20.576  0.00  0.00    +0.000 HD
ATOM     21  H   UNL     1      -0.031   3.146  20.366  0.00  0.00    +0.000 HD
ENDBRANCH   2  19
BRANCH   4  22
ATOM     22  C   UNL     1       1.535   8.368  20.674  0.00  0.00    +0.000 C 
ATOM     23  O   UNL     1       1.095   9.215  19.912  0.00  0.00    +0.000 OA
BRANCH  22  24
ATOM     24  O   UNL     1       1.729   8.605  21.985  0.00  0.00    +0.000 OA
ATOM     25  H   UNL     1       0.937   8.797  22.516  0.00  0.00    +0.000 HD
ENDBRANCH  22  24
ENDBRANCH   4  22
TORSDOF 6
ENDMDL
MODEL 6
REMARK VINA RESULT:      -6.5      3.736      5.156
REMARK  Name = 
REMARK  9 active torsions:
REMARK  status: ('A' for Active; 'I' for Inactive)
REMARK    1  A    between atoms: C_1  and  C_2
REMARK    2  A    between atoms: N_4  and  C_5
REMARK    3  A    between atoms: C_6  and  N_7
REMARK    4  A    between atoms: C_9  and  C_10
REMARK    5  A    between atoms: C_10  and  O_12
REMARK    6  A    between atoms: C_14  and  N_15
REMARK    7  A    between atoms: C_16  and  C_18
REMARK    8  A    between atoms: C_18  and  C_19
REMARK    9  A    between atoms: C_18  and  C_20
REMARK                            x       y       z     vdW  Elec       q    Type
REMARK                         _______ _______ _______ _____ _____    ______ ____
ROOT
ATOM      1  C   UNL     1       4.952   5.734  17.923  0.00  0.00    +0.000 C 
ATOM      2  C   UNL     1       5.151   4.461  17.037  0.00  0.00    +0.000 C 
ATOM      3  C   UNL     1       4.368   3.282  17.649  0.00  0.00    +0.000 C 
ATOM      4  C   UNL     1       2.949   3.633  17.987  0.00  0.00    +0.000 C 
ATOM      5  C   UNL     1       2.528   4.911  18.072  0.00  0.00    +0.000 C 
ATOM      6  C   UNL     1       3.430   6.104  17.900  0.00  0.00    +0.000 C 
ENDROOT
BRANCH   1  10
ATOM      7  C   UNL     1       7.747   8.289  17.497  0.00  0.00    +0.000 C 
ATOM      8  C   UNL     1       7.085   7.020  17.962  0.00  0.00    +0.000 C 
ATOM      9  O   UNL     1       7.664   6.191  18.657  0.00  0.00    +0.000 OA
ATOM     10  N   UNL     1       5.801   6.856  17.494  0.00  0.00    +0.000 N 
ATOM     11  H   UNL     1       5.313   7.704  17.194  0.00  0.00    +0.000 HD
ENDBRANCH   1  10
BRANCH   6  12
ATOM     12  N   UNL     1       3.054   7.075  18.924  0.00  0.00    +0.000 N 
ATOM     13  C   UNL     1       2.154   8.086  18.664  0.00  0.00    +0.000 C 
ATOM     14  O   UNL     1       1.707   8.282  17.535  0.00  0.00    +0.000 OA
ATOM     15  H   UNL     1       3.364   6.930  19.876  0.00  0.00    +0.000 HD
BRANCH  13  16
ATOM     16  C   UNL     1       1.751   8.914  19.884  0.00  0.00    +0.000 C 
ATOM     17  C   UNL     1       0.642   9.905  19.541  0.00  0.00    +0.000 C 
ATOM     18  C   UNL     1       1.307   8.004  21.028  0.00  0.00    +0.000 C 
ENDBRANCH  13  16
ENDBRANCH   6  12
BRANCH   2  19
ATOM     19  N   UNL     1       6.542   4.024  16.839  0.00  0.00    +0.000 NA
ATOM     20  H   UNL     1       6.843   4.299  15.894  0.00  0.00    +0.000 HD
ATOM     21  H   UNL     1       6.543   3.004  16.761  0.00  0.00    +0.000 HD
ENDBRANCH   2  19
BRANCH   4  22
ATOM     22  C   UNL     1       1.925   2.566  18.131  0.00  0.00    +0.000 C 
ATOM     23  O   UNL     1       0.724   2.788  18.153  0.00  0.00    +0.000 OA
BRANCH  22  24
ATOM     24  O   UNL     1       2.434   1.326  18.261  0.00  0.00    +0.000 OA
ATOM     25  H   UNL     1       1.804   0.616  18.476  0.00  0.00    +0.000 HD
ENDBRANCH  22  24
ENDBRANCH   4  22
TORSDOF 6
ENDMDL
MODEL 7
REMARK VINA RESULT:      -6.4      2.556      6.464
REMARK  Name = 
REMARK  9 active torsions:
REMARK  status: ('A' for Active; 'I' for Inactive)
REMARK    1  A    between atoms: C_1  and  C_2
REMARK    2  A    between atoms: N_4  and  C_5
REMARK    3  A    between atoms: C_6  and  N_7
REMARK    4  A    between atoms: C_9  and  C_10
REMARK    5  A    between atoms: C_10  and  O_12
REMARK    6  A    between atoms: C_14  and  N_15
REMARK    7  A    between atoms: C_16  and  C_18
REMARK    8  A    between atoms: C_18  and  C_19
REMARK    9  A    between atoms: C_18  and  C_20
REMARK                            x       y       z     vdW  Elec       q    Type
REMARK                         _______ _______ _______ _____ _____    ______ ____
ROOT
ATOM      1  C   UNL     1       4.265   4.044  17.177  0.00  0.00    +0.000 C 
ATOM      2  C   UNL     1       2.795   3.550  17.373  0.00  0.00    +0.000 C 
ATOM      3  C   UNL     1       2.507   3.377  18.877  0.00  0.00    +0.000 C 
ATOM      4  C   UNL     1       2.915   4.568  19.693  0.00  0.00    +0.000 C 
ATOM      5  C   UNL     1       3.748   5.513  19.215  0.00  0.00    +0.000 C 
ATOM      6  C   UNL     1       4.396   5.450  17.857  0.00  0.00    +0.000 C 
ENDROOT
BRANCH   1  10
ATOM      7  C   UNL     1       6.198   4.127  13.894  0.00  0.00    +0.000 C 
ATOM      8  C   UNL     1       5.980   3.954  15.373  0.00  0.00    +0.000 C 
ATOM      9  O   UNL     1       6.894   3.685  16.146  0.00  0.00    +0.000 OA
ATOM     10  N   UNL     1       4.666   4.074  15.762  0.00  0.00    +0.000 N 
ATOM     11  H   UNL     1       4.047   4.586  15.128  0.00  0.00    +0.000 HD
ENDBRANCH   1  10
BRANCH   6  12
ATOM     12  N   UNL     1       5.780   5.887  18.024  0.00  0.00    +0.000 N 
ATOM     13  C   UNL     1       6.339   6.840  17.202  0.00  0.00    +0.000 C 
ATOM     14  O   UNL     1       5.738   7.290  16.228  0.00  0.00    +0.000 OA
ATOM     15  H   UNL     1       6.300   5.574  18.834  0.00  0.00    +0.000 HD
BRANCH  13  16
ATOM     16  C   UNL     1       7.739   7.297  17.611  0.00  0.00    +0.000 C 
ATOM     17  C   UNL     1       7.813   8.816  17.742  0.00  0.00    +0.000 C 
ATOM     18  C   UNL     1       8.158   6.635  18.923  0.00  0.00    +0.000 C 
ENDBRANCH  13  16
ENDBRANCH   6  12
BRANCH   2  19
ATOM     19  N   UNL     1       2.443   2.291  16.697  0.00  0.00    +0.000 NA
ATOM     20  H   UNL     1       1.418   2.221  16.644  0.00  0.00    +0.000 HD
ATOM     21  H   UNL     1       2.664   1.521  17.333  0.00  0.00    +0.000 HD
ENDBRANCH   2  19
BRANCH   4  22
ATOM     22  C   UNL     1       2.315   4.801  21.033  0.00  0.00    +0.000 C 
ATOM     23  O   UNL     1       2.123   3.910  21.845  0.00  0.00    +0.000 OA
BRANCH  22  24
ATOM     24  O   UNL     1       1.974   6.082  21.270  0.00  0.00    +0.000 OA
ATOM     25  H   UNL     1       1.477   6.539  20.570  0.00  0.00    +0.000 HD
ENDBRANCH  22  24
ENDBRANCH   4  22
TORSDOF 6
ENDMDL
MODEL 8
REMARK VINA RESULT:      -6.4      3.617      5.770
REMARK  Name = 
REMARK  9 active torsions:
REMARK  status: ('A' for Active; 'I' for Inactive)
REMARK    1  A    between atoms: C_1  and  C_2
REMARK    2  A    between atoms: N_4  and  C_5
REMARK    3  A    between atoms: C_6  and  N_7
REMARK    4  A    between atoms: C_9  and  C_10
REMARK    5  A    between atoms: C_10  and  O_12
REMARK    6  A    between atoms: C_14  and  N_15
REMARK    7  A    between atoms: C_16  and  C_18
REMARK    8  A    between atoms: C_18  and  C_19
REMARK    9  A    between atoms: C_18  and  C_20
REMARK                            x       y       z     vdW  Elec       q    Type
REMARK                         _______ _______ _______ _____ _____    ______ ____
ROOT
ATOM      1  C   UNL     1       3.125   4.625  17.890  0.00  0.00    +0.000 C 
ATOM      2  C   UNL     1       4.271   3.563  17.866  0.00  0.00    +0.000 C 
ATOM      3  C   UNL     1       5.311   3.952  16.797  0.00  0.00    +0.000 C 
ATOM      4  C   UNL     1       5.744   5.385  16.896  0.00  0.00    +0.000 C 
ATOM      5  C   UNL     1       5.048   6.298  17.601  0.00  0.00    +0.000 C 
ATOM      6  C   UNL     1       3.751   6.001  18.306  0.00  0.00    +0.000 C 
ENDROOT
BRANCH   1  10
ATOM      7  C   UNL     1       0.964   3.233  20.703  0.00  0.00    +0.000 C 
ATOM      8  C   UNL     1       2.224   3.670  20.007  0.00  0.00    +0.000 C 
ATOM      9  O   UNL     1       3.332   3.571  20.525  0.00  0.00    +0.000 OA
ATOM     10  N   UNL     1       2.013   4.234  18.770  0.00  0.00    +0.000 N 
ATOM     11  H   UNL     1       1.130   4.001  18.307  0.00  0.00    +0.000 HD
ENDBRANCH   1  10
BRANCH   6  12
ATOM     12  N   UNL     1       2.865   7.137  18.067  0.00  0.00    +0.000 N 
ATOM     13  C   UNL     1       2.102   7.681  19.078  0.00  0.00    +0.000 C 
ATOM     14  O   UNL     1       2.051   7.175  20.197  0.00  0.00    +0.000 OA
ATOM     15  H   UNL     1       2.903   7.611  17.174  0.00  0.00    +0.000 HD
BRANCH  13  16
ATOM     16  C   UNL     1       1.355   8.959  18.698  0.00  0.00    +0.000 C 
ATOM     17  C   UNL     1       0.907   9.731  19.937  0.00  0.00    +0.000 C 
ATOM     18  C   UNL     1       2.227   9.849  17.813  0.00  0.00    +0.000 C 
ENDBRANCH  13  16
ENDBRANCH   6  12
BRANCH   2  19
ATOM     19  N   UNL     1       3.858   2.174  17.608  0.00  0.00    +0.000 NA
ATOM     20  H   UNL     1       3.647   1.720  18.507  0.00  0.00    +0.000 HD
ATOM     21  H   UNL     1       4.684   1.651  17.308  0.00  0.00    +0.000 HD
ENDBRANCH   2  19
BRANCH   4  22
ATOM     22  C   UNL     1       7.034   5.823  16.301  0.00  0.00    +0.000 C 
ATOM     23  O   UNL     1       7.573   6.884  16.576  0.00  0.00    +0.000 OA
BRANCH  22  24
ATOM     24  O   UNL     1       7.552   4.959  15.407  0.00  0.00    +0.000 OA
ATOM     25  H   UNL     1       6.918   4.467  14.857  0.00  0.00    +0.000 HD
ENDBRANCH  22  24
ENDBRANCH   4  22
TORSDOF 6
ENDMDL
MODEL 9
REMARK VINA RESULT:      -6.3      2.639      5.685
REMARK  Name = 
REMARK  9 active torsions:
REMARK  status: ('A' for Active; 'I' for Inactive)
REMARK    1  A    between atoms: C_1  and  C_2
REMARK    2  A    between atoms: N_4  and  C_5
REMARK    3  A    between atoms: C_6  and  N_7
REMARK    4  A    between atoms: C_9  and  C_10
REMARK    5  A    between atoms: C_10  and  O_12
REMARK    6  A    between atoms: C_14  and  N_15
REMARK    7  A    between atoms: C_16  and  C_18
REMARK    8  A    between atoms: C_18  and  C_19
REMARK    9  A    between atoms: C_18  and  C_20
REMARK                            x       y       z     vdW  Elec       q    Type
REMARK                         _______ _______ _______ _____ _____    ______ ____
ROOT
ATOM      1  C   UNL     1       4.182   5.574  18.039  0.00  0.00    +0.000 C 
ATOM      2  C   UNL     1       3.447   5.446  19.413  0.00  0.00    +0.000 C 
ATOM      3  C   UNL     1       2.128   4.672  19.221  0.00  0.00    +0.000 C 
ATOM      4  C   UNL     1       2.303   3.398  18.448  0.00  0.00    +0.000 C 
ATOM      5  C   UNL     1       3.407   3.151  17.715  0.00  0.00    +0.000 C 
ATOM      6  C   UNL     1       4.538   4.130  17.547  0.00  0.00    +0.000 C 
ENDROOT
BRANCH   1  10
ATOM      7  C   UNL     1       7.128   7.863  17.265  0.00  0.00    +0.000 C 
ATOM      8  C   UNL     1       5.843   7.123  17.015  0.00  0.00    +0.000 C 
ATOM      9  O   UNL     1       5.256   7.166  15.938  0.00  0.00    +0.000 OA
ATOM     10  N   UNL     1       5.367   6.443  18.113  0.00  0.00    +0.000 N 
ATOM     11  H   UNL     1       6.049   6.216  18.840  0.00  0.00    +0.000 HD
ENDBRANCH   1  10
BRANCH   6  12
ATOM     12  N   UNL     1       4.942   4.078  16.145  0.00  0.00    +0.000 N 
ATOM     13  C   UNL     1       6.270   4.061  15.777  0.00  0.00    +0.000 C 
ATOM     14  O   UNL     1       7.174   4.193  16.601  0.00  0.00    +0.000 OA
ATOM     15  H   UNL     1       4.237   3.929  15.435  0.00  0.00    +0.000 HD
BRANCH  13  16
ATOM     16  C   UNL     1       6.519   3.846  14.284  0.00  0.00    +0.000 C 
ATOM     17  C   UNL     1       5.208   3.793  13.503  0.00  0.00    +0.000 C 
ATOM     18  C   UNL     1       7.418   4.948  13.725  0.00  0.00    +0.000 C 
ENDBRANCH  13  16
ENDBRANCH   6  12
BRANCH   2  19
ATOM     19  N   UNL     1       3.133   6.711  20.097  0.00  0.00    +0.000 NA
ATOM     20  H   UNL     1       2.215   6.621  20.553  0.00  0.00    +0.000 HD
ATOM     21  H   UNL     1       2.933   7.414  19.380  0.00  0.00    +0.000 HD
ENDBRANCH   2  19
BRANCH   4  22
ATOM     22  C   UNL     1       1.298   2.309  18.557  0.00  0.00    +0.000 C 
ATOM     23  O   UNL     1       0.114   2.462  18.301  0.00  0.00    +0.000 OA
BRANCH  22  24
ATOM     24  O   UNL     1       1.799   1.137  18.992  0.00  0.00    +0.000 OA
ATOM     25  H   UNL     1       2.684   1.162  19.394  0.00  0.00    +0.000 HD
ENDBRANCH  22  24
ENDBRANCH   4  22
TORSDOF 6
ENDMDL
