MODEL 1
REMARK VINA RESULT:      -8.3      0.000      0.000
REMARK  Name = 
REMARK  9 active torsions:
REMARK  status: ('A' for Active; 'I' for Inactive)
REMARK    1  A    between atoms: C_1  and  C_2
REMARK    2  A    between atoms: C_2  and  C_3
REMARK    3  A    between atoms: C_2  and  C_4
REMARK    4  A    between atoms: C_2  and  O_5
REMARK    5  A    between atoms: O_5  and  C_6
REMARK    6  A    between atoms: C_11  and  C_12
REMARK    7  A    between atoms: C_17  and  N_18
REMARK    8  A    between atoms: N_21  and  C_22
REMARK    9  A    between atoms: C_22  and  C_23
REMARK                            x       y       z     vdW  Elec       q    Type
REMARK                         _______ _______ _______ _____ _____    ______ ____
ROOT
ATOM      1  C   UNL     1      -0.317  11.979  21.035  0.00  0.00    +0.000 A 
ATOM      2  N   UNL     1      -0.174  11.852  19.681  0.00  0.00    +0.000 NA
ATOM      3  C   UNL     1       0.465  10.718  19.555  0.00  0.00    +0.000 A 
ATOM      4  C   UNL     1       0.930  10.025  18.412  0.00  0.00    +0.000 A 
ATOM      5  C   UNL     1       1.585   8.861  18.570  0.00  0.00    +0.000 A 
ATOM      6  C   UNL     1       1.843   8.269  19.884  0.00  0.00    +0.000 A 
ATOM      7  C   UNL     1       1.383   8.935  20.963  0.00  0.00    +0.000 A 
ATOM      8  N   UNL     1       0.701  10.147  20.802  0.00  0.00    +0.000 N 
ATOM      9  N   UNL     1       0.183  10.965  21.757  0.00  0.00    +0.000 NA
ENDROOT
BRANCH   1  15
ATOM     10  C   UNL     1      -4.649  12.550  23.546  0.00  0.00    +0.000 C 
ATOM     11  O   UNL     1      -4.632  12.526  24.771  0.00  0.00    +0.000 OA
ATOM     12  N   UNL     1      -3.513  12.339  22.789  0.00  0.00    +0.000 N 
ATOM     13  C   UNL     1      -2.269  11.999  23.469  0.00  0.00    +0.000 C 
ATOM     14  C   UNL     1      -1.194  13.034  23.152  0.00  0.00    +0.000 C 
ATOM     15  C   UNL     1      -0.998  13.180  21.630  0.00  0.00    +0.000 C 
ATOM     16  C   UNL     1      -2.353  13.506  20.972  0.00  0.00    +0.000 C 
ATOM     17  C   UNL     1      -3.433  12.485  21.340  0.00  0.00    +0.000 C 
BRANCH  10  18
ATOM     18  O   UNL     1      -5.770  12.783  22.804  0.00  0.00    +0.000 OA
BRANCH  18  20
ATOM     19  C   UNL     1      -5.433  15.188  23.180  0.00  0.00    +0.000 C 
ATOM     20  C   UNL     1      -6.451  14.060  22.956  0.00  0.00    +0.000 C 
ATOM     21  C   UNL     1      -7.520  13.997  24.059  0.00  0.00    +0.000 C 
ATOM     22  C   UNL     1      -7.171  14.343  21.626  0.00  0.00    +0.000 C 
ENDBRANCH  18  20
ENDBRANCH  10  18
ENDBRANCH   1  15
BRANCH   6  23
ATOM     23  N   UNL     1       2.535   7.076  20.026  0.00  0.00    +0.000 N 
ATOM     24  C   UNL     1       2.774   6.132  19.048  0.00  0.00    +0.000 C 
ATOM     25  O   UNL     1       2.426   6.211  17.872  0.00  0.00    +0.000 OA
ATOM     26  N   UNL     1       3.495   5.053  19.496  0.00  0.00    +0.000 N 
ATOM     27  H   UNL     1       2.957   6.897  20.924  0.00  0.00    +0.000 HD
ATOM     28  H   UNL     1       3.576   4.876  20.484  0.00  0.00    +0.000 HD
BRANCH  26  29
ATOM     29  C   UNL     1       3.782   3.964  18.581  0.00  0.00    +0.000 C 
BRANCH  29  30
ATOM     30  C   UNL     1       5.062   4.181  17.817  0.00  0.00    +0.000 A 
ATOM     31  C   UNL     1       5.127   3.940  16.439  0.00  0.00    +0.000 A 
ATOM     32  C   UNL     1       6.326   4.157  15.778  0.00  0.00    +0.000 A 
ATOM     33  N   UNL     1       7.450   4.589  16.387  0.00  0.00    +0.000 NA
ATOM     34  C   UNL     1       7.370   4.810  17.716  0.00  0.00    +0.000 A 
ATOM     35  C   UNL     1       6.218   4.619  18.466  0.00  0.00    +0.000 A 
ENDBRANCH  29  30
ENDBRANCH  26  29
ENDBRANCH   6  23
TORSDOF 6
ENDMDL
MODEL 2
REMARK VINA RESULT:      -8.2      0.899      1.309
REMARK  Name = 
REMARK  9 active torsions:
REMARK  status: ('A' for Active; 'I' for Inactive)
REMARK    1  A    between atoms: C_1  and  C_2
REMARK    2  A    between atoms: C_2  and  C_3
REMARK    3  A    between atoms: C_2  and  C_4
REMARK    4  A    between atoms: C_2  and  O_5
REMARK    5  A    between atoms: O_5  and  C_6
REMARK    6  A    between atoms: C_11  and  C_12
REMARK    7  A    between atoms: C_17  and  N_18
REMARK    8  A    between atoms: N_21  and  C_22
REMARK    9  A    between atoms: C_22  and  C_23
REMARK                            x       y       z     vdW  Elec       q    Type
REMARK                         _______ _______ _______ _____ _____    ______ ____
ROOT
ATOM      1  C   UNL     1      -0.183  11.921  21.247  0.00  0.00    +0.000 A 
ATOM      2  N   UNL     1      -0.010  11.849  19.893  0.00  0.00    +0.000 NA
ATOM      3  C   UNL     1       0.584  10.694  19.731  0.00  0.00    +0.000 A 
ATOM      4  C   UNL     1       1.048  10.034  18.569  0.00  0.00    +0.000 A 
ATOM      5  C   UNL     1       1.649   8.836  18.691  0.00  0.00    +0.000 A 
ATOM      6  C   UNL     1       1.847   8.176  19.982  0.00  0.00    +0.000 A 
ATOM      7  C   UNL     1       1.387   8.812  21.078  0.00  0.00    +0.000 A 
ATOM      8  N   UNL     1       0.762  10.059  20.957  0.00  0.00    +0.000 N 
ATOM      9  N   UNL     1       0.253  10.856  21.935  0.00  0.00    +0.000 NA
ENDROOT
BRANCH   1  15
ATOM     10  C   UNL     1      -4.959  12.997  22.445  0.00  0.00    +0.000 C 
ATOM     11  O   UNL     1      -5.353  12.761  23.581  0.00  0.00    +0.000 OA
ATOM     12  N   UNL     1      -3.683  12.673  22.025  0.00  0.00    +0.000 N 
ATOM     13  C   UNL     1      -2.804  11.956  22.940  0.00  0.00    +0.000 C 
ATOM     14  C   UNL     1      -1.538  12.766  23.201  0.00  0.00    +0.000 C 
ATOM     15  C   UNL     1      -0.828  13.123  21.879  0.00  0.00    +0.000 C 
ATOM     16  C   UNL     1      -1.820  13.848  20.949  0.00  0.00    +0.000 C 
ATOM     17  C   UNL     1      -3.106  13.043  20.738  0.00  0.00    +0.000 C 
BRANCH  10  18
ATOM     18  O   UNL     1      -5.721  13.595  21.483  0.00  0.00    +0.000 OA
BRANCH  18  20
ATOM     19  C   UNL     1      -6.597  11.473  20.607  0.00  0.00    +0.000 C 
ATOM     20  C   UNL     1      -6.923  12.913  21.027  0.00  0.00    +0.000 C 
ATOM     21  C   UNL     1      -7.632  13.709  19.921  0.00  0.00    +0.000 C 
ATOM     22  C   UNL     1      -7.878  12.839  22.232  0.00  0.00    +0.000 C 
ENDBRANCH  18  20
ENDBRANCH  10  18
ENDBRANCH   1  15
BRANCH   6  23
ATOM     23  N   UNL     1       2.484   6.949  20.087  0.00  0.00    +0.000 N 
ATOM     24  C   UNL     1       2.752   6.062  19.064  0.00  0.00    +0.000 C 
ATOM     25  O   UNL     1       2.487   6.232  17.876  0.00  0.00    +0.000 OA
ATOM     26  N   UNL     1       3.402   4.927  19.482  0.00  0.00    +0.000 N 
ATOM     27  H   UNL     1       2.838   6.694  20.995  0.00  0.00    +0.000 HD
ATOM     28  H   UNL     1       3.411   4.682  20.459  0.00  0.00    +0.000 HD
BRANCH  26  29
ATOM     29  C   UNL     1       3.709   3.889  18.516  0.00  0.00    +0.000 C 
BRANCH  29  30
ATOM     30  C   UNL     1       5.013   4.140  17.804  0.00  0.00    +0.000 A 
ATOM     31  C   UNL     1       5.129   3.939  16.423  0.00  0.00    +0.000 A 
ATOM     32  C   UNL     1       6.347   4.185  15.811  0.00  0.00    +0.000 A 
ATOM     33  N   UNL     1       7.446   4.608  16.471  0.00  0.00    +0.000 NA
ATOM     34  C   UNL     1       7.318   4.789  17.803  0.00  0.00    +0.000 A 
ATOM     35  C   UNL     1       6.142   4.568  18.505  0.00  0.00    +0.000 A 
ENDBRANCH  29  30
ENDBRANCH  26  29
ENDBRANCH   6  23
TORSDOF 6
ENDMDL
MODEL 3
REMARK VINA RESULT:      -7.8      2.631     12.564
REMARK  Name = 
REMARK  9 active torsions:
REMARK  status: ('A' for Active; 'I' for Inactive)
REMARK    1  A    between atoms: C_1  and  C_2
REMARK    2  A    between atoms: C_2  and  C_3
REMARK    3  A    between atoms: C_2  and  C_4
REMARK    4  A    between atoms: C_2  and  O_5
REMARK    5  A    between atoms: O_5  and  C_6
REMARK    6  A    between atoms: C_11  and  C_12
REMARK    7  A    between atoms: C_17  and  N_18
REMARK    8  A    between atoms: N_21  and  C_22
REMARK    9  A    between atoms: C_22  and  C_23
REMARK                            x       y       z     vdW  Elec       q    Type
REMARK                         _______ _______ _______ _____ _____    ______ ____
ROOT
ATOM      1  C   UNL     1       4.055   5.892  18.677  0.00  0.00    +0.000 A 
ATOM      2  N   UNL     1       3.836   6.816  17.694  0.00  0.00    +0.000 NA
ATOM      3  C   UNL     1       2.916   7.588  18.212  0.00  0.00    +0.000 A 
ATOM      4  C   UNL     1       2.245   8.723  17.698  0.00  0.00    +0.000 A 
ATOM      5  C   UNL     1       1.312   9.332  18.452  0.00  0.00    +0.000 A 
ATOM      6  C   UNL     1       0.955   8.873  19.795  0.00  0.00    +0.000 A 
ATOM      7  C   UNL     1       1.612   7.799  20.276  0.00  0.00    +0.000 A 
ATOM      8  N   UNL     1       2.583   7.161  19.495  0.00  0.00    +0.000 N 
ATOM      9  N   UNL     1       3.333   6.066  19.794  0.00  0.00    +0.000 NA
ENDROOT
BRANCH   1  15
ATOM     10  C   UNL     1       6.678   4.318  14.672  0.00  0.00    +0.000 C 
ATOM     11  O   UNL     1       7.814   4.745  14.502  0.00  0.00    +0.000 OA
ATOM     12  N   UNL     1       5.877   4.750  15.711  0.00  0.00    +0.000 N 
ATOM     13  C   UNL     1       6.370   5.805  16.586  0.00  0.00    +0.000 C 
ATOM     14  C   UNL     1       6.424   5.313  18.029  0.00  0.00    +0.000 C 
ATOM     15  C   UNL     1       5.050   4.781  18.484  0.00  0.00    +0.000 C 
ATOM     16  C   UNL     1       4.574   3.695  17.500  0.00  0.00    +0.000 C 
ATOM     17  C   UNL     1       4.573   4.191  16.051  0.00  0.00    +0.000 C 
BRANCH  10  18
ATOM     18  O   UNL     1       6.086   3.386  13.870  0.00  0.00    +0.000 OA
BRANCH  18  20
ATOM     19  C   UNL     1       7.100   4.720  12.072  0.00  0.00    +0.000 C 
ATOM     20  C   UNL     1       6.135   3.580  12.428  0.00  0.00    +0.000 C 
ATOM     21  C   UNL     1       4.729   3.787  11.844  0.00  0.00    +0.000 C 
ATOM     22  C   UNL     1       6.705   2.284  11.823  0.00  0.00    +0.000 C 
ENDBRANCH  18  20
ENDBRANCH  10  18
ENDBRANCH   1  15
BRANCH   6  23
ATOM     23  N   UNL     1      -0.021   9.507  20.549  0.00  0.00    +0.000 N 
ATOM     24  C   UNL     1       0.124  10.654  21.302  0.00  0.00    +0.000 C 
ATOM     25  O   UNL     1       1.151  11.320  21.406  0.00  0.00    +0.000 OA
ATOM     26  N   UNL     1      -1.031  11.040  21.935  0.00  0.00    +0.000 N 
ATOM     27  H   UNL     1      -0.953   9.123  20.505  0.00  0.00    +0.000 HD
ATOM     28  H   UNL     1      -1.791  10.387  22.041  0.00  0.00    +0.000 HD
BRANCH  26  29
ATOM     29  C   UNL     1      -1.011  12.208  22.796  0.00  0.00    +0.000 C 
BRANCH  29  30
ATOM     30  C   UNL     1      -2.354  12.887  22.869  0.00  0.00    +0.000 A 
ATOM     31  C   UNL     1      -3.359  12.402  23.715  0.00  0.00    +0.000 A 
ATOM     32  C   UNL     1      -4.578  13.061  23.751  0.00  0.00    +0.000 A 
ATOM     33  N   UNL     1      -4.862  14.153  23.010  0.00  0.00    +0.000 NA
ATOM     34  C   UNL     1      -3.884  14.602  22.196  0.00  0.00    +0.000 A 
ATOM     35  C   UNL     1      -2.633  14.010  22.088  0.00  0.00    +0.000 A 
ENDBRANCH  29  30
ENDBRANCH  26  29
ENDBRANCH   6  23
TORSDOF 6
ENDMDL
MODEL 4
REMARK VINA RESULT:      -7.8      2.629     12.581
REMARK  Name = 
REMARK  9 active torsions:
REMARK  status: ('A' for Active; 'I' for Inactive)
REMARK    1  A    between atoms: C_1  and  C_2
REMARK    2  A    between atoms: C_2  and  C_3
REMARK    3  A    between atoms: C_2  and  C_4
REMARK    4  A    between atoms: C_2  and  O_5
REMARK    5  A    between atoms: O_5  and  C_6
REMARK    6  A    between atoms: C_11  and  C_12
REMARK    7  A    between atoms: C_17  and  N_18
REMARK    8  A    between atoms: N_21  and  C_22
REMARK    9  A    between atoms: C_22  and  C_23
REMARK                            x       y       z     vdW  Elec       q    Type
REMARK                         _______ _______ _______ _____ _____    ______ ____
ROOT
ATOM      1  C   UNL     1       3.976   5.975  18.693  0.00  0.00    +0.000 A 
ATOM      2  N   UNL     1       3.736   6.851  17.671  0.00  0.00    +0.000 NA
ATOM      3  C   UNL     1       2.831   7.652  18.172  0.00  0.00    +0.000 A 
ATOM      4  C   UNL     1       2.151   8.762  17.618  0.00  0.00    +0.000 A 
ATOM      5  C   UNL     1       1.238   9.412  18.362  0.00  0.00    +0.000 A 
ATOM      6  C   UNL     1       0.911   9.021  19.734  0.00  0.00    +0.000 A 
ATOM      7  C   UNL     1       1.576   7.968  20.252  0.00  0.00    +0.000 A 
ATOM      8  N   UNL     1       2.527   7.289  19.481  0.00  0.00    +0.000 N 
ATOM      9  N   UNL     1       3.280   6.207  19.816  0.00  0.00    +0.000 NA
ENDROOT
BRANCH   1  15
ATOM     10  C   UNL     1       6.661   4.331  14.758  0.00  0.00    +0.000 C 
ATOM     11  O   UNL     1       7.805   4.745  14.607  0.00  0.00    +0.000 OA
ATOM     12  N   UNL     1       5.844   4.783  15.776  0.00  0.00    +0.000 N 
ATOM     13  C   UNL     1       6.331   5.842  16.650  0.00  0.00    +0.000 C 
ATOM     14  C   UNL     1       6.350   5.364  18.099  0.00  0.00    +0.000 C 
ATOM     15  C   UNL     1       4.961   4.852  18.531  0.00  0.00    +0.000 C 
ATOM     16  C   UNL     1       4.494   3.761  17.548  0.00  0.00    +0.000 C 
ATOM     17  C   UNL     1       4.527   4.241  16.095  0.00  0.00    +0.000 C 
BRANCH  10  18
ATOM     18  O   UNL     1       6.076   3.398  13.953  0.00  0.00    +0.000 OA
BRANCH  18  20
ATOM     19  C   UNL     1       6.639   2.224  11.869  0.00  0.00    +0.000 C 
ATOM     20  C   UNL     1       6.201   3.548  12.511  0.00  0.00    +0.000 C 
ATOM     21  C   UNL     1       7.127   4.720  12.149  0.00  0.00    +0.000 C 
ATOM     22  C   UNL     1       4.797   3.881  11.975  0.00  0.00    +0.000 C 
ENDBRANCH  18  20
ENDBRANCH  10  18
ENDBRANCH   1  15
BRANCH   6  23
ATOM     23  N   UNL     1      -0.045   9.694  20.479  0.00  0.00    +0.000 N 
ATOM     24  C   UNL     1       0.152  10.802  21.277  0.00  0.00    +0.000 C 
ATOM     25  O   UNL     1       1.218  11.392  21.439  0.00  0.00    +0.000 OA
ATOM     26  N   UNL     1      -0.995  11.246  21.887  0.00  0.00    +0.000 N 
ATOM     27  H   UNL     1      -0.998   9.378  20.391  0.00  0.00    +0.000 HD
ATOM     28  H   UNL     1      -1.801  10.645  21.944  0.00  0.00    +0.000 HD
BRANCH  26  29
ATOM     29  C   UNL     1      -0.925  12.380  22.789  0.00  0.00    +0.000 C 
BRANCH  29  30
ATOM     30  C   UNL     1      -2.283  12.970  23.072  0.00  0.00    +0.000 A 
ATOM     31  C   UNL     1      -2.429  14.046  23.956  0.00  0.00    +0.000 A 
ATOM     32  C   UNL     1      -3.697  14.557  24.183  0.00  0.00    +0.000 A 
ATOM     33  N   UNL     1      -4.815  14.073  23.602  0.00  0.00    +0.000 NA
ATOM     34  C   UNL     1      -4.656  13.032  22.759  0.00  0.00    +0.000 A 
ATOM     35  C   UNL     1      -3.430  12.450  22.469  0.00  0.00    +0.000 A 
ENDBRANCH  29  30
ENDBRANCH  26  29
ENDBRANCH   6  23
TORSDOF 6
ENDMDL
MODEL 5
REMARK VINA RESULT:      -7.7      2.323      2.988
REMARK  Name = 
REMARK  9 active torsions:
REMARK  status: ('A' for Active; 'I' for Inactive)
REMARK    1  A    between atoms: C_1  and  C_2
REMARK    2  A    between atoms: C_2  and  C_3
REMARK    3  A    between atoms: C_2  and  C_4
REMARK    4  A    between atoms: C_2  and  O_5
REMARK    5  A    between atoms: O_5  and  C_6
REMARK    6  A    between atoms: C_11  and  C_12
REMARK    7  A    between atoms: C_17  and  N_18
REMARK    8  A    between atoms: N_21  and  C_22
REMARK    9  A    between atoms: C_22  and  C_23
REMARK                            x       y       z     vdW  Elec       q    Type
REMARK                         _______ _______ _______ _____ _____    ______ ____
ROOT
ATOM      1  C   UNL     1      -0.884  11.502  20.146  0.00  0.00    +0.000 A 
ATOM      2  N   UNL     1      -0.305  11.488  18.908  0.00  0.00    +0.000 NA
ATOM      3  C   UNL     1       0.454  10.424  18.946  0.00  0.00    +0.000 A 
ATOM      4  C   UNL     1       1.328   9.860  17.987  0.00  0.00    +0.000 A 
ATOM      5  C   UNL     1       2.015   8.746  18.299  0.00  0.00    +0.000 A 
ATOM      6  C   UNL     1       1.901   8.082  19.598  0.00  0.00    +0.000 A 
ATOM      7  C   UNL     1       1.055   8.625  20.497  0.00  0.00    +0.000 A 
ATOM      8  N   UNL     1       0.338   9.784  20.177  0.00  0.00    +0.000 N 
ATOM      9  N   UNL     1      -0.539  10.483  20.947  0.00  0.00    +0.000 NA
ENDROOT
BRANCH   1  15
ATOM     10  C   UNL     1      -0.400  15.562  23.093  0.00  0.00    +0.000 C 
ATOM     11  O   UNL     1      -0.105  16.635  22.580  0.00  0.00    +0.000 OA
ATOM     12  N   UNL     1      -0.490  14.395  22.360  0.00  0.00    +0.000 N 
ATOM     13  C   UNL     1      -0.145  14.427  20.944  0.00  0.00    +0.000 C 
ATOM     14  C   UNL     1      -1.336  13.984  20.100  0.00  0.00    +0.000 C 
ATOM     15  C   UNL     1      -1.839  12.594  20.540  0.00  0.00    +0.000 C 
ATOM     16  C   UNL     1      -2.153  12.621  22.048  0.00  0.00    +0.000 C 
ATOM     17  C   UNL     1      -0.964  13.115  22.876  0.00  0.00    +0.000 C 
BRANCH  10  18
ATOM     18  O   UNL     1      -0.668  15.400  24.421  0.00  0.00    +0.000 OA
BRANCH  18  20
ATOM     19  C   UNL     1      -1.662  17.211  25.754  0.00  0.00    +0.000 C 
ATOM     20  C   UNL     1      -1.918  15.930  24.947  0.00  0.00    +0.000 C 
ATOM     21  C   UNL     1      -2.683  14.865  25.749  0.00  0.00    +0.000 C 
ATOM     22  C   UNL     1      -2.785  16.311  23.734  0.00  0.00    +0.000 C 
ENDBRANCH  18  20
ENDBRANCH  10  18
ENDBRANCH   1  15
BRANCH   6  23
ATOM     23  N   UNL     1       2.631   6.944  19.905  0.00  0.00    +0.000 N 
ATOM     24  C   UNL     1       2.963   5.914  19.049  0.00  0.00    +0.000 C 
ATOM     25  O   UNL     1       2.680   5.851  17.855  0.00  0.00    +0.000 OA
ATOM     26  N   UNL     1       3.700   4.923  19.649  0.00  0.00    +0.000 N 
ATOM     27  H   UNL     1       3.008   6.881  20.838  0.00  0.00    +0.000 HD
ATOM     28  H   UNL     1       3.732   4.855  20.653  0.00  0.00    +0.000 HD
BRANCH  26  29
ATOM     29  C   UNL     1       4.082   3.757  18.874  0.00  0.00    +0.000 C 
BRANCH  29  30
ATOM     30  C   UNL     1       5.225   4.044  17.935  0.00  0.00    +0.000 A 
ATOM     31  C   UNL     1       6.411   4.625  18.402  0.00  0.00    +0.000 A 
ATOM     32  C   UNL     1       7.436   4.868  17.502  0.00  0.00    +0.000 A 
ATOM     33  N   UNL     1       7.361   4.581  16.186  0.00  0.00    +0.000 NA
ATOM     34  C   UNL     1       6.209   4.028  15.752  0.00  0.00    +0.000 A 
ATOM     35  C   UNL     1       5.127   3.749  16.574  0.00  0.00    +0.000 A 
ENDBRANCH  29  30
ENDBRANCH  26  29
ENDBRANCH   6  23
TORSDOF 6
ENDMDL
MODEL 6
REMARK VINA RESULT:      -7.7      4.271     12.252
REMARK  Name = 
REMARK  9 active torsions:
REMARK  status: ('A' for Active; 'I' for Inactive)
REMARK    1  A    between atoms: C_1  and  C_2
REMARK    2  A    between atoms: C_2  and  C_3
REMARK    3  A    between atoms: C_2  and  C_4
REMARK    4  A    between atoms: C_2  and  O_5
REMARK    5  A    between atoms: O_5  and  C_6
REMARK    6  A    between atoms: C_11  and  C_12
REMARK    7  A    between atoms: C_17  and  N_18
REMARK    8  A    between atoms: N_21  and  C_22
REMARK    9  A    between atoms: C_22  and  C_23
REMARK                            x       y       z     vdW  Elec       q    Type
REMARK                         _______ _______ _______ _____ _____    ______ ____
ROOT
ATOM      1  C   UNL     1       4.070   5.896  18.595  0.00  0.00    +0.000 A 
ATOM      2  N   UNL     1       3.249   5.931  19.688  0.00  0.00    +0.000 NA
ATOM      3  C   UNL     1       2.567   7.033  19.512  0.00  0.00    +0.000 A 
ATOM      4  C   UNL     1       1.564   7.650  20.297  0.00  0.00    +0.000 A 
ATOM      5  C   UNL     1       1.029   8.813  19.883  0.00  0.00    +0.000 A 
ATOM      6  C   UNL     1       1.438   9.478  18.644  0.00  0.00    +0.000 A 
ATOM      7  C   UNL     1       2.386   8.870  17.902  0.00  0.00    +0.000 A 
ATOM      8  N   UNL     1       2.946   7.661  18.329  0.00  0.00    +0.000 N 
ATOM      9  N   UNL     1       3.914   6.913  17.734  0.00  0.00    +0.000 NA
ENDROOT
BRANCH   1  15
ATOM     10  C   UNL     1       6.669   4.279  14.591  0.00  0.00    +0.000 C 
ATOM     11  O   UNL     1       7.807   4.697  14.415  0.00  0.00    +0.000 OA
ATOM     12  N   UNL     1       5.874   4.723  15.630  0.00  0.00    +0.000 N 
ATOM     13  C   UNL     1       6.377   5.780  16.498  0.00  0.00    +0.000 C 
ATOM     14  C   UNL     1       6.432   5.296  17.943  0.00  0.00    +0.000 C 
ATOM     15  C   UNL     1       5.055   4.777  18.406  0.00  0.00    +0.000 C 
ATOM     16  C   UNL     1       4.569   3.689  17.429  0.00  0.00    +0.000 C 
ATOM     17  C   UNL     1       4.567   4.176  15.978  0.00  0.00    +0.000 C 
BRANCH  10  18
ATOM     18  O   UNL     1       6.068   3.346  13.797  0.00  0.00    +0.000 OA
BRANCH  18  20
ATOM     19  C   UNL     1       6.739   2.166  11.748  0.00  0.00    +0.000 C 
ATOM     20  C   UNL     1       6.206   3.472  12.353  0.00  0.00    +0.000 C 
ATOM     21  C   UNL     1       7.060   4.693  11.977  0.00  0.00    +0.000 C 
ATOM     22  C   UNL     1       4.792   3.701  11.789  0.00  0.00    +0.000 C 
ENDBRANCH  18  20
ENDBRANCH  10  18
ENDBRANCH   1  15
BRANCH   6  23
ATOM     23  N   UNL     1       0.886  10.684  18.244  0.00  0.00    +0.000 N 
ATOM     24  C   UNL     1       0.761  11.833  18.999  0.00  0.00    +0.000 C 
ATOM     25  O   UNL     1       1.148  11.978  20.157  0.00  0.00    +0.000 OA
ATOM     26  N   UNL     1       0.172  12.870  18.320  0.00  0.00    +0.000 N 
ATOM     27  H   UNL     1       0.589  10.754  17.283  0.00  0.00    +0.000 HD
ATOM     28  H   UNL     1      -0.346  12.691  17.475  0.00  0.00    +0.000 HD
BRANCH  26  29
ATOM     29  C   UNL     1      -0.059  14.127  19.008  0.00  0.00    +0.000 C 
BRANCH  29  30
ATOM     30  C   UNL     1       0.953  15.178  18.634  0.00  0.00    +0.000 A 
ATOM     31  C   UNL     1       0.585  16.525  18.530  0.00  0.00    +0.000 A 
ATOM     32  C   UNL     1       1.552  17.457  18.186  0.00  0.00    +0.000 A 
ATOM     33  N   UNL     1       2.840  17.144  17.938  0.00  0.00    +0.000 NA
ATOM     34  C   UNL     1       3.175  15.840  18.037  0.00  0.00    +0.000 A 
ATOM     35  C   UNL     1       2.280  14.834  18.372  0.00  0.00    +0.000 A 
ENDBRANCH  29  30
ENDBRANCH  26  29
ENDBRANCH   6  23
TORSDOF 6
ENDMDL
MODEL 7
REMARK VINA RESULT:      -7.6      2.730     12.241
REMARK  Name = 
REMARK  9 active torsions:
REMARK  status: ('A' for Active; 'I' for Inactive)
REMARK    1  A    between atoms: C_1  and  C_2
REMARK    2  A    between atoms: C_2  and  C_3
REMARK    3  A    between atoms: C_2  and  C_4
REMARK    4  A    between atoms: C_2  and  O_5
REMARK    5  A    between atoms: O_5  and  C_6
REMARK    6  A    between atoms: C_11  and  C_12
REMARK    7  A    between atoms: C_17  and  N_18
REMARK    8  A    between atoms: N_21  and  C_22
REMARK    9  A    between atoms: C_22  and  C_23
REMARK                            x       y       z     vdW  Elec       q    Type
REMARK                         _______ _______ _______ _____ _____    ______ ____
ROOT
ATOM      1  C   UNL     1       3.105   6.068  19.275  0.00  0.00    +0.000 A 
ATOM      2  N   UNL     1       2.959   6.803  18.132  0.00  0.00    +0.000 NA
ATOM      3  C   UNL     1       2.236   7.820  18.522  0.00  0.00    +0.000 A 
ATOM      4  C   UNL     1       1.725   8.934  17.815  0.00  0.00    +0.000 A 
ATOM      5  C   UNL     1       0.982   9.844  18.471  0.00  0.00    +0.000 A 
ATOM      6  C   UNL     1       0.673   9.735  19.898  0.00  0.00    +0.000 A 
ATOM      7  C   UNL     1       1.177   8.675  20.560  0.00  0.00    +0.000 A 
ATOM      8  N   UNL     1       1.950   7.725  19.882  0.00  0.00    +0.000 N 
ATOM      9  N   UNL     1       2.526   6.591  20.365  0.00  0.00    +0.000 NA
ENDROOT
BRANCH   1  15
ATOM     10  C   UNL     1       6.796   4.306  16.332  0.00  0.00    +0.000 C 
ATOM     11  O   UNL     1       7.960   4.463  16.682  0.00  0.00    +0.000 OA
ATOM     12  N   UNL     1       5.734   4.814  17.054  0.00  0.00    +0.000 N 
ATOM     13  C   UNL     1       6.011   5.632  18.228  0.00  0.00    +0.000 C 
ATOM     14  C   UNL     1       5.384   5.005  19.469  0.00  0.00    +0.000 C 
ATOM     15  C   UNL     1       3.873   4.776  19.269  0.00  0.00    +0.000 C 
ATOM     16  C   UNL     1       3.650   3.935  17.997  0.00  0.00    +0.000 C 
ATOM     17  C   UNL     1       4.327   4.553  16.771  0.00  0.00    +0.000 C 
BRANCH  10  18
ATOM     18  O   UNL     1       6.424   3.624  15.210  0.00  0.00    +0.000 OA
BRANCH  18  20
ATOM     19  C   UNL     1       5.452   5.623  14.161  0.00  0.00    +0.000 C 
ATOM     20  C   UNL     1       6.301   4.359  13.960  0.00  0.00    +0.000 C 
ATOM     21  C   UNL     1       5.769   3.460  12.833  0.00  0.00    +0.000 C 
ATOM     22  C   UNL     1       7.719   4.810  13.566  0.00  0.00    +0.000 C 
ENDBRANCH  18  20
ENDBRANCH  10  18
ENDBRANCH   1  15
BRANCH   6  23
ATOM     23  N   UNL     1      -0.109  10.676  20.551  0.00  0.00    +0.000 N 
ATOM     24  C   UNL     1       0.320  11.844  21.146  0.00  0.00    +0.000 C 
ATOM     25  O   UNL     1       1.478  12.256  21.171  0.00  0.00    +0.000 OA
ATOM     26  N   UNL     1      -0.697  12.574  21.711  0.00  0.00    +0.000 N 
ATOM     27  H   UNL     1      -1.105  10.522  20.549  0.00  0.00    +0.000 HD
ATOM     28  H   UNL     1      -1.587  12.140  21.895  0.00  0.00    +0.000 HD
BRANCH  26  29
ATOM     29  C   UNL     1      -0.382  13.807  22.408  0.00  0.00    +0.000 C 
BRANCH  29  30
ATOM     30  C   UNL     1      -1.394  14.134  23.475  0.00  0.00    +0.000 A 
ATOM     31  C   UNL     1      -1.112  15.082  24.467  0.00  0.00    +0.000 A 
ATOM     32  C   UNL     1      -2.075  15.352  25.426  0.00  0.00    +0.000 A 
ATOM     33  N   UNL     1      -3.281  14.748  25.468  0.00  0.00    +0.000 NA
ATOM     34  C   UNL     1      -3.533  13.833  24.509  0.00  0.00    +0.000 A 
ATOM     35  C   UNL     1      -2.633  13.492  23.509  0.00  0.00    +0.000 A 
ENDBRANCH  29  30
ENDBRANCH  26  29
ENDBRANCH   6  23
TORSDOF 6
ENDMDL
MODEL 8
REMARK VINA RESULT:      -7.6      1.061      1.381
REMARK  Name = 
REMARK  9 active torsions:
REMARK  status: ('A' for Active; 'I' for Inactive)
REMARK    1  A    between atoms: C_1  and  C_2
REMARK    2  A    between atoms: C_2  and  C_3
REMARK    3  A    between atoms: C_2  and  C_4
REMARK    4  A    between atoms: C_2  and  O_5
REMARK    5  A    between atoms: O_5  and  C_6
REMARK    6  A    between atoms: C_11  and  C_12
REMARK    7  A    between atoms: C_17  and  N_18
REMARK    8  A    between atoms: N_21  and  C_22
REMARK    9  A    between atoms: C_22  and  C_23
REMARK                            x       y       z     vdW  Elec       q    Type
REMARK                         _______ _______ _______ _____ _____    ______ ____
ROOT
ATOM      1  C   UNL     1      -0.236  12.686  20.558  0.00  0.00    +0.000 A 
ATOM      2  N   UNL     1       0.789  13.090  19.748  0.00  0.00    +0.000 NA
ATOM      3  C   UNL     1       1.172  11.977  19.177  0.00  0.00    +0.000 A 
ATOM      4  C   UNL     1       2.200  11.709  18.242  0.00  0.00    +0.000 A 
ATOM      5  C   UNL     1       2.392  10.445  17.822  0.00  0.00    +0.000 A 
ATOM      6  C   UNL     1       1.579   9.322  18.290  0.00  0.00    +0.000 A 
ATOM      7  C   UNL     1       0.596   9.596  19.171  0.00  0.00    +0.000 A 
ATOM      8  N   UNL     1       0.392  10.909  19.612  0.00  0.00    +0.000 N 
ATOM      9  N   UNL     1      -0.525  11.378  20.500  0.00  0.00    +0.000 NA
ENDROOT
BRANCH   1  15
ATOM     10  C   UNL     1      -4.432  12.338  23.328  0.00  0.00    +0.000 C 
ATOM     11  O   UNL     1      -4.336  12.056  24.517  0.00  0.00    +0.000 OA
ATOM     12  N   UNL     1      -3.333  12.390  22.492  0.00  0.00    +0.000 N 
ATOM     13  C   UNL     1      -2.028  12.022  23.025  0.00  0.00    +0.000 C 
ATOM     14  C   UNL     1      -1.054  13.189  22.891  0.00  0.00    +0.000 C 
ATOM     15  C   UNL     1      -0.966  13.670  21.428  0.00  0.00    +0.000 C 
ATOM     16  C   UNL     1      -2.380  14.010  20.919  0.00  0.00    +0.000 C 
ATOM     17  C   UNL     1      -3.356  12.846  21.107  0.00  0.00    +0.000 C 
BRANCH  10  18
ATOM     18  O   UNL     1      -5.612  12.625  22.706  0.00  0.00    +0.000 OA
BRANCH  18  20
ATOM     19  C   UNL     1      -6.918  14.463  21.730  0.00  0.00    +0.000 C 
ATOM     20  C   UNL     1      -6.257  13.897  22.995  0.00  0.00    +0.000 C 
ATOM     21  C   UNL     1      -5.278  14.885  23.647  0.00  0.00    +0.000 C 
ATOM     22  C   UNL     1      -7.375  13.608  24.012  0.00  0.00    +0.000 C 
ENDBRANCH  18  20
ENDBRANCH  10  18
ENDBRANCH   1  15
BRANCH   6  23
ATOM     23  N   UNL     1       1.805   8.024  17.857  0.00  0.00    +0.000 N 
ATOM     24  C   UNL     1       2.552   7.054  18.493  0.00  0.00    +0.000 C 
ATOM     25  O   UNL     1       3.125   7.180  19.573  0.00  0.00    +0.000 OA
ATOM     26  N   UNL     1       2.586   5.861  17.815  0.00  0.00    +0.000 N 
ATOM     27  H   UNL     1       1.333   7.736  17.015  0.00  0.00    +0.000 HD
ATOM     28  H   UNL     1       2.323   5.825  16.844  0.00  0.00    +0.000 HD
BRANCH  26  29
ATOM     29  C   UNL     1       3.371   4.764  18.350  0.00  0.00    +0.000 C 
BRANCH  29  30
ATOM     30  C   UNL     1       4.756   4.711  17.759  0.00  0.00    +0.000 A 
ATOM     31  C   UNL     1       4.947   4.449  16.397  0.00  0.00    +0.000 A 
ATOM     32  C   UNL     1       6.239   4.414  15.898  0.00  0.00    +0.000 A 
ATOM     33  N   UNL     1       7.340   4.614  16.652  0.00  0.00    +0.000 NA
ATOM     34  C   UNL     1       7.137   4.858  17.964  0.00  0.00    +0.000 A 
ATOM     35  C   UNL     1       5.884   4.911  18.557  0.00  0.00    +0.000 A 
ENDBRANCH  29  30
ENDBRANCH  26  29
ENDBRANCH   6  23
TORSDOF 6
ENDMDL
MODEL 9
REMARK VINA RESULT:      -7.5      1.116      1.511
REMARK  Name = 
REMARK  9 active torsions:
REMARK  status: ('A' for Active; 'I' for Inactive)
REMARK    1  A    between atoms: C_1  and  C_2
REMARK    2  A    between atoms: C_2  and  C_3
REMARK    3  A    between atoms: C_2  and  C_4
REMARK    4  A    between atoms: C_2  and  O_5
REMARK    5  A    between atoms: O_5  and  C_6
REMARK    6  A    between atoms: C_11  and  C_12
REMARK    7  A    between atoms: C_17  and  N_18
REMARK    8  A    between atoms: N_21  and  C_22
REMARK    9  A    between atoms: C_22  and  C_23
REMARK                            x       y       z     vdW  Elec       q    Type
REMARK                         _______ _______ _______ _____ _____    ______ ____
ROOT
ATOM      1  C   UNL     1       0.056  12.340  20.858  0.00  0.00    +0.000 A 
ATOM      2  N   UNL     1       0.252  11.427  21.857  0.00  0.00    +0.000 NA
ATOM      3  C   UNL     1       0.721  10.385  21.220  0.00  0.00    +0.000 A 
ATOM      4  C   UNL     1       1.111   9.104  21.676  0.00  0.00    +0.000 A 
ATOM      5  C   UNL     1       1.553   8.196  20.787  0.00  0.00    +0.000 A 
ATOM      6  C   UNL     1       1.653   8.474  19.354  0.00  0.00    +0.000 A 
ATOM      7  C   UNL     1       1.290   9.704  18.936  0.00  0.00    +0.000 A 
ATOM      8  N   UNL     1       0.828  10.652  19.858  0.00  0.00    +0.000 N 
ATOM      9  N   UNL     1       0.404  11.924  19.632  0.00  0.00    +0.000 NA
ENDROOT
BRANCH   1  15
ATOM     10  C   UNL     1      -3.901  13.884  23.571  0.00  0.00    +0.000 C 
ATOM     11  O   UNL     1      -3.729  14.203  24.742  0.00  0.00    +0.000 OA
ATOM     12  N   UNL     1      -2.878  13.393  22.783  0.00  0.00    +0.000 N 
ATOM     13  C   UNL     1      -1.570  13.173  23.388  0.00  0.00    +0.000 C 
ATOM     14  C   UNL     1      -0.510  14.002  22.670  0.00  0.00    +0.000 C 
ATOM     15  C   UNL     1      -0.503  13.702  21.157  0.00  0.00    +0.000 C 
ATOM     16  C   UNL     1      -1.919  13.923  20.590  0.00  0.00    +0.000 C 
ATOM     17  C   UNL     1      -2.977  13.122  21.353  0.00  0.00    +0.000 C 
BRANCH  10  18
ATOM     18  O   UNL     1      -5.099  13.976  22.924  0.00  0.00    +0.000 OA
BRANCH  18  20
ATOM     19  C   UNL     1      -4.511  16.325  22.509  0.00  0.00    +0.000 C 
ATOM     20  C   UNL     1      -5.643  15.298  22.655  0.00  0.00    +0.000 C 
ATOM     21  C   UNL     1      -6.680  15.703  23.714  0.00  0.00    +0.000 C 
ATOM     22  C   UNL     1      -6.370  15.214  21.301  0.00  0.00    +0.000 C 
ENDBRANCH  18  20
ENDBRANCH  10  18
ENDBRANCH   1  15
BRANCH   6  23
ATOM     23  N   UNL     1       2.096   7.519  18.452  0.00  0.00    +0.000 N 
ATOM     24  C   UNL     1       2.732   6.331  18.746  0.00  0.00    +0.000 C 
ATOM     25  O   UNL     1       2.990   5.912  19.872  0.00  0.00    +0.000 OA
ATOM     26  N   UNL     1       3.045   5.590  17.633  0.00  0.00    +0.000 N 
ATOM     27  H   UNL     1       1.887   7.678  17.479  0.00  0.00    +0.000 HD
ATOM     28  H   UNL     1       3.050   6.023  16.724  0.00  0.00    +0.000 HD
BRANCH  26  29
ATOM     29  C   UNL     1       3.755   4.335  17.794  0.00  0.00    +0.000 C 
BRANCH  29  30
ATOM     30  C   UNL     1       5.164   4.403  17.263  0.00  0.00    +0.000 A 
ATOM     31  C   UNL     1       5.425   4.247  15.896  0.00  0.00    +0.000 A 
ATOM     32  C   UNL     1       6.737   4.320  15.454  0.00  0.00    +0.000 A 
ATOM     33  N   UNL     1       7.792   4.532  16.268  0.00  0.00    +0.000 NA
ATOM     34  C   UNL     1       7.521   4.675  17.583  0.00  0.00    +0.000 A 
ATOM     35  C   UNL     1       6.244   4.614  18.122  0.00  0.00    +0.000 A 
ENDBRANCH  29  30
ENDBRANCH  26  29
ENDBRANCH   6  23
TORSDOF 6
ENDMDL
