MODEL 1
REMARK VINA RESULT:      -8.9      0.000      0.000
REMARK  Name = 
REMARK  7 active torsions:
REMARK  status: ('A' for Active; 'I' for Inactive)
REMARK    1  A    between atoms: C_1  and  C_2
REMARK    2  A    between atoms: C_5  and  C_6
REMARK    3  A    between atoms: N_8  and  C_9
REMARK    4  A    between atoms: C_11  and  C_12
REMARK    5  A    between atoms: C_12  and  O_13
REMARK    6  A    between atoms: C_15  and  O_16
REMARK    7  A    between atoms: C_25  and  C_26
REMARK                            x       y       z     vdW  Elec       q    Type
REMARK                         _______ _______ _______ _____ _____    ______ ____
ROOT
ATOM      1  C   UNL     1       2.895   6.113  18.826  0.00  0.00    +0.000 A 
ATOM      2  C   UNL     1       4.142   6.147  18.224  0.00  0.00    +0.000 A 
ATOM      3  N   UNL     1       4.605   4.869  18.064  0.00  0.00    +0.000 N 
ATOM      4  C   UNL     1       3.714   4.000  18.642  0.00  0.00    +0.000 A 
ATOM      5  N   UNL     1       3.888   2.669  18.729  0.00  0.00    +0.000 NA
ATOM      6  C   UNL     1       2.853   2.073  19.346  0.00  0.00    +0.000 A 
ATOM      7  N   UNL     1       1.735   2.644  19.825  0.00  0.00    +0.000 NA
ATOM      8  C   UNL     1       1.593   3.978  19.708  0.00  0.00    +0.000 A 
ATOM      9  N   UNL     1       0.402   4.502  20.201  0.00  0.00    +0.000 N 
ATOM     10  C   UNL     1       2.619   4.732  19.110  0.00  0.00    +0.000 A 
ATOM     11  H   UNL     1      -0.265   3.756  20.371  0.00  0.00    +0.000 HD
ATOM     12  H   UNL     1       0.053   5.289  19.669  0.00  0.00    +0.000 HD
ENDROOT
BRANCH   1  17
ATOM     13  C   UNL     1       0.002  11.008  19.939  0.00  0.00    +0.000 C 
ATOM     14  C   UNL     1       0.742   9.725  19.678  0.00  0.00    +0.000 A 
ATOM     15  C   UNL     1       1.151   9.424  18.373  0.00  0.00    +0.000 A 
ATOM     16  C   UNL     1       1.818   8.230  18.087  0.00  0.00    +0.000 A 
ATOM     17  C   UNL     1       2.162   7.344  19.107  0.00  0.00    +0.000 A 
ATOM     18  C   UNL     1       1.747   7.645  20.415  0.00  0.00    +0.000 A 
ATOM     19  C   UNL     1       1.008   8.805  20.707  0.00  0.00    +0.000 A 
ATOM     20  C   UNL     1       0.492   9.014  22.105  0.00  0.00    +0.000 C 
ENDBRANCH   1  17
BRANCH   3  21
ATOM     21  C   UNL     1       5.887   4.481  17.481  0.00  0.00    +0.000 C 
ATOM     22  O   UNL     1       6.890   4.387  18.537  0.00  0.00    +0.000 OA
ATOM     23  C   UNL     1       7.919   5.367  18.291  0.00  0.00    +0.000 C 
ATOM     24  C   UNL     1       7.351   6.352  17.285  0.00  0.00    +0.000 C 
ATOM     25  C   UNL     1       6.452   5.467  16.449  0.00  0.00    +0.000 C 
BRANCH  25  26
ATOM     26  O   UNL     1       7.255   4.805  15.458  0.00  0.00    +0.000 OA
ATOM     27  H   UNL     1       7.315   5.368  14.667  0.00  0.00    +0.000 HD
ENDBRANCH  25  26
BRANCH  23  28
ATOM     28  C   UNL     1       8.407   6.007  19.593  0.00  0.00    +0.000 C 
BRANCH  28  29
ATOM     29  O   UNL     1       8.173   5.173  20.724  0.00  0.00    +0.000 OA
ATOM     30  H   UNL     1       7.938   4.297  20.372  0.00  0.00    +0.000 HD
ENDBRANCH  28  29
ENDBRANCH  23  28
ENDBRANCH   3  21
TORSDOF 5
ENDMDL
MODEL 2
REMARK VINA RESULT:      -8.8      0.567      1.345
REMARK  Name = 
REMARK  7 active torsions:
REMARK  status: ('A' for Active; 'I' for Inactive)
REMARK    1  A    between atoms: C_1  and  C_2
REMARK    2  A    between atoms: C_5  and  C_6
REMARK    3  A    between atoms: N_8  and  C_9
REMARK    4  A    between atoms: C_11  and  C_12
REMARK    5  A    between atoms: C_12  and  O_13
REMARK    6  A    between atoms: C_15  and  O_16
REMARK    7  A    between atoms: C_25  and  C_26
REMARK                            x       y       z     vdW  Elec       q    Type
REMARK                         _______ _______ _______ _____ _____    ______ ____
ROOT
ATOM      1  C   UNL     1       2.839   5.829  19.050  0.00  0.00    +0.000 A 
ATOM      2  C   UNL     1       4.071   5.947  18.430  0.00  0.00    +0.000 A 
ATOM      3  N   UNL     1       4.511   4.707  18.052  0.00  0.00    +0.000 N 
ATOM      4  C   UNL     1       3.622   3.765  18.504  0.00  0.00    +0.000 A 
ATOM      5  N   UNL     1       3.778   2.436  18.368  0.00  0.00    +0.000 NA
ATOM      6  C   UNL     1       2.749   1.759  18.907  0.00  0.00    +0.000 A 
ATOM      7  N   UNL     1       1.652   2.256  19.502  0.00  0.00    +0.000 NA
ATOM      8  C   UNL     1       1.526   3.592  19.607  0.00  0.00    +0.000 A 
ATOM      9  N   UNL     1       0.356   4.041  20.209  0.00  0.00    +0.000 N 
ATOM     10  C   UNL     1       2.549   4.422  19.113  0.00  0.00    +0.000 A 
ATOM     11  H   UNL     1      -0.317   3.285  20.273  0.00  0.00    +0.000 HD
ATOM     12  H   UNL     1       0.005   4.908  19.821  0.00  0.00    +0.000 HD
ENDROOT
BRANCH   1  17
ATOM     13  C   UNL     1       0.011  10.487  21.018  0.00  0.00    +0.000 C 
ATOM     14  C   UNL     1       0.759   9.296  20.485  0.00  0.00    +0.000 A 
ATOM     15  C   UNL     1       0.926   8.171  21.301  0.00  0.00    +0.000 A 
ATOM     16  C   UNL     1       1.636   7.056  20.849  0.00  0.00    +0.000 A 
ATOM     17  C   UNL     1       2.131   7.005  19.546  0.00  0.00    +0.000 A 
ATOM     18  C   UNL     1       1.968   8.137  18.731  0.00  0.00    +0.000 A 
ATOM     19  C   UNL     1       1.323   9.296  19.196  0.00  0.00    +0.000 A 
ATOM     20  C   UNL     1       1.280  10.517  18.317  0.00  0.00    +0.000 C 
ENDBRANCH   1  17
BRANCH   3  21
ATOM     21  C   UNL     1       5.773   4.406  17.379  0.00  0.00    +0.000 C 
ATOM     22  O   UNL     1       6.849   4.370  18.366  0.00  0.00    +0.000 OA
ATOM     23  C   UNL     1       7.795   5.415  18.062  0.00  0.00    +0.000 C 
ATOM     24  C   UNL     1       7.098   6.369  17.106  0.00  0.00    +0.000 C 
ATOM     25  C   UNL     1       6.204   5.433  16.323  0.00  0.00    +0.000 C 
BRANCH  25  26
ATOM     26  O   UNL     1       6.979   4.829  15.273  0.00  0.00    +0.000 OA
ATOM     27  H   UNL     1       7.874   4.643  15.605  0.00  0.00    +0.000 HD
ENDBRANCH  25  26
BRANCH  23  28
ATOM     28  C   UNL     1       8.328   6.077  19.335  0.00  0.00    +0.000 C 
BRANCH  28  29
ATOM     29  O   UNL     1       7.906   5.396  20.513  0.00  0.00    +0.000 OA
ATOM     30  H   UNL     1       8.181   5.952  21.262  0.00  0.00    +0.000 HD
ENDBRANCH  28  29
ENDBRANCH  23  28
ENDBRANCH   3  21
TORSDOF 5
ENDMDL
MODEL 3
REMARK VINA RESULT:      -8.6      1.263      1.342
REMARK  Name = 
REMARK  7 active torsions:
REMARK  status: ('A' for Active; 'I' for Inactive)
REMARK    1  A    between atoms: C_1  and  C_2
REMARK    2  A    between atoms: C_5  and  C_6
REMARK    3  A    between atoms: N_8  and  C_9
REMARK    4  A    between atoms: C_11  and  C_12
REMARK    5  A    between atoms: C_12  and  O_13
REMARK    6  A    between atoms: C_15  and  O_16
REMARK    7  A    between atoms: C_25  and  C_26
REMARK                            x       y       z     vdW  Elec       q    Type
REMARK                         _______ _______ _______ _____ _____    ______ ____
ROOT
ATOM      1  C   UNL     1       3.190   6.291  19.353  0.00  0.00    +0.000 A 
ATOM      2  C   UNL     1       4.500   6.479  18.946  0.00  0.00    +0.000 A 
ATOM      3  N   UNL     1       5.150   5.274  18.934  0.00  0.00    +0.000 N 
ATOM      4  C   UNL     1       4.304   4.309  19.421  0.00  0.00    +0.000 A 
ATOM      5  N   UNL     1       4.639   3.021  19.612  0.00  0.00    +0.000 NA
ATOM      6  C   UNL     1       3.609   2.308  20.099  0.00  0.00    +0.000 A 
ATOM      7  N   UNL     1       2.363   2.732  20.367  0.00  0.00    +0.000 NA
ATOM      8  C   UNL     1       2.063   4.026  20.151  0.00  0.00    +0.000 A 
ATOM      9  N   UNL     1       0.749   4.394  20.426  0.00  0.00    +0.000 N 
ATOM     10  C   UNL     1       3.060   4.895  19.673  0.00  0.00    +0.000 A 
ATOM     11  H   UNL     1       0.171   3.568  20.536  0.00  0.00    +0.000 HD
ATOM     12  H   UNL     1       0.386   5.103  19.801  0.00  0.00    +0.000 HD
ENDROOT
BRANCH   1  17
ATOM     13  C   UNL     1      -0.475  10.763  19.722  0.00  0.00    +0.000 C 
ATOM     14  C   UNL     1       0.463   9.589  19.652  0.00  0.00    +0.000 A 
ATOM     15  C   UNL     1       1.111   9.301  18.445  0.00  0.00    +0.000 A 
ATOM     16  C   UNL     1       1.970   8.204  18.335  0.00  0.00    +0.000 A 
ATOM     17  C   UNL     1       2.263   7.414  19.445  0.00  0.00    +0.000 A 
ATOM     18  C   UNL     1       1.607   7.701  20.655  0.00  0.00    +0.000 A 
ATOM     19  C   UNL     1       0.681   8.754  20.762  0.00  0.00    +0.000 A 
ATOM     20  C   UNL     1      -0.074   8.939  22.050  0.00  0.00    +0.000 C 
ENDBRANCH   1  17
BRANCH   3  21
ATOM     21  C   UNL     1       6.549   5.051  18.576  0.00  0.00    +0.000 C 
ATOM     22  O   UNL     1       7.342   6.207  18.984  0.00  0.00    +0.000 OA
ATOM     23  C   UNL     1       7.914   6.818  17.809  0.00  0.00    +0.000 C 
ATOM     24  C   UNL     1       7.147   6.270  16.617  0.00  0.00    +0.000 C 
ATOM     25  C   UNL     1       6.811   4.868  17.075  0.00  0.00    +0.000 C 
BRANCH  25  26
ATOM     26  O   UNL     1       7.946   4.021  16.828  0.00  0.00    +0.000 OA
ATOM     27  H   UNL     1       8.732   4.576  16.683  0.00  0.00    +0.000 HD
ENDBRANCH  25  26
BRANCH  23  28
ATOM     28  C   UNL     1       7.911   8.345  17.913  0.00  0.00    +0.000 C 
BRANCH  28  29
ATOM     29  O   UNL     1       8.780   8.817  18.937  0.00  0.00    +0.000 OA
ATOM     30  H   UNL     1       8.246   8.863  19.749  0.00  0.00    +0.000 HD
ENDBRANCH  28  29
ENDBRANCH  23  28
ENDBRANCH   3  21
TORSDOF 5
ENDMDL
MODEL 4
REMARK VINA RESULT:      -8.4      1.303      1.876
REMARK  Name = 
REMARK  7 active torsions:
REMARK  status: ('A' for Active; 'I' for Inactive)
REMARK    1  A    between atoms: C_1  and  C_2
REMARK    2  A    between atoms: C_5  and  C_6
REMARK    3  A    between atoms: N_8  and  C_9
REMARK    4  A    between atoms: C_11  and  C_12
REMARK    5  A    between atoms: C_12  and  O_13
REMARK    6  A    between atoms: C_15  and  O_16
REMARK    7  A    between atoms: C_25  and  C_26
REMARK                            x       y       z     vdW  Elec       q    Type
REMARK                         _______ _______ _______ _____ _____    ______ ____
ROOT
ATOM      1  C   UNL     1       3.113   6.128  19.524  0.00  0.00    +0.000 A 
ATOM      2  C   UNL     1       4.423   6.368  19.147  0.00  0.00    +0.000 A 
ATOM      3  N   UNL     1       5.061   5.175  18.934  0.00  0.00    +0.000 N 
ATOM      4  C   UNL     1       4.207   4.152  19.261  0.00  0.00    +0.000 A 
ATOM      5  N   UNL     1       4.530   2.847  19.236  0.00  0.00    +0.000 NA
ATOM      6  C   UNL     1       3.494   2.073  19.606  0.00  0.00    +0.000 A 
ATOM      7  N   UNL     1       2.254   2.459  19.947  0.00  0.00    +0.000 NA
ATOM      8  C   UNL     1       1.966   3.774  19.947  0.00  0.00    +0.000 A 
ATOM      9  N   UNL     1       0.657   4.104  20.286  0.00  0.00    +0.000 N 
ATOM     10  C   UNL     1       2.971   4.700  19.612  0.00  0.00    +0.000 A 
ATOM     11  H   UNL     1       0.071   3.277  20.263  0.00  0.00    +0.000 HD
ATOM     12  H   UNL     1       0.299   4.909  19.787  0.00  0.00    +0.000 HD
ENDROOT
BRANCH   1  17
ATOM     13  C   UNL     1      -0.535  10.490  20.634  0.00  0.00    +0.000 C 
ATOM     14  C   UNL     1       0.426   9.375  20.324  0.00  0.00    +0.000 A 
ATOM     15  C   UNL     1       0.623   8.359  21.266  0.00  0.00    +0.000 A 
ATOM     16  C   UNL     1       1.527   7.321  21.023  0.00  0.00    +0.000 A 
ATOM     17  C   UNL     1       2.198   7.230  19.805  0.00  0.00    +0.000 A 
ATOM     18  C   UNL     1       2.003   8.254  18.862  0.00  0.00    +0.000 A 
ATOM     19  C   UNL     1       1.156   9.345  19.122  0.00  0.00    +0.000 A 
ATOM     20  C   UNL     1       1.077  10.468  18.123  0.00  0.00    +0.000 C 
ENDBRANCH   1  17
BRANCH   3  21
ATOM     21  C   UNL     1       6.457   5.001  18.537  0.00  0.00    +0.000 C 
ATOM     22  O   UNL     1       7.207   6.209  18.865  0.00  0.00    +0.000 OA
ATOM     23  C   UNL     1       7.709   6.791  17.644  0.00  0.00    +0.000 C 
ATOM     24  C   UNL     1       6.930   6.155  16.506  0.00  0.00    +0.000 C 
ATOM     25  C   UNL     1       6.676   4.761  17.037  0.00  0.00    +0.000 C 
BRANCH  25  26
ATOM     26  O   UNL     1       7.841   3.957  16.787  0.00  0.00    +0.000 OA
ATOM     27  H   UNL     1       8.479   4.473  16.265  0.00  0.00    +0.000 HD
ENDBRANCH  25  26
BRANCH  23  28
ATOM     28  C   UNL     1       7.637   8.320  17.681  0.00  0.00    +0.000 C 
BRANCH  28  29
ATOM     29  O   UNL     1       8.601   8.883  18.564  0.00  0.00    +0.000 OA
ATOM     30  H   UNL     1       9.437   8.922  18.067  0.00  0.00    +0.000 HD
ENDBRANCH  28  29
ENDBRANCH  23  28
ENDBRANCH   3  21
TORSDOF 5
ENDMDL
MODEL 5
REMARK VINA RESULT:      -8.1      2.543      4.609
REMARK  Name = 
REMARK  7 active torsions:
REMARK  status: ('A' for Active; 'I' for Inactive)
REMARK    1  A    between atoms: C_1  and  C_2
REMARK    2  A    between atoms: C_5  and  C_6
REMARK    3  A    between atoms: N_8  and  C_9
REMARK    4  A    between atoms: C_11  and  C_12
REMARK    5  A    between atoms: C_12  and  O_13
REMARK    6  A    between atoms: C_15  and  O_16
REMARK    7  A    between atoms: C_25  and  C_26
REMARK                            x       y       z     vdW  Elec       q    Type
REMARK                         _______ _______ _______ _____ _____    ______ ____
ROOT
ATOM      1  C   UNL     1       3.492   6.354  17.996  0.00  0.00    +0.000 A 
ATOM      2  C   UNL     1       2.907   5.102  18.083  0.00  0.00    +0.000 A 
ATOM      3  N   UNL     1       3.805   4.151  17.679  0.00  0.00    +0.000 N 
ATOM      4  C   UNL     1       4.944   4.777  17.236  0.00  0.00    +0.000 A 
ATOM      5  N   UNL     1       6.007   4.148  16.704  0.00  0.00    +0.000 NA
ATOM      6  C   UNL     1       6.974   5.016  16.360  0.00  0.00    +0.000 A 
ATOM      7  N   UNL     1       6.982   6.350  16.513  0.00  0.00    +0.000 NA
ATOM      8  C   UNL     1       5.904   6.941  17.062  0.00  0.00    +0.000 A 
ATOM      9  N   UNL     1       5.986   8.322  17.214  0.00  0.00    +0.000 N 
ATOM     10  C   UNL     1       4.801   6.153  17.438  0.00  0.00    +0.000 A 
ATOM     11  H   UNL     1       6.944   8.631  17.087  0.00  0.00    +0.000 HD
ATOM     12  H   UNL     1       5.521   8.667  18.044  0.00  0.00    +0.000 HD
ENDROOT
BRANCH   1  17
ATOM     13  C   UNL     1       0.590  11.133  19.514  0.00  0.00    +0.000 C 
ATOM     14  C   UNL     1       1.328   9.876  19.143  0.00  0.00    +0.000 A 
ATOM     15  C   UNL     1       1.908   9.772  17.873  0.00  0.00    +0.000 A 
ATOM     16  C   UNL     1       2.579   8.610  17.484  0.00  0.00    +0.000 A 
ATOM     17  C   UNL     1       2.756   7.555  18.378  0.00  0.00    +0.000 A 
ATOM     18  C   UNL     1       2.169   7.659  19.650  0.00  0.00    +0.000 A 
ATOM     19  C   UNL     1       1.424   8.789  20.030  0.00  0.00    +0.000 A 
ATOM     20  C   UNL     1       0.724   8.793  21.362  0.00  0.00    +0.000 C 
ENDBRANCH   1  17
BRANCH   3  21
ATOM     21  C   UNL     1       3.568   2.710  17.613  0.00  0.00    +0.000 C 
ATOM     22  O   UNL     1       2.136   2.463  17.478  0.00  0.00    +0.000 OA
ATOM     23  C   UNL     1       1.678   1.733  18.634  0.00  0.00    +0.000 C 
ATOM     24  C   UNL     1       2.760   1.870  19.692  0.00  0.00    +0.000 C 
ATOM     25  C   UNL     1       4.017   1.924  18.852  0.00  0.00    +0.000 C 
BRANCH  25  26
ATOM     26  O   UNL     1       4.406   0.580  18.522  0.00  0.00    +0.000 OA
ATOM     27  H   UNL     1       3.851  -0.044  19.020  0.00  0.00    +0.000 HD
ENDBRANCH  25  26
BRANCH  23  28
ATOM     28  C   UNL     1       0.293   2.206  19.085  0.00  0.00    +0.000 C 
BRANCH  28  29
ATOM     29  O   UNL     1       0.365   3.119  20.175  0.00  0.00    +0.000 OA
ATOM     30  H   UNL     1       0.554   2.586  20.966  0.00  0.00    +0.000 HD
ENDBRANCH  28  29
ENDBRANCH  23  28
ENDBRANCH   3  21
TORSDOF 5
ENDMDL
MODEL 6
REMARK VINA RESULT:      -8.1      1.106      1.367
REMARK  Name = 
REMARK  7 active torsions:
REMARK  status: ('A' for Active; 'I' for Inactive)
REMARK    1  A    between atoms: C_1  and  C_2
REMARK    2  A    between atoms: C_5  and  C_6
REMARK    3  A    between atoms: N_8  and  C_9
REMARK    4  A    between atoms: C_11  and  C_12
REMARK    5  A    between atoms: C_12  and  O_13
REMARK    6  A    between atoms: C_15  and  O_16
REMARK    7  A    between atoms: C_25  and  C_26
REMARK                            x       y       z     vdW  Elec       q    Type
REMARK                         _______ _______ _______ _____ _____    ______ ____
ROOT
ATOM      1  C   UNL     1       2.750   5.905  18.692  0.00  0.00    +0.000 A 
ATOM      2  C   UNL     1       3.916   5.850  17.949  0.00  0.00    +0.000 A 
ATOM      3  N   UNL     1       4.266   4.542  17.748  0.00  0.00    +0.000 N 
ATOM      4  C   UNL     1       3.391   3.739  18.435  0.00  0.00    +0.000 A 
ATOM      5  N   UNL     1       3.480   2.399  18.514  0.00  0.00    +0.000 NA
ATOM      6  C   UNL     1       2.486   1.879  19.254  0.00  0.00    +0.000 A 
ATOM      7  N   UNL     1       1.475   2.528  19.855  0.00  0.00    +0.000 NA
ATOM      8  C   UNL     1       1.413   3.868  19.742  0.00  0.00    +0.000 A 
ATOM      9  N   UNL     1       0.328   4.476  20.366  0.00  0.00    +0.000 N 
ATOM     10  C   UNL     1       2.413   4.547  19.021  0.00  0.00    +0.000 A 
ATOM     11  H   UNL     1      -0.364   3.779  20.620  0.00  0.00    +0.000 HD
ATOM     12  H   UNL     1      -0.025   5.285  19.870  0.00  0.00    +0.000 HD
ENDROOT
BRANCH   1  17
ATOM     13  C   UNL     1       0.357  10.993  20.090  0.00  0.00    +0.000 C 
ATOM     14  C   UNL     1       0.967   9.660  19.755  0.00  0.00    +0.000 A 
ATOM     15  C   UNL     1       1.289   9.370  18.423  0.00  0.00    +0.000 A 
ATOM     16  C   UNL     1       1.834   8.133  18.070  0.00  0.00    +0.000 A 
ATOM     17  C   UNL     1       2.142   7.185  19.045  0.00  0.00    +0.000 A 
ATOM     18  C   UNL     1       1.813   7.475  20.380  0.00  0.00    +0.000 A 
ATOM     19  C   UNL     1       1.194   8.685  20.742  0.00  0.00    +0.000 A 
ATOM     20  C   UNL     1       0.762   8.890  22.168  0.00  0.00    +0.000 C 
ENDBRANCH   1  17
BRANCH   3  21
ATOM     21  C   UNL     1       5.441   4.064  17.022  0.00  0.00    +0.000 C 
ATOM     22  O   UNL     1       6.637   4.700  17.566  0.00  0.00    +0.000 OA
ATOM     23  C   UNL     1       7.248   5.501  16.534  0.00  0.00    +0.000 C 
ATOM     24  C   UNL     1       6.203   5.682  15.447  0.00  0.00    +0.000 C 
ATOM     25  C   UNL     1       5.443   4.376  15.519  0.00  0.00    +0.000 C 
BRANCH  25  26
ATOM     26  O   UNL     1       6.162   3.384  14.767  0.00  0.00    +0.000 OA
ATOM     27  H   UNL     1       6.577   2.756  15.383  0.00  0.00    +0.000 HD
ENDBRANCH  25  26
BRANCH  23  28
ATOM     28  C   UNL     1       7.804   6.812  17.097  0.00  0.00    +0.000 C 
BRANCH  28  29
ATOM     29  O   UNL     1       6.835   7.855  17.090  0.00  0.00    +0.000 OA
ATOM     30  H   UNL     1       6.277   7.714  17.875  0.00  0.00    +0.000 HD
ENDBRANCH  28  29
ENDBRANCH  23  28
ENDBRANCH   3  21
TORSDOF 5
ENDMDL
MODEL 7
REMARK VINA RESULT:      -7.7      2.802      5.069
REMARK  Name = 
REMARK  7 active torsions:
REMARK  status: ('A' for Active; 'I' for Inactive)
REMARK    1  A    between atoms: C_1  and  C_2
REMARK    2  A    between atoms: C_5  and  C_6
REMARK    3  A    between atoms: N_8  and  C_9
REMARK    4  A    between atoms: C_11  and  C_12
REMARK    5  A    between atoms: C_12  and  O_13
REMARK    6  A    between atoms: C_15  and  O_16
REMARK    7  A    between atoms: C_25  and  C_26
REMARK                            x       y       z     vdW  Elec       q    Type
REMARK                         _______ _______ _______ _____ _____    ______ ____
ROOT
ATOM      1  C   UNL     1       1.420   7.816  20.486  0.00  0.00    +0.000 A 
ATOM      2  C   UNL     1       1.501   6.595  21.133  0.00  0.00    +0.000 A 
ATOM      3  N   UNL     1       2.326   5.760  20.428  0.00  0.00    +0.000 N 
ATOM      4  C   UNL     1       2.712   6.392  19.272  0.00  0.00    +0.000 A 
ATOM      5  N   UNL     1       3.470   5.835  18.311  0.00  0.00    +0.000 NA
ATOM      6  C   UNL     1       3.687   6.689  17.296  0.00  0.00    +0.000 A 
ATOM      7  N   UNL     1       3.267   7.959  17.178  0.00  0.00    +0.000 NA
ATOM      8  C   UNL     1       2.520   8.484  18.168  0.00  0.00    +0.000 A 
ATOM      9  N   UNL     1       2.139   9.811  17.995  0.00  0.00    +0.000 N 
ATOM     10  C   UNL     1       2.188   7.688  19.278  0.00  0.00    +0.000 A 
ATOM     11  H   UNL     1       2.677  10.235  17.247  0.00  0.00    +0.000 HD
ATOM     12  H   UNL     1       2.098  10.338  18.859  0.00  0.00    +0.000 HD
ENDROOT
BRANCH   1  17
ATOM     13  C   UNL     1      -1.805  12.116  22.649  0.00  0.00    +0.000 C 
ATOM     14  C   UNL     1      -0.966  11.015  22.060  0.00  0.00    +0.000 A 
ATOM     15  C   UNL     1      -0.315  10.118  22.915  0.00  0.00    +0.000 A 
ATOM     16  C   UNL     1       0.494   9.099  22.405  0.00  0.00    +0.000 A 
ATOM     17  C   UNL     1       0.611   8.902  21.030  0.00  0.00    +0.000 A 
ATOM     18  C   UNL     1      -0.038   9.807  20.173  0.00  0.00    +0.000 A 
ATOM     19  C   UNL     1      -0.793  10.884  20.671  0.00  0.00    +0.000 A 
ATOM     20  C   UNL     1      -1.369  11.885  19.706  0.00  0.00    +0.000 C 
ENDBRANCH   1  17
BRANCH   3  21
ATOM     21  C   UNL     1       2.659   4.380  20.773  0.00  0.00    +0.000 C 
ATOM     22  O   UNL     1       3.236   3.716  19.609  0.00  0.00    +0.000 OA
ATOM     23  C   UNL     1       2.377   2.626  19.220  0.00  0.00    +0.000 C 
ATOM     24  C   UNL     1       1.043   2.856  19.909  0.00  0.00    +0.000 C 
ATOM     25  C   UNL     1       1.466   3.515  21.204  0.00  0.00    +0.000 C 
BRANCH  25  26
ATOM     26  O   UNL     1       1.854   2.491  22.134  0.00  0.00    +0.000 OA
ATOM     27  H   UNL     1       1.055   2.063  22.488  0.00  0.00    +0.000 HD
ENDBRANCH  25  26
BRANCH  23  28
ATOM     28  C   UNL     1       2.285   2.499  17.697  0.00  0.00    +0.000 C 
BRANCH  28  29
ATOM     29  O   UNL     1       1.715   3.656  17.094  0.00  0.00    +0.000 OA
ATOM     30  H   UNL     1       0.789   3.691  17.392  0.00  0.00    +0.000 HD
ENDBRANCH  28  29
ENDBRANCH  23  28
ENDBRANCH   3  21
TORSDOF 5
ENDMDL
MODEL 8
REMARK VINA RESULT:      -7.6      1.152      1.256
REMARK  Name = 
REMARK  7 active torsions:
REMARK  status: ('A' for Active; 'I' for Inactive)
REMARK    1  A    between atoms: C_1  and  C_2
REMARK    2  A    between atoms: C_5  and  C_6
REMARK    3  A    between atoms: N_8  and  C_9
REMARK    4  A    between atoms: C_11  and  C_12
REMARK    5  A    between atoms: C_12  and  O_13
REMARK    6  A    between atoms: C_15  and  O_16
REMARK    7  A    between atoms: C_25  and  C_26
REMARK                            x       y       z     vdW  Elec       q    Type
REMARK                         _______ _______ _______ _____ _____    ______ ____
ROOT
ATOM      1  C   UNL     1       2.515   6.005  18.398  0.00  0.00    +0.000 A 
ATOM      2  C   UNL     1       3.535   5.927  17.466  0.00  0.00    +0.000 A 
ATOM      3  N   UNL     1       3.806   4.613  17.196  0.00  0.00    +0.000 N 
ATOM      4  C   UNL     1       3.036   3.825  18.015  0.00  0.00    +0.000 A 
ATOM      5  N   UNL     1       3.096   2.483  18.065  0.00  0.00    +0.000 NA
ATOM      6  C   UNL     1       2.226   1.981  18.959  0.00  0.00    +0.000 A 
ATOM      7  N   UNL     1       1.353   2.650  19.730  0.00  0.00    +0.000 NA
ATOM      8  C   UNL     1       1.315   3.993  19.641  0.00  0.00    +0.000 A 
ATOM      9  N   UNL     1       0.371   4.623  20.447  0.00  0.00    +0.000 N 
ATOM     10  C   UNL     1       2.197   4.653  18.767  0.00  0.00    +0.000 A 
ATOM     11  H   UNL     1      -0.289   3.943  20.809  0.00  0.00    +0.000 HD
ATOM     12  H   UNL     1      -0.036   5.449  20.027  0.00  0.00    +0.000 HD
ENDROOT
BRANCH   1  17
ATOM     13  C   UNL     1       0.556  11.140  20.233  0.00  0.00    +0.000 C 
ATOM     14  C   UNL     1       1.055   9.794  19.785  0.00  0.00    +0.000 A 
ATOM     15  C   UNL     1       1.248   9.556  18.419  0.00  0.00    +0.000 A 
ATOM     16  C   UNL     1       1.687   8.310  17.962  0.00  0.00    +0.000 A 
ATOM     17  C   UNL     1       2.017   7.297  18.861  0.00  0.00    +0.000 A 
ATOM     18  C   UNL     1       1.817   7.535  20.232  0.00  0.00    +0.000 A 
ATOM     19  C   UNL     1       1.304   8.757  20.701  0.00  0.00    +0.000 A 
ATOM     20  C   UNL     1       1.003   8.912  22.168  0.00  0.00    +0.000 C 
ENDBRANCH   1  17
BRANCH   3  21
ATOM     21  C   UNL     1       4.824   4.111  16.276  0.00  0.00    +0.000 C 
ATOM     22  O   UNL     1       5.992   3.678  17.037  0.00  0.00    +0.000 OA
ATOM     23  C   UNL     1       7.121   4.495  16.663  0.00  0.00    +0.000 C 
ATOM     24  C   UNL     1       6.560   5.712  15.949  0.00  0.00    +0.000 C 
ATOM     25  C   UNL     1       5.340   5.140  15.260  0.00  0.00    +0.000 C 
BRANCH  25  26
ATOM     26  O   UNL     1       5.756   4.519  14.032  0.00  0.00    +0.000 OA
ATOM     27  H   UNL     1       4.972   4.327  13.490  0.00  0.00    +0.000 HD
ENDBRANCH  25  26
BRANCH  23  28
ATOM     28  C   UNL     1       8.000   4.824  17.872  0.00  0.00    +0.000 C 
BRANCH  28  29
ATOM     29  O   UNL     1       8.962   3.806  18.131  0.00  0.00    +0.000 OA
ATOM     30  H   UNL     1       9.057   3.303  17.304  0.00  0.00    +0.000 HD
ENDBRANCH  28  29
ENDBRANCH  23  28
ENDBRANCH   3  21
TORSDOF 5
ENDMDL
MODEL 9
REMARK VINA RESULT:      -7.5      2.590      4.329
REMARK  Name = 
REMARK  7 active torsions:
REMARK  status: ('A' for Active; 'I' for Inactive)
REMARK    1  A    between atoms: C_1  and  C_2
REMARK    2  A    between atoms: C_5  and  C_6
REMARK    3  A    between atoms: N_8  and  C_9
REMARK    4  A    between atoms: C_11  and  C_12
REMARK    5  A    between atoms: C_12  and  O_13
REMARK    6  A    between atoms: C_15  and  O_16
REMARK    7  A    between atoms: C_25  and  C_26
REMARK                            x       y       z     vdW  Elec       q    Type
REMARK                         _______ _______ _______ _____ _____    ______ ____
ROOT
ATOM      1  C   UNL     1       3.049   6.457  18.182  0.00  0.00    +0.000 A 
ATOM      2  C   UNL     1       2.419   5.265  18.499  0.00  0.00    +0.000 A 
ATOM      3  N   UNL     1       3.201   4.216  18.096  0.00  0.00    +0.000 N 
ATOM      4  C   UNL     1       4.295   4.709  17.431  0.00  0.00    +0.000 A 
ATOM      5  N   UNL     1       5.238   3.953  16.841  0.00  0.00    +0.000 NA
ATOM      6  C   UNL     1       6.190   4.709  16.266  0.00  0.00    +0.000 A 
ATOM      7  N   UNL     1       6.288   6.048  16.253  0.00  0.00    +0.000 NA
ATOM      8  C   UNL     1       5.330   6.769  16.866  0.00  0.00    +0.000 A 
ATOM      9  N   UNL     1       5.505   8.150  16.837  0.00  0.00    +0.000 N 
ATOM     10  C   UNL     1       4.254   6.105  17.481  0.00  0.00    +0.000 A 
ATOM     11  H   UNL     1       6.449   8.377  16.545  0.00  0.00    +0.000 HD
ATOM     12  H   UNL     1       5.180   8.618  17.674  0.00  0.00    +0.000 HD
ENDROOT
BRANCH   1  17
ATOM     13  C   UNL     1       0.642  11.562  19.489  0.00  0.00    +0.000 C 
ATOM     14  C   UNL     1       1.251  10.223  19.174  0.00  0.00    +0.000 A 
ATOM     15  C   UNL     1       1.789   9.998  17.901  0.00  0.00    +0.000 A 
ATOM     16  C   UNL     1       2.340   8.759  17.564  0.00  0.00    +0.000 A 
ATOM     17  C   UNL     1       2.438   7.741  18.511  0.00  0.00    +0.000 A 
ATOM     18  C   UNL     1       1.893   7.966  19.786  0.00  0.00    +0.000 A 
ATOM     19  C   UNL     1       1.266   9.181  20.117  0.00  0.00    +0.000 A 
ATOM     20  C   UNL     1       0.600   9.321  21.459  0.00  0.00    +0.000 C 
ENDBRANCH   1  17
BRANCH   3  21
ATOM     21  C   UNL     1       2.882   2.797  18.239  0.00  0.00    +0.000 C 
ATOM     22  O   UNL     1       1.700   2.649  19.081  0.00  0.00    +0.000 OA
ATOM     23  C   UNL     1       2.064   1.923  20.273  0.00  0.00    +0.000 C 
ATOM     24  C   UNL     1       3.581   1.961  20.359  0.00  0.00    +0.000 C 
ATOM     25  C   UNL     1       3.980   1.952  18.899  0.00  0.00    +0.000 C 
BRANCH  25  26
ATOM     26  O   UNL     1       3.967   0.593  18.430  0.00  0.00    +0.000 OA
ATOM     27  H   UNL     1       3.147   0.161  18.726  0.00  0.00    +0.000 HD
ENDBRANCH  25  26
BRANCH  23  28
ATOM     28  C   UNL     1       1.349   2.476  21.508  0.00  0.00    +0.000 C 
BRANCH  28  29
ATOM     29  O   UNL     1       2.191   3.326  22.282  0.00  0.00    +0.000 OA
ATOM     30  H   UNL     1       1.627   3.711  22.975  0.00  0.00    +0.000 HD
ENDBRANCH  28  29
ENDBRANCH  23  28
ENDBRANCH   3  21
TORSDOF 5
ENDMDL
