MODEL 1
REMARK VINA RESULT:      -7.8      0.000      0.000
REMARK  Name = 
REMARK  3 active torsions:
REMARK  status: ('A' for Active; 'I' for Inactive)
REMARK    1  A    between atoms: C_1  and  C_2
REMARK    2  A    between atoms: N_11  and  C_12
REMARK    3  A    between atoms: C_17  and  C_18
REMARK                            x       y       z     vdW  Elec       q    Type
REMARK                         _______ _______ _______ _____ _____    ______ ____
ROOT
ATOM      1  C   UNL     1       6.872   4.674  15.759  0.00  0.00    +0.000 C 
ATOM      2  C   UNL     1       5.750   5.030  16.689  0.00  0.00    +0.000 A 
ATOM      3  C   UNL     1       5.334   4.133  17.685  0.00  0.00    +0.000 A 
ATOM      4  C   UNL     1       4.304   4.443  18.578  0.00  0.00    +0.000 A 
ATOM      5  C   UNL     1       3.720   5.703  18.432  0.00  0.00    +0.000 A 
ATOM      6  N   UNL     1       2.729   6.350  19.116  0.00  0.00    +0.000 N 
ATOM      7  C   UNL     1       2.570   7.596  18.578  0.00  0.00    +0.000 A 
ATOM      8  N   UNL     1       1.702   8.492  19.079  0.00  0.00    +0.000 N 
ATOM      9  C   UNL     1       1.062   8.395  20.398  0.00  0.00    +0.000 C 
ATOM     10  C   UNL     1       1.083   9.771  21.108  0.00  0.00    +0.000 C 
ATOM     11  N   UNL     1       0.438  10.737  20.204  0.00  0.00    +0.000 N 
ATOM     12  C   UNL     1       1.214  10.930  18.965  0.00  0.00    +0.000 C 
ATOM     13  C   UNL     1       1.251   9.586  18.200  0.00  0.00    +0.000 C 
ATOM     14  N   UNL     1       3.360   7.758  17.539  0.00  0.00    +0.000 NA
ATOM     15  C   UNL     1       4.097   6.612  17.455  0.00  0.00    +0.000 A 
ATOM     16  C   UNL     1       5.121   6.279  16.565  0.00  0.00    +0.000 A 
ATOM     17  H   UNL     1       2.195   5.967  19.877  0.00  0.00    +0.000 HD
ENDROOT
BRANCH  11  18
ATOM     18  C   UNL     1      -0.365  11.715  20.729  0.00  0.00    +0.000 A 
ATOM     19  N   UNL     1      -0.007  12.209  21.943  0.00  0.00    +0.000 NA
ATOM     20  C   UNL     1      -0.792  13.125  22.548  0.00  0.00    +0.000 A 
ATOM     21  C   UNL     1      -1.961  13.608  22.007  0.00  0.00    +0.000 A 
ATOM     22  C   UNL     1      -2.340  13.100  20.778  0.00  0.00    +0.000 A 
ATOM     23  C   UNL     1      -1.555  12.127  20.126  0.00  0.00    +0.000 A 
BRANCH  23  24
ATOM     24  C   UNL     1      -2.126  11.564  18.858  0.00  0.00    +0.000 C 
ATOM     25  F   UNL     1      -2.033  10.225  18.668  0.00  0.00    +0.000 F 
ATOM     26  F   UNL     1      -3.464  11.829  18.742  0.00  0.00    +0.000 F 
ATOM     27  F   UNL     1      -1.556  12.128  17.754  0.00  0.00    +0.000 F 
ENDBRANCH  23  24
ENDBRANCH  11  18
TORSDOF 2
ENDMDL
MODEL 2
REMARK VINA RESULT:      -7.8      7.970      9.328
REMARK  Name = 
REMARK  3 active torsions:
REMARK  status: ('A' for Active; 'I' for Inactive)
REMARK    1  A    between atoms: C_1  and  C_2
REMARK    2  A    between atoms: N_11  and  C_12
REMARK    3  A    between atoms: C_17  and  C_18
REMARK                            x       y       z     vdW  Elec       q    Type
REMARK                         _______ _______ _______ _____ _____    ______ ____
ROOT
ATOM      1  C   UNL     1       6.205   4.176  15.666  0.00  0.00    +0.000 C 
ATOM      2  C   UNL     1       6.833   5.099  16.667  0.00  0.00    +0.000 A 
ATOM      3  C   UNL     1       7.341   4.604  17.878  0.00  0.00    +0.000 A 
ATOM      4  C   UNL     1       7.947   5.438  18.823  0.00  0.00    +0.000 A 
ATOM      5  C   UNL     1       8.030   6.790  18.489  0.00  0.00    +0.000 A 
ATOM      6  N   UNL     1       8.561   7.873  19.134  0.00  0.00    +0.000 N 
ATOM      7  C   UNL     1       8.407   8.972  18.336  0.00  0.00    +0.000 A 
ATOM      8  N   UNL     1       8.884  10.182  18.678  0.00  0.00    +0.000 N 
ATOM      9  C   UNL     1       9.865  10.429  19.743  0.00  0.00    +0.000 C 
ATOM     10  C   UNL     1      10.935  11.441  19.264  0.00  0.00    +0.000 C 
ATOM     11  N   UNL     1      10.223  12.650  18.821  0.00  0.00    +0.000 N 
ATOM     12  C   UNL     1       9.384  12.387  17.637  0.00  0.00    +0.000 C 
ATOM     13  C   UNL     1       8.289  11.368  18.033  0.00  0.00    +0.000 C 
ATOM     14  N   UNL     1       7.744   8.666  17.243  0.00  0.00    +0.000 NA
ATOM     15  C   UNL     1       7.531   7.319  17.308  0.00  0.00    +0.000 A 
ATOM     16  C   UNL     1       6.920   6.471  16.381  0.00  0.00    +0.000 A 
ATOM     17  H   UNL     1       8.979   7.865  20.048  0.00  0.00    +0.000 HD
ENDROOT
BRANCH  11  18
ATOM     18  C   UNL     1      10.765  13.881  19.080  0.00  0.00    +0.000 A 
ATOM     19  N   UNL     1      11.710  14.325  18.211  0.00  0.00    +0.000 NA
ATOM     20  C   UNL     1      12.333  15.499  18.445  0.00  0.00    +0.000 A 
ATOM     21  C   UNL     1      12.072  16.300  19.532  0.00  0.00    +0.000 A 
ATOM     22  C   UNL     1      11.122  15.849  20.430  0.00  0.00    +0.000 A 
ATOM     23  C   UNL     1      10.465  14.618  20.228  0.00  0.00    +0.000 A 
BRANCH  23  24
ATOM     24  C   UNL     1       9.544  14.176  21.326  0.00  0.00    +0.000 C 
ATOM     25  F   UNL     1       8.268  13.867  20.990  0.00  0.00    +0.000 F 
ATOM     26  F   UNL     1      10.008  13.053  21.957  0.00  0.00    +0.000 F 
ATOM     27  F   UNL     1       9.442  15.118  22.309  0.00  0.00    +0.000 F 
ENDBRANCH  23  24
ENDBRANCH  11  18
TORSDOF 2
ENDMDL
MODEL 3
REMARK VINA RESULT:      -7.5      2.825      8.702
REMARK  Name = 
REMARK  3 active torsions:
REMARK  status: ('A' for Active; 'I' for Inactive)
REMARK    1  A    between atoms: C_1  and  C_2
REMARK    2  A    between atoms: N_11  and  C_12
REMARK    3  A    between atoms: C_17  and  C_18
REMARK                            x       y       z     vdW  Elec       q    Type
REMARK                         _______ _______ _______ _____ _____    ______ ____
ROOT
ATOM      1  C   UNL     1      -1.811  13.559  23.613  0.00  0.00    +0.000 C 
ATOM      2  C   UNL     1      -1.429  12.817  22.366  0.00  0.00    +0.000 A 
ATOM      3  C   UNL     1      -1.807  13.297  21.103  0.00  0.00    +0.000 A 
ATOM      4  C   UNL     1      -1.451  12.636  19.923  0.00  0.00    +0.000 A 
ATOM      5  C   UNL     1      -0.687  11.478  20.071  0.00  0.00    +0.000 A 
ATOM      6  N   UNL     1      -0.147  10.602  19.171  0.00  0.00    +0.000 N 
ATOM      7  C   UNL     1       0.553   9.649  19.856  0.00  0.00    +0.000 A 
ATOM      8  N   UNL     1       1.245   8.678  19.235  0.00  0.00    +0.000 N 
ATOM      9  C   UNL     1       1.603   8.681  17.810  0.00  0.00    +0.000 C 
ATOM     10  C   UNL     1       3.073   8.231  17.624  0.00  0.00    +0.000 C 
ATOM     11  N   UNL     1       3.211   6.915  18.269  0.00  0.00    +0.000 N 
ATOM     12  C   UNL     1       3.014   6.998  19.728  0.00  0.00    +0.000 C 
ATOM     13  C   UNL     1       1.561   7.457  19.998  0.00  0.00    +0.000 C 
ATOM     14  N   UNL     1       0.433   9.826  21.153  0.00  0.00    +0.000 NA
ATOM     15  C   UNL     1      -0.302  10.967  21.302  0.00  0.00    +0.000 A 
ATOM     16  C   UNL     1      -0.677  11.636  22.470  0.00  0.00    +0.000 A 
ATOM     17  H   UNL     1      -0.259  10.643  18.172  0.00  0.00    +0.000 HD
ENDROOT
BRANCH  11  18
ATOM     18  C   UNL     1       4.003   5.962  17.685  0.00  0.00    +0.000 A 
ATOM     19  N   UNL     1       5.217   6.372  17.237  0.00  0.00    +0.000 NA
ATOM     20  C   UNL     1       6.020   5.499  16.591  0.00  0.00    +0.000 A 
ATOM     21  C   UNL     1       5.684   4.187  16.349  0.00  0.00    +0.000 A 
ATOM     22  C   UNL     1       4.443   3.765  16.790  0.00  0.00    +0.000 A 
ATOM     23  C   UNL     1       3.571   4.655  17.450  0.00  0.00    +0.000 A 
BRANCH  23  24
ATOM     24  C   UNL     1       2.208   4.119  17.775  0.00  0.00    +0.000 C 
ATOM     25  F   UNL     1       1.136   4.822  17.335  0.00  0.00    +0.000 F 
ATOM     26  F   UNL     1       2.021   2.863  17.264  0.00  0.00    +0.000 F 
ATOM     27  F   UNL     1       2.027   3.984  19.121  0.00  0.00    +0.000 F 
ENDBRANCH  23  24
ENDBRANCH  11  18
TORSDOF 2
ENDMDL
MODEL 4
REMARK VINA RESULT:      -7.4      2.827      8.607
REMARK  Name = 
REMARK  3 active torsions:
REMARK  status: ('A' for Active; 'I' for Inactive)
REMARK    1  A    between atoms: C_1  and  C_2
REMARK    2  A    between atoms: N_11  and  C_12
REMARK    3  A    between atoms: C_17  and  C_18
REMARK                            x       y       z     vdW  Elec       q    Type
REMARK                         _______ _______ _______ _____ _____    ______ ____
ROOT
ATOM      1  C   UNL     1      -4.283  13.553  20.658  0.00  0.00    +0.000 C 
ATOM      2  C   UNL     1      -3.068  12.716  20.927  0.00  0.00    +0.000 A 
ATOM      3  C   UNL     1      -2.602  12.531  22.238  0.00  0.00    +0.000 A 
ATOM      4  C   UNL     1      -1.482  11.743  22.522  0.00  0.00    +0.000 A 
ATOM      5  C   UNL     1      -0.861  11.137  21.429  0.00  0.00    +0.000 A 
ATOM      6  N   UNL     1       0.215  10.301  21.320  0.00  0.00    +0.000 N 
ATOM      7  C   UNL     1       0.377   9.968  20.005  0.00  0.00    +0.000 A 
ATOM      8  N   UNL     1       1.324   9.109  19.591  0.00  0.00    +0.000 N 
ATOM      9  C   UNL     1       2.076   8.201  20.467  0.00  0.00    +0.000 C 
ATOM     10  C   UNL     1       2.178   6.796  19.823  0.00  0.00    +0.000 C 
ATOM     11  N   UNL     1       2.779   6.969  18.492  0.00  0.00    +0.000 N 
ATOM     12  C   UNL     1       1.903   7.743  17.592  0.00  0.00    +0.000 C 
ATOM     13  C   UNL     1       1.739   9.166  18.177  0.00  0.00    +0.000 C 
ATOM     14  N   UNL     1      -0.496  10.603  19.253  0.00  0.00    +0.000 NA
ATOM     15  C   UNL     1      -1.286  11.303  20.119  0.00  0.00    +0.000 A 
ATOM     16  C   UNL     1      -2.400  12.104  19.854  0.00  0.00    +0.000 A 
ATOM     17  H   UNL     1       0.799   9.994  22.079  0.00  0.00    +0.000 HD
ENDROOT
BRANCH  11  18
ATOM     18  C   UNL     1       3.668   6.034  18.029  0.00  0.00    +0.000 A 
ATOM     19  N   UNL     1       4.917   6.478  17.734  0.00  0.00    +0.000 NA
ATOM     20  C   UNL     1       5.822   5.623  17.209  0.00  0.00    +0.000 A 
ATOM     21  C   UNL     1       5.559   4.299  16.945  0.00  0.00    +0.000 A 
ATOM     22  C   UNL     1       4.285   3.843  17.229  0.00  0.00    +0.000 A 
ATOM     23  C   UNL     1       3.309   4.712  17.759  0.00  0.00    +0.000 A 
BRANCH  23  24
ATOM     24  C   UNL     1       1.932   4.138  17.914  0.00  0.00    +0.000 C 
ATOM     25  F   UNL     1       0.927   4.717  17.213  0.00  0.00    +0.000 F 
ATOM     26  F   UNL     1       1.887   2.821  17.543  0.00  0.00    +0.000 F 
ATOM     27  F   UNL     1       1.522   4.153  19.216  0.00  0.00    +0.000 F 
ENDBRANCH  23  24
ENDBRANCH  11  18
TORSDOF 2
ENDMDL
MODEL 5
REMARK VINA RESULT:      -7.2      7.540      8.897
REMARK  Name = 
REMARK  3 active torsions:
REMARK  status: ('A' for Active; 'I' for Inactive)
REMARK    1  A    between atoms: C_1  and  C_2
REMARK    2  A    between atoms: N_11  and  C_12
REMARK    3  A    between atoms: C_17  and  C_18
REMARK                            x       y       z     vdW  Elec       q    Type
REMARK                         _______ _______ _______ _____ _____    ______ ____
ROOT
ATOM      1  C   UNL     1       6.188   4.044  15.670  0.00  0.00    +0.000 C 
ATOM      2  C   UNL     1       6.792   4.994  16.661  0.00  0.00    +0.000 A 
ATOM      3  C   UNL     1       7.321   4.524  17.873  0.00  0.00    +0.000 A 
ATOM      4  C   UNL     1       7.906   5.384  18.808  0.00  0.00    +0.000 A 
ATOM      5  C   UNL     1       7.946   6.735  18.463  0.00  0.00    +0.000 A 
ATOM      6  N   UNL     1       8.446   7.839  19.096  0.00  0.00    +0.000 N 
ATOM      7  C   UNL     1       8.256   8.927  18.291  0.00  0.00    +0.000 A 
ATOM      8  N   UNL     1       8.697  10.153  18.620  0.00  0.00    +0.000 N 
ATOM      9  C   UNL     1       9.675  10.438  19.678  0.00  0.00    +0.000 C 
ATOM     10  C   UNL     1      10.712  11.478  19.186  0.00  0.00    +0.000 C 
ATOM     11  N   UNL     1       9.961  12.662  18.736  0.00  0.00    +0.000 N 
ATOM     12  C   UNL     1       9.124  12.364  17.559  0.00  0.00    +0.000 C 
ATOM     13  C   UNL     1       8.063  11.315  17.969  0.00  0.00    +0.000 C 
ATOM     14  N   UNL     1       7.596   8.591  17.203  0.00  0.00    +0.000 NA
ATOM     15  C   UNL     1       7.425   7.239  17.280  0.00  0.00    +0.000 A 
ATOM     16  C   UNL     1       6.835   6.365  16.363  0.00  0.00    +0.000 A 
ATOM     17  H   UNL     1       8.870   7.851  20.008  0.00  0.00    +0.000 HD
ENDROOT
BRANCH  11  18
ATOM     18  C   UNL     1      10.466  13.911  18.983  0.00  0.00    +0.000 A 
ATOM     19  N   UNL     1      11.744  14.140  18.582  0.00  0.00    +0.000 NA
ATOM     20  C   UNL     1      12.327  15.327  18.855  0.00  0.00    +0.000 A 
ATOM     21  C   UNL     1      11.699  16.349  19.530  0.00  0.00    +0.000 A 
ATOM     22  C   UNL     1      10.404  16.119  19.954  0.00  0.00    +0.000 A 
ATOM     23  C   UNL     1       9.771  14.884  19.704  0.00  0.00    +0.000 A 
BRANCH  23  24
ATOM     24  C   UNL     1       8.413  14.706  20.315  0.00  0.00    +0.000 C 
ATOM     25  F   UNL     1       7.894  15.749  21.008  0.00  0.00    +0.000 F 
ATOM     26  F   UNL     1       7.464  14.425  19.369  0.00  0.00    +0.000 F 
ATOM     27  F   UNL     1       8.380  13.647  21.175  0.00  0.00    +0.000 F 
ENDBRANCH  23  24
ENDBRANCH  11  18
TORSDOF 2
ENDMDL
MODEL 6
REMARK VINA RESULT:      -7.2      0.858      1.136
REMARK  Name = 
REMARK  3 active torsions:
REMARK  status: ('A' for Active; 'I' for Inactive)
REMARK    1  A    between atoms: C_1  and  C_2
REMARK    2  A    between atoms: N_11  and  C_12
REMARK    3  A    between atoms: C_17  and  C_18
REMARK                            x       y       z     vdW  Elec       q    Type
REMARK                         _______ _______ _______ _____ _____    ______ ____
ROOT
ATOM      1  C   UNL     1       5.887   4.010  16.322  0.00  0.00    +0.000 C 
ATOM      2  C   UNL     1       4.873   4.621  17.242  0.00  0.00    +0.000 A 
ATOM      3  C   UNL     1       4.385   3.906  18.346  0.00  0.00    +0.000 A 
ATOM      4  C   UNL     1       3.452   4.455  19.231  0.00  0.00    +0.000 A 
ATOM      5  C   UNL     1       3.042   5.762  18.962  0.00  0.00    +0.000 A 
ATOM      6  N   UNL     1       2.185   6.614  19.600  0.00  0.00    +0.000 N 
ATOM      7  C   UNL     1       2.175   7.805  18.930  0.00  0.00    +0.000 A 
ATOM      8  N   UNL     1       1.465   8.865  19.355  0.00  0.00    +0.000 N 
ATOM      9  C   UNL     1       0.883   9.004  20.696  0.00  0.00    +0.000 C 
ATOM     10  C   UNL     1       1.129  10.431  21.244  0.00  0.00    +0.000 C 
ATOM     11  N   UNL     1       0.582  11.376  20.258  0.00  0.00    +0.000 N 
ATOM     12  C   UNL     1       1.317  11.321  18.981  0.00  0.00    +0.000 C 
ATOM     13  C   UNL     1       1.129   9.911  18.372  0.00  0.00    +0.000 C 
ATOM     14  N   UNL     1       2.929   7.740  17.854  0.00  0.00    +0.000 NA
ATOM     15  C   UNL     1       3.495   6.497  17.876  0.00  0.00    +0.000 A 
ATOM     16  C   UNL     1       4.418   5.927  16.998  0.00  0.00    +0.000 A 
ATOM     17  H   UNL     1       1.640   6.396  20.417  0.00  0.00    +0.000 HD
ENDROOT
BRANCH  11  18
ATOM     18  C   UNL     1      -0.051  12.510  20.695  0.00  0.00    +0.000 A 
ATOM     19  N   UNL     1       0.558  13.200  21.694  0.00  0.00    +0.000 NA
ATOM     20  C   UNL     1      -0.045  14.288  22.217  0.00  0.00    +0.000 A 
ATOM     21  C   UNL     1      -1.268  14.761  21.798  0.00  0.00    +0.000 A 
ATOM     22  C   UNL     1      -1.901  14.056  20.791  0.00  0.00    +0.000 A 
ATOM     23  C   UNL     1      -1.310  12.904  20.235  0.00  0.00    +0.000 A 
BRANCH  23  24
ATOM     24  C   UNL     1      -2.142  12.155  19.236  0.00  0.00    +0.000 C 
ATOM     25  F   UNL     1      -1.821  12.289  17.926  0.00  0.00    +0.000 F 
ATOM     26  F   UNL     1      -2.106  10.805  19.455  0.00  0.00    +0.000 F 
ATOM     27  F   UNL     1      -3.461  12.494  19.323  0.00  0.00    +0.000 F 
ENDBRANCH  23  24
ENDBRANCH  11  18
TORSDOF 2
ENDMDL
MODEL 7
REMARK VINA RESULT:      -7.1      2.150      3.049
REMARK  Name = 
REMARK  3 active torsions:
REMARK  status: ('A' for Active; 'I' for Inactive)
REMARK    1  A    between atoms: C_1  and  C_2
REMARK    2  A    between atoms: N_11  and  C_12
REMARK    3  A    between atoms: C_17  and  C_18
REMARK                            x       y       z     vdW  Elec       q    Type
REMARK                         _______ _______ _______ _____ _____    ______ ____
ROOT
ATOM      1  C   UNL     1       3.724   1.537  18.596  0.00  0.00    +0.000 C 
ATOM      2  C   UNL     1       3.635   3.013  18.346  0.00  0.00    +0.000 A 
ATOM      3  C   UNL     1       4.260   3.590  17.230  0.00  0.00    +0.000 A 
ATOM      4  C   UNL     1       4.180   4.960  16.962  0.00  0.00    +0.000 A 
ATOM      5  C   UNL     1       3.430   5.721  17.861  0.00  0.00    +0.000 A 
ATOM      6  N   UNL     1       3.116   7.051  17.912  0.00  0.00    +0.000 N 
ATOM      7  C   UNL     1       2.311   7.266  18.995  0.00  0.00    +0.000 A 
ATOM      8  N   UNL     1       1.790   8.474  19.276  0.00  0.00    +0.000 N 
ATOM      9  C   UNL     1       1.743   9.607  18.343  0.00  0.00    +0.000 C 
ATOM     10  C   UNL     1       0.358  10.296  18.404  0.00  0.00    +0.000 C 
ATOM     11  N   UNL     1       0.120  10.672  19.806  0.00  0.00    +0.000 N 
ATOM     12  C   UNL     1       0.000   9.487  20.677  0.00  0.00    +0.000 C 
ATOM     13  C   UNL     1       1.350   8.732  20.660  0.00  0.00    +0.000 C 
ATOM     14  N   UNL     1       2.148   6.157  19.682  0.00  0.00    +0.000 NA
ATOM     15  C   UNL     1       2.806   5.189  18.979  0.00  0.00    +0.000 A 
ATOM     16  C   UNL     1       2.907   3.820  19.236  0.00  0.00    +0.000 A 
ATOM     17  H   UNL     1       3.437   7.755  17.269  0.00  0.00    +0.000 HD
ENDROOT
BRANCH  11  18
ATOM     18  C   UNL     1      -0.506  11.858  20.087  0.00  0.00    +0.000 A 
ATOM     19  N   UNL     1      -1.862  11.826  20.165  0.00  0.00    +0.000 NA
ATOM     20  C   UNL     1      -2.546  12.971  20.371  0.00  0.00    +0.000 A 
ATOM     21  C   UNL     1      -1.949  14.203  20.511  0.00  0.00    +0.000 A 
ATOM     22  C   UNL     1      -0.570  14.247  20.419  0.00  0.00    +0.000 A 
ATOM     23  C   UNL     1       0.175  13.073  20.185  0.00  0.00    +0.000 A 
BRANCH  23  24
ATOM     24  C   UNL     1       1.650  13.259  19.985  0.00  0.00    +0.000 C 
ATOM     25  F   UNL     1       2.168  12.917  18.780  0.00  0.00    +0.000 F 
ATOM     26  F   UNL     1       2.024  14.565  20.154  0.00  0.00    +0.000 F 
ATOM     27  F   UNL     1       2.376  12.560  20.905  0.00  0.00    +0.000 F 
ENDBRANCH  23  24
ENDBRANCH  11  18
TORSDOF 2
ENDMDL
MODEL 8
REMARK VINA RESULT:      -6.9      3.268      5.391
REMARK  Name = 
REMARK  3 active torsions:
REMARK  status: ('A' for Active; 'I' for Inactive)
REMARK    1  A    between atoms: C_1  and  C_2
REMARK    2  A    between atoms: N_11  and  C_12
REMARK    3  A    between atoms: C_17  and  C_18
REMARK                            x       y       z     vdW  Elec       q    Type
REMARK                         _______ _______ _______ _____ _____    ______ ____
ROOT
ATOM      1  C   UNL     1       3.115   5.894  19.226  0.00  0.00    +0.000 C 
ATOM      2  C   UNL     1       2.423   7.224  19.174  0.00  0.00    +0.000 A 
ATOM      3  C   UNL     1       2.406   7.976  17.989  0.00  0.00    +0.000 A 
ATOM      4  C   UNL     1       1.755   9.211  17.905  0.00  0.00    +0.000 A 
ATOM      5  C   UNL     1       1.109   9.648  19.063  0.00  0.00    +0.000 A 
ATOM      6  N   UNL     1       0.369  10.762  19.348  0.00  0.00    +0.000 N 
ATOM      7  C   UNL     1      -0.068  10.675  20.639  0.00  0.00    +0.000 A 
ATOM      8  N   UNL     1      -0.871  11.602  21.191  0.00  0.00    +0.000 N 
ATOM      9  C   UNL     1      -1.620  12.619  20.442  0.00  0.00    +0.000 C 
ATOM     10  C   UNL     1      -3.064  12.736  20.990  0.00  0.00    +0.000 C 
ATOM     11  N   UNL     1      -2.961  13.016  22.431  0.00  0.00    +0.000 N 
ATOM     12  C   UNL     1      -2.359  11.888  23.166  0.00  0.00    +0.000 C 
ATOM     13  C   UNL     1      -0.909  11.697  22.662  0.00  0.00    +0.000 C 
ATOM     14  N   UNL     1       0.410   9.597  21.222  0.00  0.00    +0.000 NA
ATOM     15  C   UNL     1       1.112   8.937  20.255  0.00  0.00    +0.000 A 
ATOM     16  C   UNL     1       1.778   7.711  20.322  0.00  0.00    +0.000 A 
ATOM     17  H   UNL     1       0.190  11.524  18.717  0.00  0.00    +0.000 HD
ENDROOT
BRANCH  11  18
ATOM     18  C   UNL     1      -3.848  13.883  23.012  0.00  0.00    +0.000 A 
ATOM     19  N   UNL     1      -5.166  13.648  22.782  0.00  0.00    +0.000 NA
ATOM     20  C   UNL     1      -6.092  14.502  23.268  0.00  0.00    +0.000 A 
ATOM     21  C   UNL     1      -5.784  15.627  23.999  0.00  0.00    +0.000 A 
ATOM     22  C   UNL     1      -4.444  15.882  24.225  0.00  0.00    +0.000 A 
ATOM     23  C   UNL     1      -3.450  15.021  23.716  0.00  0.00    +0.000 A 
BRANCH  23  24
ATOM     24  C   UNL     1      -2.031  15.462  23.921  0.00  0.00    +0.000 C 
ATOM     25  F   UNL     1      -1.198  15.415  22.853  0.00  0.00    +0.000 F 
ATOM     26  F   UNL     1      -1.960  16.762  24.346  0.00  0.00    +0.000 F 
ATOM     27  F   UNL     1      -1.413  14.736  24.897  0.00  0.00    +0.000 F 
ENDBRANCH  23  24
ENDBRANCH  11  18
TORSDOF 2
ENDMDL
MODEL 9
REMARK VINA RESULT:      -6.9      2.172      3.155
REMARK  Name = 
REMARK  3 active torsions:
REMARK  status: ('A' for Active; 'I' for Inactive)
REMARK    1  A    between atoms: C_1  and  C_2
REMARK    2  A    between atoms: N_11  and  C_12
REMARK    3  A    between atoms: C_17  and  C_18
REMARK                            x       y       z     vdW  Elec       q    Type
REMARK                         _______ _______ _______ _____ _____    ______ ____
ROOT
ATOM      1  C   UNL     1       3.433   2.071  18.607  0.00  0.00    +0.000 C 
ATOM      2  C   UNL     1       3.215   3.554  18.576  0.00  0.00    +0.000 A 
ATOM      3  C   UNL     1       3.553   4.304  17.439  0.00  0.00    +0.000 A 
ATOM      4  C   UNL     1       3.345   5.685  17.374  0.00  0.00    +0.000 A 
ATOM      5  C   UNL     1       2.768   6.276  18.500  0.00  0.00    +0.000 A 
ATOM      6  N   UNL     1       2.403   7.561  18.788  0.00  0.00    +0.000 N 
ATOM      7  C   UNL     1       1.842   7.586  20.033  0.00  0.00    +0.000 A 
ATOM      8  N   UNL     1       1.332   8.708  20.572  0.00  0.00    +0.000 N 
ATOM      9  C   UNL     1       1.024   9.934  19.824  0.00  0.00    +0.000 C 
ATOM     10  C   UNL     1      -0.349  10.500  20.261  0.00  0.00    +0.000 C 
ATOM     11  N   UNL     1      -0.298  10.690  21.719  0.00  0.00    +0.000 N 
ATOM     12  C   UNL     1      -0.164   9.407  22.434  0.00  0.00    +0.000 C 
ATOM     13  C   UNL     1       1.188   8.768  22.038  0.00  0.00    +0.000 C 
ATOM     14  N   UNL     1       1.890   6.395  20.589  0.00  0.00    +0.000 NA
ATOM     15  C   UNL     1       2.430   5.570  19.645  0.00  0.00    +0.000 A 
ATOM     16  C   UNL     1       2.656   4.192  19.694  0.00  0.00    +0.000 A 
ATOM     17  H   UNL     1       2.540   8.358  18.190  0.00  0.00    +0.000 HD
ENDROOT
BRANCH  11  18
ATOM     18  C   UNL     1      -0.909  11.783  22.276  0.00  0.00    +0.000 A 
ATOM     19  N   UNL     1      -2.072  11.555  22.940  0.00  0.00    +0.000 NA
ATOM     20  C   UNL     1      -2.762  12.596  23.454  0.00  0.00    +0.000 A 
ATOM     21  C   UNL     1      -2.358  13.907  23.349  0.00  0.00    +0.000 A 
ATOM     22  C   UNL     1      -1.183  14.148  22.662  0.00  0.00    +0.000 A 
ATOM     23  C   UNL     1      -0.447  13.088  22.095  0.00  0.00    +0.000 A 
BRANCH  23  24
ATOM     24  C   UNL     1       0.745  13.480  21.273  0.00  0.00    +0.000 C 
ATOM     25  F   UNL     1       1.851  12.701  21.358  0.00  0.00    +0.000 F 
ATOM     26  F   UNL     1       0.452  13.506  19.936  0.00  0.00    +0.000 F 
ATOM     27  F   UNL     1       1.167  14.744  21.568  0.00  0.00    +0.000 F 
ENDBRANCH  23  24
ENDBRANCH  11  18
TORSDOF 2
ENDMDL
