MODEL 1
REMARK VINA RESULT:      -6.9      0.000      0.000
REMARK  Name = 
REMARK  4 active torsions:
REMARK  status: ('A' for Active; 'I' for Inactive)
REMARK    1  A    between atoms: C_1  and  C_2
REMARK    2  A    between atoms: C_8  and  N_9
REMARK    3  A    between atoms: C_10  and  C_12
REMARK    4  A    between atoms: C_12  and  N_13
REMARK                            x       y       z     vdW  Elec       q    Type
REMARK                         _______ _______ _______ _____ _____    ______ ____
ROOT
ATOM      1  N   UNL     1       2.793   7.103  20.032  0.00  0.00    +0.000 N 
ATOM      2  C   UNL     1       2.621   5.844  19.455  0.00  0.00    +0.000 C 
ATOM      3  O   UNL     1       1.543   5.358  19.120  0.00  0.00    +0.000 OA
ATOM      4  H   UNL     1       3.678   7.295  20.479  0.00  0.00    +0.000 HD
ENDROOT
BRANCH   1  12
ATOM      5  C   UNL     1       2.118   8.954  17.791  0.00  0.00    +0.000 C 
ATOM      6  C   UNL     1       1.439   8.961  19.137  0.00  0.00    +0.000 A 
ATOM      7  C   UNL     1       0.426   9.925  19.338  0.00  0.00    +0.000 A 
ATOM      8  C   UNL     1      -0.248  10.014  20.554  0.00  0.00    +0.000 A 
ATOM      9 CL   UNL     1      -1.459  11.212  20.784  0.00  0.00    +0.000 Cl
ATOM     10  C   UNL     1       0.056   9.135  21.579  0.00  0.00    +0.000 A 
ATOM     11  C   UNL     1       1.047   8.172  21.390  0.00  0.00    +0.000 A 
ATOM     12  C   UNL     1       1.769   8.078  20.188  0.00  0.00    +0.000 A 
ENDBRANCH   1  12
BRANCH   2  13
ATOM     13  C   UNL     1       3.906   5.041  19.252  0.00  0.00    +0.000 C 
BRANCH  13  14
ATOM     14  N   UNL     1       5.019   5.832  18.704  0.00  0.00    +0.000 NA
ATOM     15  C   UNL     1       4.787   6.514  17.436  0.00  0.00    +0.000 C 
ATOM     16  C   UNL     1       5.260   5.779  16.196  0.00  0.00    +0.000 C 
ATOM     17  S   UNL     1       6.996   5.456  16.305  0.00  0.00    +0.000 S 
ATOM     18  O   UNL     1       7.345   4.530  15.243  0.00  0.00    +0.000 OA
ATOM     19  O   UNL     1       7.695   6.724  16.428  0.00  0.00    +0.000 OA
ATOM     20  C   UNL     1       7.101   4.597  17.846  0.00  0.00    +0.000 C 
ATOM     21  C   UNL     1       6.385   5.362  18.952  0.00  0.00    +0.000 C 
ENDBRANCH  13  14
ENDBRANCH   2  13
TORSDOF 3
ENDMDL
MODEL 2
REMARK VINA RESULT:      -6.9      0.954      1.038
REMARK  Name = 
REMARK  4 active torsions:
REMARK  status: ('A' for Active; 'I' for Inactive)
REMARK    1  A    between atoms: C_1  and  C_2
REMARK    2  A    between atoms: C_8  and  N_9
REMARK    3  A    between atoms: C_10  and  C_12
REMARK    4  A    between atoms: C_12  and  N_13
REMARK                            x       y       z     vdW  Elec       q    Type
REMARK                         _______ _______ _______ _____ _____    ______ ____
ROOT
ATOM      1  N   UNL     1       2.228   7.669  19.574  0.00  0.00    +0.000 N 
ATOM      2  C   UNL     1       2.311   6.286  19.746  0.00  0.00    +0.000 C 
ATOM      3  O   UNL     1       1.784   5.651  20.656  0.00  0.00    +0.000 OA
ATOM      4  H   UNL     1       2.885   8.102  18.942  0.00  0.00    +0.000 HD
ENDROOT
BRANCH   1  12
ATOM      5  C   UNL     1       0.621   9.795  18.231  0.00  0.00    +0.000 C 
ATOM      6  C   UNL     1       0.638   9.551  19.719  0.00  0.00    +0.000 A 
ATOM      7  C   UNL     1      -0.156  10.403  20.517  0.00  0.00    +0.000 A 
ATOM      8  C   UNL     1      -0.194  10.260  21.902  0.00  0.00    +0.000 A 
ATOM      9 CL   UNL     1      -1.147  11.326  22.855  0.00  0.00    +0.000 Cl
ATOM     10  C   UNL     1       0.536   9.255  22.513  0.00  0.00    +0.000 A 
ATOM     11  C   UNL     1       1.316   8.399  21.736  0.00  0.00    +0.000 A 
ATOM     12  C   UNL     1       1.403   8.540  20.340  0.00  0.00    +0.000 A 
ENDBRANCH   1  12
BRANCH   2  13
ATOM     13  C   UNL     1       3.141   5.550  18.693  0.00  0.00    +0.000 C 
BRANCH  13  14
ATOM     14  N   UNL     1       4.436   6.189  18.406  0.00  0.00    +0.000 NA
ATOM     15  C   UNL     1       4.570   6.868  17.123  0.00  0.00    +0.000 C 
ATOM     16  C   UNL     1       5.206   6.057  16.011  0.00  0.00    +0.000 C 
ATOM     17  S   UNL     1       6.824   5.526  16.493  0.00  0.00    +0.000 S 
ATOM     18  O   UNL     1       7.277   4.543  15.526  0.00  0.00    +0.000 OA
ATOM     19  O   UNL     1       7.630   6.701  16.774  0.00  0.00    +0.000 OA
ATOM     20  C   UNL     1       6.485   4.692  18.014  0.00  0.00    +0.000 C 
ATOM     21  C   UNL     1       5.646   5.560  18.943  0.00  0.00    +0.000 C 
ENDBRANCH  13  14
ENDBRANCH   2  13
TORSDOF 3
ENDMDL
MODEL 3
REMARK VINA RESULT:      -6.7      1.067      2.358
REMARK  Name = 
REMARK  4 active torsions:
REMARK  status: ('A' for Active; 'I' for Inactive)
REMARK    1  A    between atoms: C_1  and  C_2
REMARK    2  A    between atoms: C_8  and  N_9
REMARK    3  A    between atoms: C_10  and  C_12
REMARK    4  A    between atoms: C_12  and  N_13
REMARK                            x       y       z     vdW  Elec       q    Type
REMARK                         _______ _______ _______ _____ _____    ______ ____
ROOT
ATOM      1  N   UNL     1       2.893   7.123  19.628  0.00  0.00    +0.000 N 
ATOM      2  C   UNL     1       2.761   5.788  19.244  0.00  0.00    +0.000 C 
ATOM      3  O   UNL     1       1.764   5.294  18.722  0.00  0.00    +0.000 OA
ATOM      4  H   UNL     1       3.650   7.358  20.254  0.00  0.00    +0.000 HD
ENDROOT
BRANCH   1  12
ATOM      5  C   UNL     1       1.253   8.317  21.817  0.00  0.00    +0.000 C 
ATOM      6  C   UNL     1       1.169   8.726  20.368  0.00  0.00    +0.000 A 
ATOM      7  C   UNL     1       0.237   9.735  20.041  0.00  0.00    +0.000 A 
ATOM      8  C   UNL     1       0.081  10.170  18.726  0.00  0.00    +0.000 A 
ATOM      9 CL   UNL     1      -1.078  11.381  18.348  0.00  0.00    +0.000 Cl
ATOM     10  C   UNL     1       0.864   9.626  17.722  0.00  0.00    +0.000 A 
ATOM     11  C   UNL     1       1.796   8.637  18.033  0.00  0.00    +0.000 A 
ATOM     12  C   UNL     1       1.952   8.152  19.344  0.00  0.00    +0.000 A 
ENDBRANCH   1  12
BRANCH   2  13
ATOM     13  C   UNL     1       3.980   4.909  19.524  0.00  0.00    +0.000 C 
BRANCH  13  14
ATOM     14  N   UNL     1       4.894   4.780  18.376  0.00  0.00    +0.000 NA
ATOM     15  C   UNL     1       6.312   4.615  18.673  0.00  0.00    +0.000 C 
ATOM     16  C   UNL     1       7.143   5.883  18.648  0.00  0.00    +0.000 C 
ATOM     17  S   UNL     1       7.029   6.655  17.061  0.00  0.00    +0.000 S 
ATOM     18  O   UNL     1       7.608   7.981  17.166  0.00  0.00    +0.000 OA
ATOM     19  O   UNL     1       7.515   5.722  16.058  0.00  0.00    +0.000 OA
ATOM     20  C   UNL     1       5.279   6.827  16.875  0.00  0.00    +0.000 C 
ATOM     21  C   UNL     1       4.564   5.510  17.149  0.00  0.00    +0.000 C 
ENDBRANCH  13  14
ENDBRANCH   2  13
TORSDOF 3
ENDMDL
MODEL 4
REMARK VINA RESULT:      -6.7      1.352      1.557
REMARK  Name = 
REMARK  4 active torsions:
REMARK  status: ('A' for Active; 'I' for Inactive)
REMARK    1  A    between atoms: C_1  and  C_2
REMARK    2  A    between atoms: C_8  and  N_9
REMARK    3  A    between atoms: C_10  and  C_12
REMARK    4  A    between atoms: C_12  and  N_13
REMARK                            x       y       z     vdW  Elec       q    Type
REMARK                         _______ _______ _______ _____ _____    ______ ____
ROOT
ATOM      1  N   UNL     1       2.158   7.784  18.942  0.00  0.00    +0.000 N 
ATOM      2  C   UNL     1       2.453   6.424  19.035  0.00  0.00    +0.000 C 
ATOM      3  O   UNL     1       2.236   5.716  20.017  0.00  0.00    +0.000 OA
ATOM      4  H   UNL     1       2.591   8.306  18.193  0.00  0.00    +0.000 HD
ENDROOT
BRANCH   1  12
ATOM      5  C   UNL     1       0.287   9.945  18.083  0.00  0.00    +0.000 C 
ATOM      6  C   UNL     1       0.541   9.557  19.517  0.00  0.00    +0.000 A 
ATOM      7  C   UNL     1      -0.151  10.286  20.510  0.00  0.00    +0.000 A 
ATOM      8  C   UNL     1       0.029  10.006  21.862  0.00  0.00    +0.000 A 
ATOM      9 CL   UNL     1      -0.805  10.922  23.053  0.00  0.00    +0.000 Cl
ATOM     10  C   UNL     1       0.881   8.986  22.249  0.00  0.00    +0.000 A 
ATOM     11  C   UNL     1       1.563   8.251  21.279  0.00  0.00    +0.000 A 
ATOM     12  C   UNL     1       1.429   8.532  19.908  0.00  0.00    +0.000 A 
ENDBRANCH   1  12
BRANCH   2  13
ATOM     13  C   UNL     1       3.103   5.813  17.794  0.00  0.00    +0.000 C 
BRANCH  13  14
ATOM     14  N   UNL     1       4.442   5.251  18.041  0.00  0.00    +0.000 NA
ATOM     15  C   UNL     1       5.535   6.199  18.218  0.00  0.00    +0.000 C 
ATOM     16  C   UNL     1       6.357   6.497  16.978  0.00  0.00    +0.000 C 
ATOM     17  S   UNL     1       7.057   5.004  16.338  0.00  0.00    +0.000 S 
ATOM     18  O   UNL     1       7.599   5.294  15.023  0.00  0.00    +0.000 OA
ATOM     19  O   UNL     1       7.901   4.414  17.362  0.00  0.00    +0.000 OA
ATOM     20  C   UNL     1       5.620   3.996  16.136  0.00  0.00    +0.000 C 
ATOM     21  C   UNL     1       4.779   3.974  17.407  0.00  0.00    +0.000 C 
ENDBRANCH  13  14
ENDBRANCH   2  13
TORSDOF 3
ENDMDL
MODEL 5
REMARK VINA RESULT:      -6.7      0.803      1.637
REMARK  Name = 
REMARK  4 active torsions:
REMARK  status: ('A' for Active; 'I' for Inactive)
REMARK    1  A    between atoms: C_1  and  C_2
REMARK    2  A    between atoms: C_8  and  N_9
REMARK    3  A    between atoms: C_10  and  C_12
REMARK    4  A    between atoms: C_12  and  N_13
REMARK                            x       y       z     vdW  Elec       q    Type
REMARK                         _______ _______ _______ _____ _____    ______ ____
ROOT
ATOM      1  N   UNL     1       2.827   6.897  20.129  0.00  0.00    +0.000 N 
ATOM      2  C   UNL     1       2.773   5.692  19.428  0.00  0.00    +0.000 C 
ATOM      3  O   UNL     1       1.807   5.288  18.784  0.00  0.00    +0.000 OA
ATOM      4  H   UNL     1       3.568   7.011  20.806  0.00  0.00    +0.000 HD
ENDROOT
BRANCH   1  12
ATOM      5  C   UNL     1       2.498   8.594  17.696  0.00  0.00    +0.000 C 
ATOM      6  C   UNL     1       1.664   8.724  18.945  0.00  0.00    +0.000 A 
ATOM      7  C   UNL     1       0.673   9.730  18.953  0.00  0.00    +0.000 A 
ATOM      8  C   UNL     1      -0.137   9.931  20.067  0.00  0.00    +0.000 A 
ATOM      9 CL   UNL     1      -1.319  11.179  20.063  0.00  0.00    +0.000 Cl
ATOM     10  C   UNL     1       0.008   9.123  21.182  0.00  0.00    +0.000 A 
ATOM     11  C   UNL     1       0.975   8.118  21.184  0.00  0.00    +0.000 A 
ATOM     12  C   UNL     1       1.832   7.913  20.089  0.00  0.00    +0.000 A 
ENDBRANCH   1  12
BRANCH   2  13
ATOM     13  C   UNL     1       4.039   4.838  19.505  0.00  0.00    +0.000 C 
BRANCH  13  14
ATOM     14  N   UNL     1       4.797   4.787  18.244  0.00  0.00    +0.000 NA
ATOM     15  C   UNL     1       6.195   4.380  18.327  0.00  0.00    +0.000 C 
ATOM     16  C   UNL     1       7.207   5.508  18.394  0.00  0.00    +0.000 C 
ATOM     17  S   UNL     1       7.050   6.552  16.975  0.00  0.00    +0.000 S 
ATOM     18  O   UNL     1       7.838   7.748  17.212  0.00  0.00    +0.000 OA
ATOM     19  O   UNL     1       7.278   5.751  15.785  0.00  0.00    +0.000 OA
ATOM     20  C   UNL     1       5.340   6.992  17.045  0.00  0.00    +0.000 C 
ATOM     21  C   UNL     1       4.460   5.758  17.199  0.00  0.00    +0.000 C 
ENDBRANCH  13  14
ENDBRANCH   2  13
TORSDOF 3
ENDMDL
MODEL 6
REMARK VINA RESULT:      -6.6      1.346      2.264
REMARK  Name = 
REMARK  4 active torsions:
REMARK  status: ('A' for Active; 'I' for Inactive)
REMARK    1  A    between atoms: C_1  and  C_2
REMARK    2  A    between atoms: C_8  and  N_9
REMARK    3  A    between atoms: C_10  and  C_12
REMARK    4  A    between atoms: C_12  and  N_13
REMARK                            x       y       z     vdW  Elec       q    Type
REMARK                         _______ _______ _______ _____ _____    ______ ____
ROOT
ATOM      1  N   UNL     1       2.605   6.693  19.886  0.00  0.00    +0.000 N 
ATOM      2  C   UNL     1       2.660   5.567  19.063  0.00  0.00    +0.000 C 
ATOM      3  O   UNL     1       2.095   5.452  17.978  0.00  0.00    +0.000 OA
ATOM      4  H   UNL     1       2.904   6.586  20.845  0.00  0.00    +0.000 HD
ENDROOT
BRANCH   1  12
ATOM      5  C   UNL     1       0.986   8.211  21.880  0.00  0.00    +0.000 C 
ATOM      6  C   UNL     1       1.240   8.664  20.465  0.00  0.00    +0.000 A 
ATOM      7  C   UNL     1       0.653   9.887  20.070  0.00  0.00    +0.000 A 
ATOM      8  C   UNL     1       0.823  10.379  18.778  0.00  0.00    +0.000 A 
ATOM      9 CL   UNL     1       0.078  11.856  18.311  0.00  0.00    +0.000 Cl
ATOM     10  C   UNL     1       1.596   9.679  17.868  0.00  0.00    +0.000 A 
ATOM     11  C   UNL     1       2.190   8.477  18.248  0.00  0.00    +0.000 A 
ATOM     12  C   UNL     1       2.009   7.935  19.533  0.00  0.00    +0.000 A 
ENDBRANCH   1  12
BRANCH   2  13
ATOM     13  C   UNL     1       3.498   4.407  19.604  0.00  0.00    +0.000 C 
BRANCH  13  14
ATOM     14  N   UNL     1       4.774   4.217  18.895  0.00  0.00    +0.000 NA
ATOM     15  C   UNL     1       5.742   5.304  18.970  0.00  0.00    +0.000 C 
ATOM     16  C   UNL     1       5.732   6.278  17.807  0.00  0.00    +0.000 C 
ATOM     17  S   UNL     1       6.028   5.418  16.290  0.00  0.00    +0.000 S 
ATOM     18  O   UNL     1       5.743   6.330  15.197  0.00  0.00    +0.000 OA
ATOM     19  O   UNL     1       7.321   4.762  16.376  0.00  0.00    +0.000 OA
ATOM     20  C   UNL     1       4.762   4.185  16.328  0.00  0.00    +0.000 C 
ATOM     21  C   UNL     1       4.762   3.437  17.655  0.00  0.00    +0.000 C 
ENDBRANCH  13  14
ENDBRANCH   2  13
TORSDOF 3
ENDMDL
MODEL 7
REMARK VINA RESULT:      -6.5      1.124      1.390
REMARK  Name = 
REMARK  4 active torsions:
REMARK  status: ('A' for Active; 'I' for Inactive)
REMARK    1  A    between atoms: C_1  and  C_2
REMARK    2  A    between atoms: C_8  and  N_9
REMARK    3  A    between atoms: C_10  and  C_12
REMARK    4  A    between atoms: C_12  and  N_13
REMARK                            x       y       z     vdW  Elec       q    Type
REMARK                         _______ _______ _______ _____ _____    ______ ____
ROOT
ATOM      1  N   UNL     1       2.534   7.349  20.005  0.00  0.00    +0.000 N 
ATOM      2  C   UNL     1       2.304   5.973  19.994  0.00  0.00    +0.000 C 
ATOM      3  O   UNL     1       1.304   5.416  20.442  0.00  0.00    +0.000 OA
ATOM      4  H   UNL     1       3.476   7.667  19.832  0.00  0.00    +0.000 HD
ENDROOT
BRANCH   1  12
ATOM      5  C   UNL     1       1.415   9.261  18.006  0.00  0.00    +0.000 C 
ATOM      6  C   UNL     1       1.049   9.245  19.468  0.00  0.00    +0.000 A 
ATOM      7  C   UNL     1       0.122  10.216  19.906  0.00  0.00    +0.000 A 
ATOM      8  C   UNL     1      -0.267  10.285  21.242  0.00  0.00    +0.000 A 
ATOM      9 CL   UNL     1      -1.377  11.492  21.758  0.00  0.00    +0.000 Cl
ATOM     10  C   UNL     1       0.239   9.378  22.157  0.00  0.00    +0.000 A 
ATOM     11  C   UNL     1       1.147   8.407  21.735  0.00  0.00    +0.000 A 
ATOM     12  C   UNL     1       1.586   8.333  20.402  0.00  0.00    +0.000 A 
ENDBRANCH   1  12
BRANCH   2  13
ATOM     13  C   UNL     1       3.419   5.133  19.371  0.00  0.00    +0.000 C 
BRANCH  13  14
ATOM     14  N   UNL     1       3.715   5.484  17.972  0.00  0.00    +0.000 NA
ATOM     15  C   UNL     1       3.834   4.384  17.023  0.00  0.00    +0.000 C 
ATOM     16  C   UNL     1       5.244   3.896  16.751  0.00  0.00    +0.000 C 
ATOM     17  S   UNL     1       6.240   5.224  16.140  0.00  0.00    +0.000 S 
ATOM     18  O   UNL     1       7.624   4.787  16.152  0.00  0.00    +0.000 OA
ATOM     19  O   UNL     1       5.642   5.722  14.912  0.00  0.00    +0.000 OA
ATOM     20  C   UNL     1       6.031   6.438  17.407  0.00  0.00    +0.000 C 
ATOM     21  C   UNL     1       4.556   6.657  17.721  0.00  0.00    +0.000 C 
ENDBRANCH  13  14
ENDBRANCH   2  13
TORSDOF 3
ENDMDL
MODEL 8
REMARK VINA RESULT:      -6.5      4.480      6.853
REMARK  Name = 
REMARK  4 active torsions:
REMARK  status: ('A' for Active; 'I' for Inactive)
REMARK    1  A    between atoms: C_1  and  C_2
REMARK    2  A    between atoms: C_8  and  N_9
REMARK    3  A    between atoms: C_10  and  C_12
REMARK    4  A    between atoms: C_12  and  N_13
REMARK                            x       y       z     vdW  Elec       q    Type
REMARK                         _______ _______ _______ _____ _____    ______ ____
ROOT
ATOM      1  N   UNL     1       4.726   5.488  17.995  0.00  0.00    +0.000 N 
ATOM      2  C   UNL     1       3.715   6.429  18.193  0.00  0.00    +0.000 C 
ATOM      3  O   UNL     1       3.399   7.310  17.397  0.00  0.00    +0.000 OA
ATOM      4  H   UNL     1       5.052   4.975  18.801  0.00  0.00    +0.000 HD
ENDROOT
BRANCH   1  12
ATOM      5  C   UNL     1       7.403   6.756  17.633  0.00  0.00    +0.000 C 
ATOM      6  C   UNL     1       6.717   5.903  16.597  0.00  0.00    +0.000 A 
ATOM      7  C   UNL     1       7.396   5.712  15.373  0.00  0.00    +0.000 A 
ATOM      8  C   UNL     1       6.834   4.948  14.353  0.00  0.00    +0.000 A 
ATOM      9 CL   UNL     1       7.667   4.751  12.863  0.00  0.00    +0.000 Cl
ATOM     10  C   UNL     1       5.603   4.344  14.540  0.00  0.00    +0.000 A 
ATOM     11  C   UNL     1       4.926   4.515  15.747  0.00  0.00    +0.000 A 
ATOM     12  C   UNL     1       5.450   5.308  16.783  0.00  0.00    +0.000 A 
ENDBRANCH   1  12
BRANCH   2  13
ATOM     13  C   UNL     1       2.976   6.316  19.527  0.00  0.00    +0.000 C 
BRANCH  13  14
ATOM     14  N   UNL     1       2.154   5.101  19.649  0.00  0.00    +0.000 NA
ATOM     15  C   UNL     1       2.551   4.131  20.662  0.00  0.00    +0.000 C 
ATOM     16  C   UNL     1       3.415   2.983  20.174  0.00  0.00    +0.000 C 
ATOM     17  S   UNL     1       2.577   2.092  18.896  0.00  0.00    +0.000 S 
ATOM     18  O   UNL     1       3.532   1.188  18.282  0.00  0.00    +0.000 OA
ATOM     19  O   UNL     1       1.328   1.579  19.434  0.00  0.00    +0.000 OA
ATOM     20  C   UNL     1       2.212   3.381  17.743  0.00  0.00    +0.000 C 
ATOM     21  C   UNL     1       1.540   4.562  18.433  0.00  0.00    +0.000 C 
ENDBRANCH  13  14
ENDBRANCH   2  13
TORSDOF 3
ENDMDL
MODEL 9
REMARK VINA RESULT:      -6.3      1.394      1.855
REMARK  Name = 
REMARK  4 active torsions:
REMARK  status: ('A' for Active; 'I' for Inactive)
REMARK    1  A    between atoms: C_1  and  C_2
REMARK    2  A    between atoms: C_8  and  N_9
REMARK    3  A    between atoms: C_10  and  C_12
REMARK    4  A    between atoms: C_12  and  N_13
REMARK                            x       y       z     vdW  Elec       q    Type
REMARK                         _______ _______ _______ _____ _____    ______ ____
ROOT
ATOM      1  N   UNL     1       2.871   6.281  20.153  0.00  0.00    +0.000 N 
ATOM      2  C   UNL     1       2.736   5.074  19.467  0.00  0.00    +0.000 C 
ATOM      3  O   UNL     1       1.873   4.827  18.627  0.00  0.00    +0.000 OA
ATOM      4  H   UNL     1       3.455   6.288  20.977  0.00  0.00    +0.000 HD
ENDROOT
BRANCH   1  12
ATOM      5  C   UNL     1       3.201   7.719  17.559  0.00  0.00    +0.000 C 
ATOM      6  C   UNL     1       2.272   8.154  18.663  0.00  0.00    +0.000 A 
ATOM      7  C   UNL     1       1.523   9.331  18.443  0.00  0.00    +0.000 A 
ATOM      8  C   UNL     1       0.647   9.816  19.411  0.00  0.00    +0.000 A 
ATOM      9 CL   UNL     1      -0.235  11.265  19.131  0.00  0.00    +0.000 Cl
ATOM     10  C   UNL     1       0.483   9.129  20.601  0.00  0.00    +0.000 A 
ATOM     11  C   UNL     1       1.208   7.959  20.827  0.00  0.00    +0.000 A 
ATOM     12  C   UNL     1       2.125   7.463  19.885  0.00  0.00    +0.000 A 
ENDBRANCH   1  12
BRANCH   2  13
ATOM     13  C   UNL     1       3.764   4.001  19.830  0.00  0.00    +0.000 C 
BRANCH  13  14
ATOM     14  N   UNL     1       4.807   3.811  18.809  0.00  0.00    +0.000 NA
ATOM     15  C   UNL     1       5.956   4.707  18.859  0.00  0.00    +0.000 C 
ATOM     16  C   UNL     1       5.887   5.919  17.950  0.00  0.00    +0.000 C 
ATOM     17  S   UNL     1       5.696   5.408  16.267  0.00  0.00    +0.000 S 
ATOM     18  O   UNL     1       5.367   6.581  15.479  0.00  0.00    +0.000 OA
ATOM     19  O   UNL     1       6.834   4.580  15.905  0.00  0.00    +0.000 OA
ATOM     20  C   UNL     1       4.258   4.386  16.367  0.00  0.00    +0.000 C 
ATOM     21  C   UNL     1       4.393   3.354  17.479  0.00  0.00    +0.000 C 
ENDBRANCH  13  14
ENDBRANCH   2  13
TORSDOF 3
ENDMDL
