MODEL 1
REMARK VINA RESULT:      -7.3      0.000      0.000
REMARK  Name = 
REMARK  6 active torsions:
REMARK  status: ('A' for Active; 'I' for Inactive)
REMARK    1  A    between atoms: C_1  and  C_2
REMARK    2  A    between atoms: C_4  and  C_5
REMARK    3  A    between atoms: C_6  and  C_7
REMARK    4  A    between atoms: C_7  and  C_8
REMARK    5  A    between atoms: C_8  and  N_9
REMARK    6  A    between atoms: C_15  and  C_16
REMARK                            x       y       z     vdW  Elec       q    Type
REMARK                         _______ _______ _______ _____ _____    ______ ____
ROOT
ATOM      1  N   UNL     1       2.900   5.932  18.793  0.00  0.00    +0.000 N 
ATOM      2  C   UNL     1       2.262   6.571  19.818  0.00  0.00    +0.000 C 
ATOM      3  O   UNL     1       1.994   5.979  20.869  0.00  0.00    +0.000 OA
ATOM      4  N   UNL     1       1.916   7.883  19.614  0.00  0.00    +0.000 N 
ATOM      5  C   UNL     1       1.361   8.623  20.749  0.00  0.00    +0.000 C 
ATOM      6  C   UNL     1       0.107   9.391  20.354  0.00  0.00    +0.000 C 
ATOM      7  C   UNL     1       0.356  10.308  19.151  0.00  0.00    +0.000 C 
ATOM      8  C   UNL     1       0.981   9.506  17.998  0.00  0.00    +0.000 C 
ATOM      9  C   UNL     1       2.203   8.687  18.424  0.00  0.00    +0.000 C 
ATOM     10  H   UNL     1       3.558   6.526  18.307  0.00  0.00    +0.000 HD
ENDROOT
BRANCH   7  11
ATOM     11  C   UNL     1       1.159  11.522  19.522  0.00  0.00    +0.000 A 
ATOM     12  C   UNL     1       1.935  12.325  18.718  0.00  0.00    +0.000 A 
ATOM     13  N   UNL     1       2.438  13.293  19.546  0.00  0.00    +0.000 N 
ATOM     14  C   UNL     1       1.963  13.048  20.799  0.00  0.00    +0.000 A 
ATOM     15  N   UNL     1       1.189  11.990  20.818  0.00  0.00    +0.000 NA
ATOM     16  H   UNL     1       3.055  14.049  19.286  0.00  0.00    +0.000 HD
ENDBRANCH   7  11
BRANCH   1  17
ATOM     17  C   UNL     1       3.338   4.548  18.975  0.00  0.00    +0.000 C 
BRANCH  17  18
ATOM     18  C   UNL     1       4.853   4.403  19.202  0.00  0.00    +0.000 C 
BRANCH  18  24
ATOM     19  C   UNL     1       6.780   4.460  14.231  0.00  0.00    +0.000 C 
ATOM     20  C   UNL     1       6.561   4.609  15.697  0.00  0.00    +0.000 A 
ATOM     21  N   UNL     1       7.435   5.137  16.522  0.00  0.00    +0.000 NA
ATOM     22  C   UNL     1       6.940   5.134  17.816  0.00  0.00    +0.000 A 
ATOM     23  C   UNL     1       7.807   5.669  18.899  0.00  0.00    +0.000 C 
ATOM     24  C   UNL     1       5.665   4.605  17.953  0.00  0.00    +0.000 A 
ATOM     25  S   UNL     1       5.093   4.084  16.420  0.00  0.00    +0.000 S 
ENDBRANCH  18  24
ENDBRANCH  17  18
ENDBRANCH   1  17
TORSDOF 4
ENDMDL
MODEL 2
REMARK VINA RESULT:      -7.3      2.495      8.228
REMARK  Name = 
REMARK  6 active torsions:
REMARK  status: ('A' for Active; 'I' for Inactive)
REMARK    1  A    between atoms: C_1  and  C_2
REMARK    2  A    between atoms: C_4  and  C_5
REMARK    3  A    between atoms: C_6  and  C_7
REMARK    4  A    between atoms: C_7  and  C_8
REMARK    5  A    between atoms: C_8  and  N_9
REMARK    6  A    between atoms: C_15  and  C_16
REMARK                            x       y       z     vdW  Elec       q    Type
REMARK                         _______ _______ _______ _____ _____    ______ ____
ROOT
ATOM      1  N   UNL     1       2.568   6.864  19.433  0.00  0.00    +0.000 N 
ATOM      2  C   UNL     1       3.368   5.756  19.448  0.00  0.00    +0.000 C 
ATOM      3  O   UNL     1       3.241   4.891  20.320  0.00  0.00    +0.000 OA
ATOM      4  N   UNL     1       4.325   5.667  18.469  0.00  0.00    +0.000 N 
ATOM      5  C   UNL     1       5.094   4.425  18.383  0.00  0.00    +0.000 C 
ATOM      6  C   UNL     1       6.586   4.700  18.262  0.00  0.00    +0.000 C 
ATOM      7  C   UNL     1       6.899   5.639  17.091  0.00  0.00    +0.000 C 
ATOM      8  C   UNL     1       6.040   6.909  17.190  0.00  0.00    +0.000 C 
ATOM      9  C   UNL     1       4.548   6.617  17.377  0.00  0.00    +0.000 C 
ATOM     10  H   UNL     1       2.319   7.159  18.498  0.00  0.00    +0.000 HD
ENDROOT
BRANCH   7  11
ATOM     11  C   UNL     1       6.772   4.948  15.763  0.00  0.00    +0.000 A 
ATOM     12  C   UNL     1       6.062   3.812  15.444  0.00  0.00    +0.000 A 
ATOM     13  N   UNL     1       6.273   3.615  14.105  0.00  0.00    +0.000 N 
ATOM     14  C   UNL     1       7.089   4.615  13.667  0.00  0.00    +0.000 A 
ATOM     15  N   UNL     1       7.406   5.433  14.641  0.00  0.00    +0.000 NA
ATOM     16  H   UNL     1       5.902   2.866  13.540  0.00  0.00    +0.000 HD
ENDBRANCH   7  11
BRANCH   1  17
ATOM     17  C   UNL     1       1.497   6.986  20.422  0.00  0.00    +0.000 C 
BRANCH  17  18
ATOM     18  C   UNL     1       1.601   8.248  21.295  0.00  0.00    +0.000 C 
BRANCH  18  24
ATOM     19  C   UNL     1      -1.025  12.074  18.669  0.00  0.00    +0.000 C 
ATOM     20  C   UNL     1      -0.506  11.112  19.681  0.00  0.00    +0.000 A 
ATOM     21  N   UNL     1      -0.919  11.060  20.926  0.00  0.00    +0.000 NA
ATOM     22  C   UNL     1      -0.249  10.063  21.616  0.00  0.00    +0.000 A 
ATOM     23  C   UNL     1      -0.564   9.873  23.056  0.00  0.00    +0.000 C 
ATOM     24  C   UNL     1       0.673   9.350  20.862  0.00  0.00    +0.000 A 
ATOM     25  S   UNL     1       0.704   9.967  19.260  0.00  0.00    +0.000 S 
ENDBRANCH  18  24
ENDBRANCH  17  18
ENDBRANCH   1  17
TORSDOF 4
ENDMDL
MODEL 3
REMARK VINA RESULT:      -7.1      3.816      8.566
REMARK  Name = 
REMARK  6 active torsions:
REMARK  status: ('A' for Active; 'I' for Inactive)
REMARK    1  A    between atoms: C_1  and  C_2
REMARK    2  A    between atoms: C_4  and  C_5
REMARK    3  A    between atoms: C_6  and  C_7
REMARK    4  A    between atoms: C_7  and  C_8
REMARK    5  A    between atoms: C_8  and  N_9
REMARK    6  A    between atoms: C_15  and  C_16
REMARK                            x       y       z     vdW  Elec       q    Type
REMARK                         _______ _______ _______ _____ _____    ______ ____
ROOT
ATOM      1  N   UNL     1       1.503   7.981  21.217  0.00  0.00    +0.000 N 
ATOM      2  C   UNL     1       1.889   7.555  19.977  0.00  0.00    +0.000 C 
ATOM      3  O   UNL     1       2.080   8.359  19.059  0.00  0.00    +0.000 OA
ATOM      4  N   UNL     1       2.030   6.202  19.800  0.00  0.00    +0.000 N 
ATOM      5  C   UNL     1       2.578   5.738  18.525  0.00  0.00    +0.000 C 
ATOM      6  C   UNL     1       1.748   4.603  17.940  0.00  0.00    +0.000 C 
ATOM      7  C   UNL     1       1.580   3.449  18.935  0.00  0.00    +0.000 C 
ATOM      8  C   UNL     1       1.048   3.981  20.275  0.00  0.00    +0.000 C 
ATOM      9  C   UNL     1       1.853   5.164  20.819  0.00  0.00    +0.000 C 
ATOM     10  H   UNL     1       1.921   7.445  21.966  0.00  0.00    +0.000 HD
ENDROOT
BRANCH   7  11
ATOM     11  C   UNL     1       2.840   2.644  19.084  0.00  0.00    +0.000 A 
ATOM     12  C   UNL     1       3.807   2.723  20.061  0.00  0.00    +0.000 A 
ATOM     13  N   UNL     1       4.732   1.767  19.736  0.00  0.00    +0.000 N 
ATOM     14  C   UNL     1       4.307   1.156  18.594  0.00  0.00    +0.000 A 
ATOM     15  N   UNL     1       3.171   1.661  18.178  0.00  0.00    +0.000 NA
ATOM     16  H   UNL     1       5.580   1.554  20.239  0.00  0.00    +0.000 HD
ENDBRANCH   7  11
BRANCH   1  17
ATOM     17  C   UNL     1       1.388   9.415  21.477  0.00  0.00    +0.000 C 
BRANCH  17  18
ATOM     18  C   UNL     1      -0.042   9.960  21.324  0.00  0.00    +0.000 C 
BRANCH  18  24
ATOM     19  C   UNL     1      -0.111  14.865  19.235  0.00  0.00    +0.000 C 
ATOM     20  C   UNL     1      -0.190  13.398  19.478  0.00  0.00    +0.000 A 
ATOM     21  N   UNL     1      -0.538  12.519  18.568  0.00  0.00    +0.000 NA
ATOM     22  C   UNL     1      -0.516  11.239  19.098  0.00  0.00    +0.000 A 
ATOM     23  C   UNL     1      -0.912  10.108  18.218  0.00  0.00    +0.000 C 
ATOM     24  C   UNL     1      -0.129  11.165  20.429  0.00  0.00    +0.000 A 
ATOM     25  S   UNL     1       0.192  12.745  21.021  0.00  0.00    +0.000 S 
ENDBRANCH  18  24
ENDBRANCH  17  18
ENDBRANCH   1  17
TORSDOF 4
ENDMDL
MODEL 4
REMARK VINA RESULT:      -7.1      3.840      8.706
REMARK  Name = 
REMARK  6 active torsions:
REMARK  status: ('A' for Active; 'I' for Inactive)
REMARK    1  A    between atoms: C_1  and  C_2
REMARK    2  A    between atoms: C_4  and  C_5
REMARK    3  A    between atoms: C_6  and  C_7
REMARK    4  A    between atoms: C_7  and  C_8
REMARK    5  A    between atoms: C_8  and  N_9
REMARK    6  A    between atoms: C_15  and  C_16
REMARK                            x       y       z     vdW  Elec       q    Type
REMARK                         _______ _______ _______ _____ _____    ______ ____
ROOT
ATOM      1  N   UNL     1       1.699   7.874  21.367  0.00  0.00    +0.000 N 
ATOM      2  C   UNL     1       2.006   7.465  20.100  0.00  0.00    +0.000 C 
ATOM      3  O   UNL     1       2.158   8.282  19.186  0.00  0.00    +0.000 OA
ATOM      4  N   UNL     1       2.112   6.113  19.892  0.00  0.00    +0.000 N 
ATOM      5  C   UNL     1       2.578   5.662  18.579  0.00  0.00    +0.000 C 
ATOM      6  C   UNL     1       1.696   4.552  18.025  0.00  0.00    +0.000 C 
ATOM      7  C   UNL     1       1.566   3.383  19.008  0.00  0.00    +0.000 C 
ATOM      8  C   UNL     1       1.120   3.901  20.385  0.00  0.00    +0.000 C 
ATOM      9  C   UNL     1       1.976   5.060  20.902  0.00  0.00    +0.000 C 
ATOM     10  H   UNL     1       2.150   7.318  22.081  0.00  0.00    +0.000 HD
ENDROOT
BRANCH   7  11
ATOM     11  C   UNL     1       2.818   2.555  19.070  0.00  0.00    +0.000 A 
ATOM     12  C   UNL     1       3.820   2.573  20.013  0.00  0.00    +0.000 A 
ATOM     13  N   UNL     1       4.718   1.622  19.608  0.00  0.00    +0.000 N 
ATOM     14  C   UNL     1       4.242   1.073  18.455  0.00  0.00    +0.000 A 
ATOM     15  N   UNL     1       3.100   1.613  18.106  0.00  0.00    +0.000 NA
ATOM     16  H   UNL     1       5.581   1.372  20.068  0.00  0.00    +0.000 HD
ENDBRANCH   7  11
BRANCH   1  17
ATOM     17  C   UNL     1       1.625   9.306  21.657  0.00  0.00    +0.000 C 
BRANCH  17  18
ATOM     18  C   UNL     1       0.287   9.744  22.278  0.00  0.00    +0.000 C 
BRANCH  18  24
ATOM     19  C   UNL     1      -2.176  11.961  18.101  0.00  0.00    +0.000 C 
ATOM     20  C   UNL     1      -1.656  11.611  19.452  0.00  0.00    +0.000 A 
ATOM     21  N   UNL     1      -1.926  12.290  20.543  0.00  0.00    +0.000 NA
ATOM     22  C   UNL     1      -1.297  11.717  21.636  0.00  0.00    +0.000 A 
ATOM     23  C   UNL     1      -1.463  12.369  22.962  0.00  0.00    +0.000 C 
ATOM     24  C   UNL     1      -0.554  10.580  21.353  0.00  0.00    +0.000 A 
ATOM     25  S   UNL     1      -0.639  10.244  19.671  0.00  0.00    +0.000 S 
ENDBRANCH  18  24
ENDBRANCH  17  18
ENDBRANCH   1  17
TORSDOF 4
ENDMDL
MODEL 5
REMARK VINA RESULT:      -7.1      3.881      9.030
REMARK  Name = 
REMARK  6 active torsions:
REMARK  status: ('A' for Active; 'I' for Inactive)
REMARK    1  A    between atoms: C_1  and  C_2
REMARK    2  A    between atoms: C_4  and  C_5
REMARK    3  A    between atoms: C_6  and  C_7
REMARK    4  A    between atoms: C_7  and  C_8
REMARK    5  A    between atoms: C_8  and  N_9
REMARK    6  A    between atoms: C_15  and  C_16
REMARK                            x       y       z     vdW  Elec       q    Type
REMARK                         _______ _______ _______ _____ _____    ______ ____
ROOT
ATOM      1  N   UNL     1       1.466   7.774  21.202  0.00  0.00    +0.000 N 
ATOM      2  C   UNL     1       1.919   7.360  19.981  0.00  0.00    +0.000 C 
ATOM      3  O   UNL     1       2.190   8.175  19.093  0.00  0.00    +0.000 OA
ATOM      4  N   UNL     1       2.032   6.007  19.786  0.00  0.00    +0.000 N 
ATOM      5  C   UNL     1       2.648   5.550  18.539  0.00  0.00    +0.000 C 
ATOM      6  C   UNL     1       1.825   4.451  17.881  0.00  0.00    +0.000 C 
ATOM      7  C   UNL     1       1.562   3.284  18.840  0.00  0.00    +0.000 C 
ATOM      8  C   UNL     1       0.960   3.808  20.154  0.00  0.00    +0.000 C 
ATOM      9  C   UNL     1       1.762   4.957  20.771  0.00  0.00    +0.000 C 
ATOM     10  H   UNL     1       1.820   7.213  21.965  0.00  0.00    +0.000 HD
ENDROOT
BRANCH   7  11
ATOM     11  C   UNL     1       2.786   2.440  19.052  0.00  0.00    +0.000 A 
ATOM     12  C   UNL     1       3.365   1.527  18.200  0.00  0.00    +0.000 A 
ATOM     13  N   UNL     1       4.459   1.046  18.870  0.00  0.00    +0.000 N 
ATOM     14  C   UNL     1       4.503   1.668  20.082  0.00  0.00    +0.000 A 
ATOM     15  N   UNL     1       3.511   2.513  20.221  0.00  0.00    +0.000 NA
ATOM     16  H   UNL     1       5.112   0.352  18.538  0.00  0.00    +0.000 HD
ENDBRANCH   7  11
BRANCH   1  17
ATOM     17  C   UNL     1       1.376   9.207  21.482  0.00  0.00    +0.000 C 
BRANCH  17  18
ATOM     18  C   UNL     1       0.066   9.852  20.998  0.00  0.00    +0.000 C 
BRANCH  18  24
ATOM     19  C   UNL     1      -1.611  14.135  23.694  0.00  0.00    +0.000 C 
ATOM     20  C   UNL     1      -0.942  13.187  22.759  0.00  0.00    +0.000 A 
ATOM     21  N   UNL     1      -0.093  13.550  21.826  0.00  0.00    +0.000 NA
ATOM     22  C   UNL     1       0.355  12.443  21.124  0.00  0.00    +0.000 A 
ATOM     23  C   UNL     1       1.306  12.662  20.003  0.00  0.00    +0.000 C 
ATOM     24  C   UNL     1      -0.162  11.229  21.555  0.00  0.00    +0.000 A 
ATOM     25  S   UNL     1      -1.249  11.500  22.857  0.00  0.00    +0.000 S 
ENDBRANCH  18  24
ENDBRANCH  17  18
ENDBRANCH   1  17
TORSDOF 4
ENDMDL
MODEL 6
REMARK VINA RESULT:      -6.9      3.856      8.955
REMARK  Name = 
REMARK  6 active torsions:
REMARK  status: ('A' for Active; 'I' for Inactive)
REMARK    1  A    between atoms: C_1  and  C_2
REMARK    2  A    between atoms: C_4  and  C_5
REMARK    3  A    between atoms: C_6  and  C_7
REMARK    4  A    between atoms: C_7  and  C_8
REMARK    5  A    between atoms: C_8  and  N_9
REMARK    6  A    between atoms: C_15  and  C_16
REMARK                            x       y       z     vdW  Elec       q    Type
REMARK                         _______ _______ _______ _____ _____    ______ ____
ROOT
ATOM      1  N   UNL     1       1.512   7.895  21.222  0.00  0.00    +0.000 N 
ATOM      2  C   UNL     1       1.914   7.474  19.986  0.00  0.00    +0.000 C 
ATOM      3  O   UNL     1       2.156   8.284  19.086  0.00  0.00    +0.000 OA
ATOM      4  N   UNL     1       2.013   6.120  19.792  0.00  0.00    +0.000 N 
ATOM      5  C   UNL     1       2.578   5.655  18.524  0.00  0.00    +0.000 C 
ATOM      6  C   UNL     1       1.724   4.559  17.902  0.00  0.00    +0.000 C 
ATOM      7  C   UNL     1       1.492   3.397  18.875  0.00  0.00    +0.000 C 
ATOM      8  C   UNL     1       0.944   3.928  20.209  0.00  0.00    +0.000 C 
ATOM      9  C   UNL     1       1.775   5.075  20.790  0.00  0.00    +0.000 C 
ATOM     10  H   UNL     1       1.892   7.334  21.973  0.00  0.00    +0.000 HD
ENDROOT
BRANCH   7  11
ATOM     11  C   UNL     1       2.719   2.547  19.042  0.00  0.00    +0.000 A 
ATOM     12  C   UNL     1       3.300   1.679  18.145  0.00  0.00    +0.000 A 
ATOM     13  N   UNL     1       4.395   1.168  18.789  0.00  0.00    +0.000 N 
ATOM     14  C   UNL     1       4.439   1.728  20.030  0.00  0.00    +0.000 A 
ATOM     15  N   UNL     1       3.445   2.563  20.213  0.00  0.00    +0.000 NA
ATOM     16  H   UNL     1       5.051   0.494  18.421  0.00  0.00    +0.000 HD
ENDBRANCH   7  11
BRANCH   1  17
ATOM     17  C   UNL     1       1.439   9.329  21.501  0.00  0.00    +0.000 C 
BRANCH  17  18
ATOM     18  C   UNL     1       0.053   9.942  21.241  0.00  0.00    +0.000 C 
BRANCH  18  24
ATOM     19  C   UNL     1       0.930  15.200  21.338  0.00  0.00    +0.000 C 
ATOM     20  C   UNL     1       0.416  13.818  21.545  0.00  0.00    +0.000 A 
ATOM     21  N   UNL     1      -0.579  13.515  22.347  0.00  0.00    +0.000 NA
ATOM     22  C   UNL     1      -0.820  12.152  22.323  0.00  0.00    +0.000 A 
ATOM     23  C   UNL     1      -1.898  11.615  23.196  0.00  0.00    +0.000 C 
ATOM     24  C   UNL     1       0.004  11.427  21.474  0.00  0.00    +0.000 A 
ATOM     25  S   UNL     1       1.116  12.490  20.711  0.00  0.00    +0.000 S 
ENDBRANCH  18  24
ENDBRANCH  17  18
ENDBRANCH   1  17
TORSDOF 4
ENDMDL
MODEL 7
REMARK VINA RESULT:      -6.9      0.999      1.852
REMARK  Name = 
REMARK  6 active torsions:
REMARK  status: ('A' for Active; 'I' for Inactive)
REMARK    1  A    between atoms: C_1  and  C_2
REMARK    2  A    between atoms: C_4  and  C_5
REMARK    3  A    between atoms: C_6  and  C_7
REMARK    4  A    between atoms: C_7  and  C_8
REMARK    5  A    between atoms: C_8  and  N_9
REMARK    6  A    between atoms: C_15  and  C_16
REMARK                            x       y       z     vdW  Elec       q    Type
REMARK                         _______ _______ _______ _____ _____    ______ ____
ROOT
ATOM      1  N   UNL     1       2.727   5.915  18.161  0.00  0.00    +0.000 N 
ATOM      2  C   UNL     1       2.295   6.514  19.311  0.00  0.00    +0.000 C 
ATOM      3  O   UNL     1       2.225   5.882  20.370  0.00  0.00    +0.000 OA
ATOM      4  N   UNL     1       1.924   7.832  19.224  0.00  0.00    +0.000 N 
ATOM      5  C   UNL     1       1.596   8.527  20.470  0.00  0.00    +0.000 C 
ATOM      6  C   UNL     1       0.295   9.308  20.346  0.00  0.00    +0.000 C 
ATOM      7  C   UNL     1       0.319  10.270  19.152  0.00  0.00    +0.000 C 
ATOM      8  C   UNL     1       0.713   9.514  17.874  0.00  0.00    +0.000 C 
ATOM      9  C   UNL     1       1.988   8.681  18.032  0.00  0.00    +0.000 C 
ATOM     10  H   UNL     1       3.286   6.528  17.582  0.00  0.00    +0.000 HD
ENDROOT
BRANCH   7  11
ATOM     11  C   UNL     1       1.183  11.471  19.413  0.00  0.00    +0.000 A 
ATOM     12  C   UNL     1       1.999  12.155  18.539  0.00  0.00    +0.000 A 
ATOM     13  N   UNL     1       2.553  13.168  19.276  0.00  0.00    +0.000 N 
ATOM     14  C   UNL     1       2.067  13.065  20.545  0.00  0.00    +0.000 A 
ATOM     15  N   UNL     1       1.240  12.054  20.659  0.00  0.00    +0.000 NA
ATOM     16  H   UNL     1       3.207  13.863  18.949  0.00  0.00    +0.000 HD
ENDBRANCH   7  11
BRANCH   1  17
ATOM     17  C   UNL     1       3.184   4.526  18.205  0.00  0.00    +0.000 C 
BRANCH  17  18
ATOM     18  C   UNL     1       4.190   4.169  17.098  0.00  0.00    +0.000 C 
BRANCH  18  24
ATOM     19  C   UNL     1       8.255   7.358  18.418  0.00  0.00    +0.000 C 
ATOM     20  C   UNL     1       7.270   6.489  17.715  0.00  0.00    +0.000 A 
ATOM     21  N   UNL     1       7.307   6.225  16.430  0.00  0.00    +0.000 NA
ATOM     22  C   UNL     1       6.259   5.390  16.078  0.00  0.00    +0.000 A 
ATOM     23  C   UNL     1       6.121   5.004  14.648  0.00  0.00    +0.000 C 
ATOM     24  C   UNL     1       5.433   5.015  17.128  0.00  0.00    +0.000 A 
ATOM     25  S   UNL     1       5.983   5.749  18.579  0.00  0.00    +0.000 S 
ENDBRANCH  18  24
ENDBRANCH  17  18
ENDBRANCH   1  17
TORSDOF 4
ENDMDL
MODEL 8
REMARK VINA RESULT:      -6.9      5.076      8.224
REMARK  Name = 
REMARK  6 active torsions:
REMARK  status: ('A' for Active; 'I' for Inactive)
REMARK    1  A    between atoms: C_1  and  C_2
REMARK    2  A    between atoms: C_4  and  C_5
REMARK    3  A    between atoms: C_6  and  C_7
REMARK    4  A    between atoms: C_7  and  C_8
REMARK    5  A    between atoms: C_8  and  N_9
REMARK    6  A    between atoms: C_15  and  C_16
REMARK                            x       y       z     vdW  Elec       q    Type
REMARK                         _______ _______ _______ _____ _____    ______ ____
ROOT
ATOM      1  N   UNL     1       7.096   8.211  17.901  0.00  0.00    +0.000 N 
ATOM      2  C   UNL     1       7.182   7.057  17.174  0.00  0.00    +0.000 C 
ATOM      3  O   UNL     1       8.079   6.894  16.341  0.00  0.00    +0.000 OA
ATOM      4  N   UNL     1       6.216   6.108  17.398  0.00  0.00    +0.000 N 
ATOM      5  C   UNL     1       6.371   4.812  16.735  0.00  0.00    +0.000 C 
ATOM      6  C   UNL     1       5.077   4.368  16.068  0.00  0.00    +0.000 C 
ATOM      7  C   UNL     1       3.902   4.360  17.053  0.00  0.00    +0.000 C 
ATOM      8  C   UNL     1       3.800   5.720  17.762  0.00  0.00    +0.000 C 
ATOM      9  C   UNL     1       5.125   6.185  18.372  0.00  0.00    +0.000 C 
ATOM     10  H   UNL     1       6.795   8.056  18.853  0.00  0.00    +0.000 HD
ENDROOT
BRANCH   7  11
ATOM     11  C   UNL     1       3.975   3.204  18.010  0.00  0.00    +0.000 A 
ATOM     12  C   UNL     1       4.562   3.148  19.254  0.00  0.00    +0.000 A 
ATOM     13  N   UNL     1       4.337   1.874  19.705  0.00  0.00    +0.000 N 
ATOM     14  C   UNL     1       3.639   1.214  18.738  0.00  0.00    +0.000 A 
ATOM     15  N   UNL     1       3.405   1.988  17.707  0.00  0.00    +0.000 NA
ATOM     16  H   UNL     1       4.637   1.485  20.587  0.00  0.00    +0.000 HD
ENDBRANCH   7  11
BRANCH   1  17
ATOM     17  C   UNL     1       8.129   9.235  17.741  0.00  0.00    +0.000 C 
BRANCH  17  18
ATOM     18  C   UNL     1       8.970   9.469  19.007  0.00  0.00    +0.000 C 
BRANCH  18  24
ATOM     19  C   UNL     1      11.418  14.136  18.194  0.00  0.00    +0.000 C 
ATOM     20  C   UNL     1      10.663  12.979  18.750  0.00  0.00    +0.000 A 
ATOM     21  N   UNL     1      10.167  12.939  19.965  0.00  0.00    +0.000 NA
ATOM     22  C   UNL     1       9.522  11.733  20.184  0.00  0.00    +0.000 A 
ATOM     23  C   UNL     1       8.919  11.493  21.522  0.00  0.00    +0.000 C 
ATOM     24  C   UNL     1       9.526  10.863  19.103  0.00  0.00    +0.000 A 
ATOM     25  S   UNL     1      10.380  11.578  17.796  0.00  0.00    +0.000 S 
ENDBRANCH  18  24
ENDBRANCH  17  18
ENDBRANCH   1  17
TORSDOF 4
ENDMDL
MODEL 9
REMARK VINA RESULT:      -6.9      2.719      8.786
REMARK  Name = 
REMARK  6 active torsions:
REMARK  status: ('A' for Active; 'I' for Inactive)
REMARK    1  A    between atoms: C_1  and  C_2
REMARK    2  A    between atoms: C_4  and  C_5
REMARK    3  A    between atoms: C_6  and  C_7
REMARK    4  A    between atoms: C_7  and  C_8
REMARK    5  A    between atoms: C_8  and  N_9
REMARK    6  A    between atoms: C_15  and  C_16
REMARK                            x       y       z     vdW  Elec       q    Type
REMARK                         _______ _______ _______ _____ _____    ______ ____
ROOT
ATOM      1  N   UNL     1       2.692   7.986  18.428  0.00  0.00    +0.000 N 
ATOM      2  C   UNL     1       2.957   6.645  18.434  0.00  0.00    +0.000 C 
ATOM      3  O   UNL     1       2.249   5.859  19.073  0.00  0.00    +0.000 OA
ATOM      4  N   UNL     1       4.051   6.224  17.722  0.00  0.00    +0.000 N 
ATOM      5  C   UNL     1       4.268   4.782  17.600  0.00  0.00    +0.000 C 
ATOM      6  C   UNL     1       5.712   4.407  17.904  0.00  0.00    +0.000 C 
ATOM      7  C   UNL     1       6.700   5.200  17.041  0.00  0.00    +0.000 C 
ATOM      8  C   UNL     1       6.412   6.705  17.158  0.00  0.00    +0.000 C 
ATOM      9  C   UNL     1       4.942   7.060  16.914  0.00  0.00    +0.000 C 
ATOM     10  H   UNL     1       2.871   8.419  17.532  0.00  0.00    +0.000 HD
ENDROOT
BRANCH   7  11
ATOM     11  C   UNL     1       6.722   4.717  15.618  0.00  0.00    +0.000 A 
ATOM     12  C   UNL     1       6.051   3.655  15.055  0.00  0.00    +0.000 A 
ATOM     13  N   UNL     1       6.410   3.656  13.734  0.00  0.00    +0.000 N 
ATOM     14  C   UNL     1       7.271   4.695  13.544  0.00  0.00    +0.000 A 
ATOM     15  N   UNL     1       7.477   5.353  14.659  0.00  0.00    +0.000 NA
ATOM     16  H   UNL     1       6.104   3.006  13.025  0.00  0.00    +0.000 HD
ENDBRANCH   7  11
BRANCH   1  17
ATOM     17  C   UNL     1       1.508   8.484  19.128  0.00  0.00    +0.000 C 
BRANCH  17  18
ATOM     18  C   UNL     1       0.834   9.679  18.432  0.00  0.00    +0.000 C 
BRANCH  18  24
ATOM     19  C   UNL     1      -1.276  12.211  22.623  0.00  0.00    +0.000 C 
ATOM     20  C   UNL     1      -0.967  11.661  21.274  0.00  0.00    +0.000 A 
ATOM     21  N   UNL     1      -1.692  11.886  20.203  0.00  0.00    +0.000 NA
ATOM     22  C   UNL     1      -1.147  11.239  19.106  0.00  0.00    +0.000 A 
ATOM     23  C   UNL     1      -1.852  11.356  17.802  0.00  0.00    +0.000 C 
ATOM     24  C   UNL     1       0.016  10.528  19.365  0.00  0.00    +0.000 A 
ATOM     25  S   UNL     1       0.413  10.666  21.030  0.00  0.00    +0.000 S 
ENDBRANCH  18  24
ENDBRANCH  17  18
ENDBRANCH   1  17
TORSDOF 4
ENDMDL
