MODEL 1
REMARK VINA RESULT:      -9.2      0.000      0.000
REMARK  Name = 
REMARK  10 active torsions:
REMARK  status: ('A' for Active; 'I' for Inactive)
REMARK    1  A    between atoms: C_1  and  O_2
REMARK    2  A    between atoms: O_2  and  C_3
REMARK    3  A    between atoms: C_6  and  C_7
REMARK    4  A    between atoms: C_9  and  N_10
REMARK    5  A    between atoms: C_16  and  C_17
REMARK    6  A    between atoms: C_17  and  O_18
REMARK    7  A    between atoms: C_17  and  C_19
REMARK    8  A    between atoms: C_17  and  C_27
REMARK    9  A    between atoms: C_22  and  C_23
REMARK   10  A    between atoms: N_31  and  C_32
REMARK                            x       y       z     vdW  Elec       q    Type
REMARK                         _______ _______ _______ _____ _____    ______ ____
ROOT
ATOM      1  C   UNL     1       3.076   6.015  18.594  0.00  0.00    +0.000 A 
ATOM      2  C   UNL     1       2.890   4.920  19.498  0.00  0.00    +0.000 A 
ATOM      3  C   UNL     1       2.050   4.964  20.613  0.00  0.00    +0.000 A 
ATOM      4  C   UNL     1       1.388   6.137  20.946  0.00  0.00    +0.000 A 
ATOM      5  C   UNL     1       1.572   7.258  20.130  0.00  0.00    +0.000 A 
ATOM      6  C   UNL     1       1.029   8.552  20.214  0.00  0.00    +0.000 A 
ATOM      7  C   UNL     1       1.490   9.262  19.135  0.00  0.00    +0.000 A 
ATOM      8  O   UNL     1       2.329   8.448  18.371  0.00  0.00    +0.000 OA
ATOM      9  C   UNL     1       2.385   7.202  18.984  0.00  0.00    +0.000 A 
ENDROOT
BRANCH   1  13
ATOM     10  C   UNL     1       5.824   5.081  15.352  0.00  0.00    +0.000 A 
ATOM     11  C   UNL     1       5.104   4.090  16.000  0.00  0.00    +0.000 A 
ATOM     12  C   UNL     1       4.160   4.431  16.974  0.00  0.00    +0.000 A 
ATOM     13  C   UNL     1       3.931   5.767  17.396  0.00  0.00    +0.000 A 
ATOM     14  C   UNL     1       4.663   6.752  16.719  0.00  0.00    +0.000 A 
ATOM     15  C   UNL     1       5.600   6.412  15.708  0.00  0.00    +0.000 A 
BRANCH  10  17
ATOM     16  C   UNL     1       6.248   3.764  13.433  0.00  0.00    +0.000 C 
ATOM     17  O   UNL     1       6.744   4.621  14.452  0.00  0.00    +0.000 OA
ENDBRANCH  10  17
ENDBRANCH   1  13
BRANCH   3  18
ATOM     18  N   UNL     1       1.829   3.761  21.422  0.00  0.00    +0.000 N 
ATOM     19  O   UNL     1       2.567   3.580  22.401  0.00  0.00    +0.000 OA
ATOM     20  O   UNL     1       0.927   2.990  21.067  0.00  0.00    +0.000 OA
ENDBRANCH   3  18
BRANCH   7  21
ATOM     21  C   UNL     1       1.131  10.678  18.664  0.00  0.00    +0.000 C 
BRANCH  21  22
ATOM     22  C   UNL     1      -0.392  10.769  18.402  0.00  0.00    +0.000 A 
ATOM     23  C   UNL     1      -1.169  11.807  18.969  0.00  0.00    +0.000 A 
ATOM     24  C   UNL     1      -2.559  11.858  18.800  0.00  0.00    +0.000 A 
ATOM     25  C   UNL     1      -3.207  10.884  18.039  0.00  0.00    +0.000 A 
ATOM     26  C   UNL     1      -2.451   9.885  17.421  0.00  0.00    +0.000 A 
ATOM     27  C   UNL     1      -1.060   9.835  17.590  0.00  0.00    +0.000 A 
BRANCH  25  28
ATOM     28  C   UNL     1      -4.634  10.908  17.899  0.00  0.00    +0.000 C 
ATOM     29  N   UNL     1      -5.792  10.933  17.799  0.00  0.00    +0.000 NA
ENDBRANCH  25  28
ENDBRANCH  21  22
BRANCH  21  30
ATOM     30  C   UNL     1       1.612  11.793  19.593  0.00  0.00    +0.000 A 
ATOM     31  C   UNL     1       1.409  11.981  20.956  0.00  0.00    +0.000 A 
ATOM     32  N   UNL     1       1.981  13.138  21.411  0.00  0.00    +0.000 NA
ATOM     33  C   UNL     1       2.493  13.703  20.346  0.00  0.00    +0.000 A 
ATOM     34  N   UNL     1       2.301  12.939  19.226  0.00  0.00    +0.000 N 
ATOM     35  C   UNL     1       2.715  13.355  17.909  0.00  0.00    +0.000 C 
ENDBRANCH  21  30
BRANCH  21  36
ATOM     36  O   UNL     1       1.869  10.897  17.462  0.00  0.00    +0.000 OA
ATOM     37  H   UNL     1       2.558  10.211  17.457  0.00  0.00    +0.000 HD
ENDBRANCH  21  36
ENDBRANCH   7  21
TORSDOF 8
ENDMDL
MODEL 2
REMARK VINA RESULT:      -9.0      0.720      1.005
REMARK  Name = 
REMARK  10 active torsions:
REMARK  status: ('A' for Active; 'I' for Inactive)
REMARK    1  A    between atoms: C_1  and  O_2
REMARK    2  A    between atoms: O_2  and  C_3
REMARK    3  A    between atoms: C_6  and  C_7
REMARK    4  A    between atoms: C_9  and  N_10
REMARK    5  A    between atoms: C_16  and  C_17
REMARK    6  A    between atoms: C_17  and  O_18
REMARK    7  A    between atoms: C_17  and  C_19
REMARK    8  A    between atoms: C_17  and  C_27
REMARK    9  A    between atoms: C_22  and  C_23
REMARK   10  A    between atoms: N_31  and  C_32
REMARK                            x       y       z     vdW  Elec       q    Type
REMARK                         _______ _______ _______ _____ _____    ______ ____
ROOT
ATOM      1  C   UNL     1       3.511   6.149  19.044  0.00  0.00    +0.000 A 
ATOM      2  C   UNL     1       3.200   4.997  19.838  0.00  0.00    +0.000 A 
ATOM      3  C   UNL     1       2.095   4.913  20.687  0.00  0.00    +0.000 A 
ATOM      4  C   UNL     1       1.257   6.006  20.860  0.00  0.00    +0.000 A 
ATOM      5  C   UNL     1       1.541   7.178  20.151  0.00  0.00    +0.000 A 
ATOM      6  C   UNL     1       0.872   8.414  20.118  0.00  0.00    +0.000 A 
ATOM      7  C   UNL     1       1.530   9.214  19.220  0.00  0.00    +0.000 A 
ATOM      8  O   UNL     1       2.617   8.515  18.689  0.00  0.00    +0.000 OA
ATOM      9  C   UNL     1       2.629   7.250  19.264  0.00  0.00    +0.000 A 
ENDROOT
BRANCH   1  13
ATOM     10  C   UNL     1       6.687   5.517  16.137  0.00  0.00    +0.000 A 
ATOM     11  C   UNL     1       5.443   5.998  15.759  0.00  0.00    +0.000 A 
ATOM     12  C   UNL     1       4.474   6.278  16.728  0.00  0.00    +0.000 A 
ATOM     13  C   UNL     1       4.672   6.036  18.113  0.00  0.00    +0.000 A 
ATOM     14  C   UNL     1       5.940   5.560  18.471  0.00  0.00    +0.000 A 
ATOM     15  C   UNL     1       6.937   5.304  17.494  0.00  0.00    +0.000 A 
BRANCH  10  17
ATOM     16  C   UNL     1       6.937   4.674  13.940  0.00  0.00    +0.000 C 
ATOM     17  O   UNL     1       7.532   5.243  15.099  0.00  0.00    +0.000 OA
ENDBRANCH  10  17
ENDBRANCH   1  13
BRANCH   3  18
ATOM     18  N   UNL     1       1.785   3.656  21.378  0.00  0.00    +0.000 N 
ATOM     19  O   UNL     1       0.886   2.946  20.907  0.00  0.00    +0.000 OA
ATOM     20  O   UNL     1       2.434   3.389  22.399  0.00  0.00    +0.000 OA
ENDBRANCH   3  18
BRANCH   7  21
ATOM     21  C   UNL     1       1.173  10.615  18.706  0.00  0.00    +0.000 C 
BRANCH  21  22
ATOM     22  C   UNL     1      -0.351  10.701  18.444  0.00  0.00    +0.000 A 
ATOM     23  C   UNL     1      -1.151  11.660  19.107  0.00  0.00    +0.000 A 
ATOM     24  C   UNL     1      -2.541  11.700  18.936  0.00  0.00    +0.000 A 
ATOM     25  C   UNL     1      -3.166  10.794  18.077  0.00  0.00    +0.000 A 
ATOM     26  C   UNL     1      -2.386   9.877  17.367  0.00  0.00    +0.000 A 
ATOM     27  C   UNL     1      -0.995   9.839  17.540  0.00  0.00    +0.000 A 
BRANCH  25  28
ATOM     28  C   UNL     1      -4.592  10.803  17.932  0.00  0.00    +0.000 C 
ATOM     29  N   UNL     1      -5.749  10.796  17.820  0.00  0.00    +0.000 NA
ENDBRANCH  25  28
ENDBRANCH  21  22
BRANCH  21  30
ATOM     30  C   UNL     1       1.659  11.757  19.597  0.00  0.00    +0.000 A 
ATOM     31  C   UNL     1       1.538  11.943  20.971  0.00  0.00    +0.000 A 
ATOM     32  N   UNL     1       2.080  13.130  21.384  0.00  0.00    +0.000 NA
ATOM     33  C   UNL     1       2.492  13.713  20.286  0.00  0.00    +0.000 A 
ATOM     34  N   UNL     1       2.264  12.934  19.183  0.00  0.00    +0.000 N 
ATOM     35  C   UNL     1       2.568  13.362  17.840  0.00  0.00    +0.000 C 
ENDBRANCH  21  30
BRANCH  21  36
ATOM     36  O   UNL     1       1.908  10.794  17.495  0.00  0.00    +0.000 OA
ATOM     37  H   UNL     1       2.370  11.643  17.601  0.00  0.00    +0.000 HD
ENDBRANCH  21  36
ENDBRANCH   7  21
TORSDOF 8
ENDMDL
MODEL 3
REMARK VINA RESULT:      -8.6      0.521      1.011
REMARK  Name = 
REMARK  10 active torsions:
REMARK  status: ('A' for Active; 'I' for Inactive)
REMARK    1  A    between atoms: C_1  and  O_2
REMARK    2  A    between atoms: O_2  and  C_3
REMARK    3  A    between atoms: C_6  and  C_7
REMARK    4  A    between atoms: C_9  and  N_10
REMARK    5  A    between atoms: C_16  and  C_17
REMARK    6  A    between atoms: C_17  and  O_18
REMARK    7  A    between atoms: C_17  and  C_19
REMARK    8  A    between atoms: C_17  and  C_27
REMARK    9  A    between atoms: C_22  and  C_23
REMARK   10  A    between atoms: N_31  and  C_32
REMARK                            x       y       z     vdW  Elec       q    Type
REMARK                         _______ _______ _______ _____ _____    ______ ____
ROOT
ATOM      1  C   UNL     1       3.113   6.057  18.552  0.00  0.00    +0.000 A 
ATOM      2  C   UNL     1       2.938   4.974  19.473  0.00  0.00    +0.000 A 
ATOM      3  C   UNL     1       2.098   5.027  20.587  0.00  0.00    +0.000 A 
ATOM      4  C   UNL     1       1.425   6.199  20.904  0.00  0.00    +0.000 A 
ATOM      5  C   UNL     1       1.599   7.309  20.072  0.00  0.00    +0.000 A 
ATOM      6  C   UNL     1       1.045   8.599  20.136  0.00  0.00    +0.000 A 
ATOM      7  C   UNL     1       1.498   9.297  19.047  0.00  0.00    +0.000 A 
ATOM      8  O   UNL     1       2.344   8.480  18.294  0.00  0.00    +0.000 OA
ATOM      9  C   UNL     1       2.411   7.243  18.925  0.00  0.00    +0.000 A 
ENDROOT
BRANCH   1  13
ATOM     10  C   UNL     1       5.843   5.061  15.314  0.00  0.00    +0.000 A 
ATOM     11  C   UNL     1       5.032   4.102  15.899  0.00  0.00    +0.000 A 
ATOM     12  C   UNL     1       4.099   4.471  16.873  0.00  0.00    +0.000 A 
ATOM     13  C   UNL     1       3.969   5.799  17.358  0.00  0.00    +0.000 A 
ATOM     14  C   UNL     1       4.792   6.753  16.743  0.00  0.00    +0.000 A 
ATOM     15  C   UNL     1       5.719   6.388  15.732  0.00  0.00    +0.000 A 
BRANCH  10  17
ATOM     16  C   UNL     1       6.211   3.730  13.393  0.00  0.00    +0.000 C 
ATOM     17  O   UNL     1       6.741   4.573  14.407  0.00  0.00    +0.000 OA
ENDBRANCH  10  17
ENDBRANCH   1  13
BRANCH   3  18
ATOM     18  N   UNL     1       1.888   3.833  21.415  0.00  0.00    +0.000 N 
ATOM     19  O   UNL     1       2.613   3.685  22.408  0.00  0.00    +0.000 OA
ATOM     20  O   UNL     1       1.007   3.039  21.059  0.00  0.00    +0.000 OA
ENDBRANCH   3  18
BRANCH   7  21
ATOM     21  C   UNL     1       1.127  10.703  18.555  0.00  0.00    +0.000 C 
BRANCH  21  22
ATOM     22  C   UNL     1      -0.400  10.781  18.307  0.00  0.00    +0.000 A 
ATOM     23  C   UNL     1      -1.150  11.905  18.726  0.00  0.00    +0.000 A 
ATOM     24  C   UNL     1      -2.542  11.956  18.574  0.00  0.00    +0.000 A 
ATOM     25  C   UNL     1      -3.219  10.891  17.977  0.00  0.00    +0.000 A 
ATOM     26  C   UNL     1      -2.490   9.798  17.503  0.00  0.00    +0.000 A 
ATOM     27  C   UNL     1      -1.097   9.748  17.656  0.00  0.00    +0.000 A 
BRANCH  25  28
ATOM     28  C   UNL     1      -4.648  10.919  17.859  0.00  0.00    +0.000 C 
ATOM     29  N   UNL     1      -5.805  10.929  17.755  0.00  0.00    +0.000 NA
ENDBRANCH  25  28
ENDBRANCH  21  22
BRANCH  21  30
ATOM     30  C   UNL     1       1.611  11.836  19.460  0.00  0.00    +0.000 A 
ATOM     31  C   UNL     1       2.532  12.851  19.219  0.00  0.00    +0.000 A 
ATOM     32  N   UNL     1       2.718  13.652  20.314  0.00  0.00    +0.000 NA
ATOM     33  C   UNL     1       1.968  13.126  21.249  0.00  0.00    +0.000 A 
ATOM     34  N   UNL     1       1.282  12.032  20.792  0.00  0.00    +0.000 N 
ATOM     35  C   UNL     1       0.429  11.230  21.634  0.00  0.00    +0.000 C 
ENDBRANCH  21  30
BRANCH  21  36
ATOM     36  O   UNL     1       1.851  10.905  17.342  0.00  0.00    +0.000 OA
ATOM     37  H   UNL     1       1.268  10.571  16.639  0.00  0.00    +0.000 HD
ENDBRANCH  21  36
ENDBRANCH   7  21
TORSDOF 8
ENDMDL
MODEL 4
REMARK VINA RESULT:      -8.1      1.230      1.701
REMARK  Name = 
REMARK  10 active torsions:
REMARK  status: ('A' for Active; 'I' for Inactive)
REMARK    1  A    between atoms: C_1  and  O_2
REMARK    2  A    between atoms: O_2  and  C_3
REMARK    3  A    between atoms: C_6  and  C_7
REMARK    4  A    between atoms: C_9  and  N_10
REMARK    5  A    between atoms: C_16  and  C_17
REMARK    6  A    between atoms: C_17  and  O_18
REMARK    7  A    between atoms: C_17  and  C_19
REMARK    8  A    between atoms: C_17  and  C_27
REMARK    9  A    between atoms: C_22  and  C_23
REMARK   10  A    between atoms: N_31  and  C_32
REMARK                            x       y       z     vdW  Elec       q    Type
REMARK                         _______ _______ _______ _____ _____    ______ ____
ROOT
ATOM      1  C   UNL     1       2.974   6.036  18.828  0.00  0.00    +0.000 A 
ATOM      2  C   UNL     1       2.861   4.840  19.608  0.00  0.00    +0.000 A 
ATOM      3  C   UNL     1       2.035   4.717  20.728  0.00  0.00    +0.000 A 
ATOM      4  C   UNL     1       1.315   5.808  21.193  0.00  0.00    +0.000 A 
ATOM      5  C   UNL     1       1.427   7.020  20.502  0.00  0.00    +0.000 A 
ATOM      6  C   UNL     1       0.816   8.265  20.731  0.00  0.00    +0.000 A 
ATOM      7  C   UNL     1       1.223   9.112  19.732  0.00  0.00    +0.000 A 
ATOM      8  O   UNL     1       2.094   8.433  18.877  0.00  0.00    +0.000 OA
ATOM      9  C   UNL     1       2.225   7.133  19.350  0.00  0.00    +0.000 A 
ENDROOT
BRANCH   1  13
ATOM     10  C   UNL     1       5.709   5.586  15.473  0.00  0.00    +0.000 A 
ATOM     11  C   UNL     1       4.986   4.512  15.968  0.00  0.00    +0.000 A 
ATOM     12  C   UNL     1       4.046   4.707  16.985  0.00  0.00    +0.000 A 
ATOM     13  C   UNL     1       3.824   5.966  17.603  0.00  0.00    +0.000 A 
ATOM     14  C   UNL     1       4.559   7.038  17.078  0.00  0.00    +0.000 A 
ATOM     15  C   UNL     1       5.491   6.850  16.025  0.00  0.00    +0.000 A 
BRANCH  10  17
ATOM     16  C   UNL     1       6.477   3.982  13.913  0.00  0.00    +0.000 C 
ATOM     17  O   UNL     1       6.624   5.263  14.511  0.00  0.00    +0.000 OA
ENDBRANCH  10  17
ENDBRANCH   1  13
BRANCH   3  18
ATOM     18  N   UNL     1       1.890   3.422  21.403  0.00  0.00    +0.000 N 
ATOM     19  O   UNL     1       1.136   2.584  20.889  0.00  0.00    +0.000 OA
ATOM     20  O   UNL     1       2.520   3.252  22.456  0.00  0.00    +0.000 OA
ENDBRANCH   3  18
BRANCH   7  21
ATOM     21  C   UNL     1       0.782  10.549  19.421  0.00  0.00    +0.000 C 
BRANCH  21  22
ATOM     22  C   UNL     1      -0.376  10.527  18.392  0.00  0.00    +0.000 A 
ATOM     23  C   UNL     1      -0.594   9.400  17.566  0.00  0.00    +0.000 A 
ATOM     24  C   UNL     1      -1.591   9.395  16.581  0.00  0.00    +0.000 A 
ATOM     25  C   UNL     1      -2.412  10.511  16.411  0.00  0.00    +0.000 A 
ATOM     26  C   UNL     1      -2.251  11.612  17.258  0.00  0.00    +0.000 A 
ATOM     27  C   UNL     1      -1.253  11.615  18.243  0.00  0.00    +0.000 A 
BRANCH  25  28
ATOM     28  C   UNL     1      -3.404  10.528  15.377  0.00  0.00    +0.000 C 
ATOM     29  N   UNL     1      -4.210  10.557  14.540  0.00  0.00    +0.000 NA
ENDBRANCH  25  28
ENDBRANCH  21  22
BRANCH  21  30
ATOM     30  C   UNL     1       0.427  11.381  20.653  0.00  0.00    +0.000 A 
ATOM     31  C   UNL     1      -0.231  11.021  21.825  0.00  0.00    +0.000 A 
ATOM     32  N   UNL     1      -0.387  12.080  22.678  0.00  0.00    +0.000 NA
ATOM     33  C   UNL     1       0.115  13.106  22.038  0.00  0.00    +0.000 A 
ATOM     34  N   UNL     1       0.618  12.744  20.817  0.00  0.00    +0.000 N 
ATOM     35  C   UNL     1       1.176  13.691  19.883  0.00  0.00    +0.000 C 
ENDBRANCH  21  30
BRANCH  21  36
ATOM     36  O   UNL     1       1.927  11.210  18.884  0.00  0.00    +0.000 OA
ATOM     37  H   UNL     1       2.641  10.551  18.919  0.00  0.00    +0.000 HD
ENDBRANCH  21  36
ENDBRANCH   7  21
TORSDOF 8
ENDMDL
MODEL 5
REMARK VINA RESULT:      -7.6      1.035      1.684
REMARK  Name = 
REMARK  10 active torsions:
REMARK  status: ('A' for Active; 'I' for Inactive)
REMARK    1  A    between atoms: C_1  and  O_2
REMARK    2  A    between atoms: O_2  and  C_3
REMARK    3  A    between atoms: C_6  and  C_7
REMARK    4  A    between atoms: C_9  and  N_10
REMARK    5  A    between atoms: C_16  and  C_17
REMARK    6  A    between atoms: C_17  and  O_18
REMARK    7  A    between atoms: C_17  and  C_19
REMARK    8  A    between atoms: C_17  and  C_27
REMARK    9  A    between atoms: C_22  and  C_23
REMARK   10  A    between atoms: N_31  and  C_32
REMARK                            x       y       z     vdW  Elec       q    Type
REMARK                         _______ _______ _______ _____ _____    ______ ____
ROOT
ATOM      1  C   UNL     1       3.071   6.028  18.581  0.00  0.00    +0.000 A 
ATOM      2  C   UNL     1       2.901   4.899  19.445  0.00  0.00    +0.000 A 
ATOM      3  C   UNL     1       2.089   4.904  20.581  0.00  0.00    +0.000 A 
ATOM      4  C   UNL     1       1.441   6.066  20.977  0.00  0.00    +0.000 A 
ATOM      5  C   UNL     1       1.613   7.217  20.201  0.00  0.00    +0.000 A 
ATOM      6  C   UNL     1       1.079   8.509  20.348  0.00  0.00    +0.000 A 
ATOM      7  C   UNL     1       1.518   9.259  19.287  0.00  0.00    +0.000 A 
ATOM      8  O   UNL     1       2.334   8.471  18.471  0.00  0.00    +0.000 OA
ATOM      9  C   UNL     1       2.397   7.202  19.034  0.00  0.00    +0.000 A 
ENDROOT
BRANCH   1  13
ATOM     10  C   UNL     1       5.744   5.223  15.243  0.00  0.00    +0.000 A 
ATOM     11  C   UNL     1       5.072   4.202  15.896  0.00  0.00    +0.000 A 
ATOM     12  C   UNL     1       4.149   4.500  16.904  0.00  0.00    +0.000 A 
ATOM     13  C   UNL     1       3.896   5.823  17.353  0.00  0.00    +0.000 A 
ATOM     14  C   UNL     1       4.579   6.839  16.671  0.00  0.00    +0.000 A 
ATOM     15  C   UNL     1       5.493   6.542  15.626  0.00  0.00    +0.000 A 
BRANCH  10  17
ATOM     16  C   UNL     1       6.251   3.702  13.502  0.00  0.00    +0.000 C 
ATOM     17  O   UNL     1       6.648   4.804  14.308  0.00  0.00    +0.000 OA
ENDBRANCH  10  17
ENDBRANCH   1  13
BRANCH   3  18
ATOM     18  N   UNL     1       1.880   3.670  21.348  0.00  0.00    +0.000 N 
ATOM     19  O   UNL     1       1.136   2.808  20.862  0.00  0.00    +0.000 OA
ATOM     20  O   UNL     1       2.450   3.574  22.443  0.00  0.00    +0.000 OA
ENDBRANCH   3  18
BRANCH   7  21
ATOM     21  C   UNL     1       1.156  10.694  18.881  0.00  0.00    +0.000 C 
BRANCH  21  22
ATOM     22  C   UNL     1      -0.184  10.693  18.104  0.00  0.00    +0.000 A 
ATOM     23  C   UNL     1      -0.672   9.513  17.495  0.00  0.00    +0.000 A 
ATOM     24  C   UNL     1      -1.844   9.515  16.728  0.00  0.00    +0.000 A 
ATOM     25  C   UNL     1      -2.573  10.695  16.568  0.00  0.00    +0.000 A 
ATOM     26  C   UNL     1      -2.140  11.858  17.211  0.00  0.00    +0.000 A 
ATOM     27  C   UNL     1      -0.966  11.854  17.978  0.00  0.00    +0.000 A 
BRANCH  25  28
ATOM     28  C   UNL     1      -3.750  10.712  15.749  0.00  0.00    +0.000 C 
ATOM     29  N   UNL     1      -4.707  10.712  15.089  0.00  0.00    +0.000 NA
ENDBRANCH  25  28
ENDBRANCH  21  22
BRANCH  21  30
ATOM     30  C   UNL     1       1.138  11.692  20.038  0.00  0.00    +0.000 A 
ATOM     31  C   UNL     1       2.059  12.669  20.402  0.00  0.00    +0.000 A 
ATOM     32  N   UNL     1       1.688  13.336  21.538  0.00  0.00    +0.000 NA
ATOM     33  C   UNL     1       0.576  12.758  21.920  0.00  0.00    +0.000 A 
ATOM     34  N   UNL     1       0.200  11.764  21.057  0.00  0.00    +0.000 N 
ATOM     35  C   UNL     1      -0.956  10.929  21.274  0.00  0.00    +0.000 C 
ENDBRANCH  21  30
BRANCH  21  36
ATOM     36  O   UNL     1       2.224  11.155  18.053  0.00  0.00    +0.000 OA
ATOM     37  H   UNL     1       2.944  10.516  18.187  0.00  0.00    +0.000 HD
ENDBRANCH  21  36
ENDBRANCH   7  21
TORSDOF 8
ENDMDL
MODEL 6
REMARK VINA RESULT:      -7.5      3.249      7.070
REMARK  Name = 
REMARK  10 active torsions:
REMARK  status: ('A' for Active; 'I' for Inactive)
REMARK    1  A    between atoms: C_1  and  O_2
REMARK    2  A    between atoms: O_2  and  C_3
REMARK    3  A    between atoms: C_6  and  C_7
REMARK    4  A    between atoms: C_9  and  N_10
REMARK    5  A    between atoms: C_16  and  C_17
REMARK    6  A    between atoms: C_17  and  O_18
REMARK    7  A    between atoms: C_17  and  C_19
REMARK    8  A    between atoms: C_17  and  C_27
REMARK    9  A    between atoms: C_22  and  C_23
REMARK   10  A    between atoms: N_31  and  C_32
REMARK                            x       y       z     vdW  Elec       q    Type
REMARK                         _______ _______ _______ _____ _____    ______ ____
ROOT
ATOM      1  C   UNL     1       0.270  10.284  18.669  0.00  0.00    +0.000 A 
ATOM      2  C   UNL     1      -0.868   9.977  17.856  0.00  0.00    +0.000 A 
ATOM      3  C   UNL     1      -1.811  10.923  17.447  0.00  0.00    +0.000 A 
ATOM      4  C   UNL     1      -1.722  12.237  17.885  0.00  0.00    +0.000 A 
ATOM      5  C   UNL     1      -0.661  12.585  18.727  0.00  0.00    +0.000 A 
ATOM      6  C   UNL     1      -0.316  13.820  19.305  0.00  0.00    +0.000 A 
ATOM      7  C   UNL     1       0.848  13.635  20.006  0.00  0.00    +0.000 A 
ATOM      8  O   UNL     1       1.246  12.300  19.897  0.00  0.00    +0.000 OA
ATOM      9  C   UNL     1       0.312  11.643  19.105  0.00  0.00    +0.000 A 
ENDROOT
BRANCH   1  13
ATOM     10  C   UNL     1       2.878   6.833  19.142  0.00  0.00    +0.000 A 
ATOM     11  C   UNL     1       2.848   7.562  17.964  0.00  0.00    +0.000 A 
ATOM     12  C   UNL     1       2.069   8.721  17.875  0.00  0.00    +0.000 A 
ATOM     13  C   UNL     1       1.235   9.175  18.931  0.00  0.00    +0.000 A 
ATOM     14  C   UNL     1       1.291   8.427  20.114  0.00  0.00    +0.000 A 
ATOM     15  C   UNL     1       2.104   7.268  20.219  0.00  0.00    +0.000 A 
BRANCH  10  17
ATOM     16  C   UNL     1       3.222   4.626  19.921  0.00  0.00    +0.000 C 
ATOM     17  O   UNL     1       3.642   5.701  19.092  0.00  0.00    +0.000 OA
ENDBRANCH  10  17
ENDBRANCH   1  13
BRANCH   3  18
ATOM     18  N   UNL     1      -2.884  10.547  16.520  0.00  0.00    +0.000 N 
ATOM     19  O   UNL     1      -3.986  11.095  16.661  0.00  0.00    +0.000 OA
ATOM     20  O   UNL     1      -2.625   9.693  15.661  0.00  0.00    +0.000 OA
ENDBRANCH   3  18
BRANCH   7  21
ATOM     21  C   UNL     1       1.731  14.659  20.732  0.00  0.00    +0.000 C 
BRANCH  21  22
ATOM     22  C   UNL     1       3.107  14.753  20.027  0.00  0.00    +0.000 A 
ATOM     23  C   UNL     1       4.300  14.896  20.773  0.00  0.00    +0.000 A 
ATOM     24  C   UNL     1       5.542  15.056  20.146  0.00  0.00    +0.000 A 
ATOM     25  C   UNL     1       5.627  15.054  18.752  0.00  0.00    +0.000 A 
ATOM     26  C   UNL     1       4.468  14.854  17.998  0.00  0.00    +0.000 A 
ATOM     27  C   UNL     1       3.225  14.694  18.627  0.00  0.00    +0.000 A 
BRANCH  25  28
ATOM     28  C   UNL     1       6.890  15.261  18.105  0.00  0.00    +0.000 C 
ATOM     29  N   UNL     1       7.915  15.414  17.579  0.00  0.00    +0.000 NA
ENDBRANCH  25  28
ENDBRANCH  21  22
BRANCH  21  30
ATOM     30  C   UNL     1       1.090  16.035  20.906  0.00  0.00    +0.000 A 
ATOM     31  C   UNL     1       1.440  17.268  20.365  0.00  0.00    +0.000 A 
ATOM     32  N   UNL     1       0.625  18.277  20.802  0.00  0.00    +0.000 NA
ATOM     33  C   UNL     1      -0.196  17.706  21.647  0.00  0.00    +0.000 A 
ATOM     34  N   UNL     1       0.038  16.360  21.749  0.00  0.00    +0.000 N 
ATOM     35  C   UNL     1      -0.686  15.501  22.653  0.00  0.00    +0.000 C 
ENDBRANCH  21  30
BRANCH  21  36
ATOM     36  O   UNL     1       1.876  14.182  22.070  0.00  0.00    +0.000 OA
ATOM     37  H   UNL     1       1.031  13.751  22.279  0.00  0.00    +0.000 HD
ENDBRANCH  21  36
ENDBRANCH   7  21
TORSDOF 8
ENDMDL
MODEL 7
REMARK VINA RESULT:      -7.5      3.157      7.034
REMARK  Name = 
REMARK  10 active torsions:
REMARK  status: ('A' for Active; 'I' for Inactive)
REMARK    1  A    between atoms: C_1  and  O_2
REMARK    2  A    between atoms: O_2  and  C_3
REMARK    3  A    between atoms: C_6  and  C_7
REMARK    4  A    between atoms: C_9  and  N_10
REMARK    5  A    between atoms: C_16  and  C_17
REMARK    6  A    between atoms: C_17  and  O_18
REMARK    7  A    between atoms: C_17  and  C_19
REMARK    8  A    between atoms: C_17  and  C_27
REMARK    9  A    between atoms: C_22  and  C_23
REMARK   10  A    between atoms: N_31  and  C_32
REMARK                            x       y       z     vdW  Elec       q    Type
REMARK                         _______ _______ _______ _____ _____    ______ ____
ROOT
ATOM      1  C   UNL     1       0.128  10.276  18.663  0.00  0.00    +0.000 A 
ATOM      2  C   UNL     1      -0.984   9.940  17.825  0.00  0.00    +0.000 A 
ATOM      3  C   UNL     1      -1.941  10.862  17.394  0.00  0.00    +0.000 A 
ATOM      4  C   UNL     1      -1.895  12.178  17.832  0.00  0.00    +0.000 A 
ATOM      5  C   UNL     1      -0.861  12.554  18.696  0.00  0.00    +0.000 A 
ATOM      6  C   UNL     1      -0.560  13.797  19.279  0.00  0.00    +0.000 A 
ATOM      7  C   UNL     1       0.592  13.642  20.006  0.00  0.00    +0.000 A 
ATOM      8  O   UNL     1       1.025  12.318  19.909  0.00  0.00    +0.000 OA
ATOM      9  C   UNL     1       0.126  11.636  19.097  0.00  0.00    +0.000 A 
ENDROOT
BRANCH   1  13
ATOM     10  C   UNL     1       2.786   6.878  19.227  0.00  0.00    +0.000 A 
ATOM     11  C   UNL     1       2.697   7.534  18.010  0.00  0.00    +0.000 A 
ATOM     12  C   UNL     1       1.904   8.680  17.886  0.00  0.00    +0.000 A 
ATOM     13  C   UNL     1       1.113   9.192  18.948  0.00  0.00    +0.000 A 
ATOM     14  C   UNL     1       1.228   8.518  20.171  0.00  0.00    +0.000 A 
ATOM     15  C   UNL     1       2.056   7.373  20.309  0.00  0.00    +0.000 A 
BRANCH  10  17
ATOM     16  C   UNL     1       3.047   4.653  18.468  0.00  0.00    +0.000 C 
ATOM     17  O   UNL     1       3.558   5.750  19.212  0.00  0.00    +0.000 OA
ENDBRANCH  10  17
ENDBRANCH   1  13
BRANCH   3  18
ATOM     18  N   UNL     1      -2.983  10.459  16.444  0.00  0.00    +0.000 N 
ATOM     19  O   UNL     1      -2.672   9.656  15.552  0.00  0.00    +0.000 OA
ATOM     20  O   UNL     1      -4.108  10.957  16.582  0.00  0.00    +0.000 OA
ENDBRANCH   3  18
BRANCH   7  21
ATOM     21  C   UNL     1       1.433  14.688  20.751  0.00  0.00    +0.000 C 
BRANCH  21  22
ATOM     22  C   UNL     1       2.801  14.855  20.045  0.00  0.00    +0.000 A 
ATOM     23  C   UNL     1       2.898  14.844  18.633  0.00  0.00    +0.000 A 
ATOM     24  C   UNL     1       4.137  14.919  17.983  0.00  0.00    +0.000 A 
ATOM     25  C   UNL     1       5.312  15.030  18.728  0.00  0.00    +0.000 A 
ATOM     26  C   UNL     1       5.233  15.102  20.122  0.00  0.00    +0.000 A 
ATOM     27  C   UNL     1       3.992  15.027  20.771  0.00  0.00    +0.000 A 
BRANCH  25  28
ATOM     28  C   UNL     1       6.585  15.064  18.070  0.00  0.00    +0.000 C 
ATOM     29  N   UNL     1       7.617  15.106  17.537  0.00  0.00    +0.000 NA
ENDBRANCH  25  28
ENDBRANCH  21  22
BRANCH  21  30
ATOM     30  C   UNL     1       0.734  16.032  20.953  0.00  0.00    +0.000 A 
ATOM     31  C   UNL     1       1.048  17.295  20.460  0.00  0.00    +0.000 A 
ATOM     32  N   UNL     1       0.184  18.257  20.909  0.00  0.00    +0.000 NA
ATOM     33  C   UNL     1      -0.633  17.627  21.715  0.00  0.00    +0.000 A 
ATOM     34  N   UNL     1      -0.349  16.289  21.780  0.00  0.00    +0.000 N 
ATOM     35  C   UNL     1      -1.059  15.374  22.638  0.00  0.00    +0.000 C 
ENDBRANCH  21  30
BRANCH  21  36
ATOM     36  O   UNL     1       1.603  14.192  22.078  0.00  0.00    +0.000 OA
ATOM     37  H   UNL     1       0.921  14.641  22.607  0.00  0.00    +0.000 HD
ENDBRANCH  21  36
ENDBRANCH   7  21
TORSDOF 8
ENDMDL
MODEL 8
REMARK VINA RESULT:      -7.4      3.457      7.287
REMARK  Name = 
REMARK  10 active torsions:
REMARK  status: ('A' for Active; 'I' for Inactive)
REMARK    1  A    between atoms: C_1  and  O_2
REMARK    2  A    between atoms: O_2  and  C_3
REMARK    3  A    between atoms: C_6  and  C_7
REMARK    4  A    between atoms: C_9  and  N_10
REMARK    5  A    between atoms: C_16  and  C_17
REMARK    6  A    between atoms: C_17  and  O_18
REMARK    7  A    between atoms: C_17  and  C_19
REMARK    8  A    between atoms: C_17  and  C_27
REMARK    9  A    between atoms: C_22  and  C_23
REMARK   10  A    between atoms: N_31  and  C_32
REMARK                            x       y       z     vdW  Elec       q    Type
REMARK                         _______ _______ _______ _____ _____    ______ ____
ROOT
ATOM      1  C   UNL     1       6.924   6.620  16.833  0.00  0.00    +0.000 A 
ATOM      2  C   UNL     1       7.403   6.175  15.558  0.00  0.00    +0.000 A 
ATOM      3  C   UNL     1       6.772   5.195  14.789  0.00  0.00    +0.000 A 
ATOM      4  C   UNL     1       5.652   4.535  15.274  0.00  0.00    +0.000 A 
ATOM      5  C   UNL     1       5.169   4.889  16.538  0.00  0.00    +0.000 A 
ATOM      6  C   UNL     1       4.066   4.409  17.265  0.00  0.00    +0.000 A 
ATOM      7  C   UNL     1       3.998   5.127  18.431  0.00  0.00    +0.000 A 
ATOM      8  O   UNL     1       5.047   6.048  18.468  0.00  0.00    +0.000 OA
ATOM      9  C   UNL     1       5.778   5.905  17.295  0.00  0.00    +0.000 A 
ENDROOT
BRANCH   1  13
ATOM     10  C   UNL     1       8.838   9.839  19.049  0.00  0.00    +0.000 A 
ATOM     11  C   UNL     1       8.974   8.514  19.432  0.00  0.00    +0.000 A 
ATOM     12  C   UNL     1       8.424   7.495  18.647  0.00  0.00    +0.000 A 
ATOM     13  C   UNL     1       7.660   7.748  17.477  0.00  0.00    +0.000 A 
ATOM     14  C   UNL     1       7.546   9.094  17.104  0.00  0.00    +0.000 A 
ATOM     15  C   UNL     1       8.129  10.128  17.882  0.00  0.00    +0.000 A 
BRANCH  10  17
ATOM     16  C   UNL     1      10.645  11.281  19.552  0.00  0.00    +0.000 C 
ATOM     17  O   UNL     1       9.382  10.743  19.918  0.00  0.00    +0.000 OA
ENDBRANCH  10  17
ENDBRANCH   1  13
BRANCH   3  18
ATOM     18  N   UNL     1       7.264   4.879  13.443  0.00  0.00    +0.000 N 
ATOM     19  O   UNL     1       8.169   5.586  12.979  0.00  0.00    +0.000 OA
ATOM     20  O   UNL     1       6.732   3.933  12.847  0.00  0.00    +0.000 OA
ENDBRANCH   3  18
BRANCH   7  21
ATOM     21  C   UNL     1       2.936   5.105  19.539  0.00  0.00    +0.000 C 
BRANCH  21  22
ATOM     22  C   UNL     1       2.266   6.497  19.645  0.00  0.00    +0.000 A 
ATOM     23  C   UNL     1       2.263   7.390  18.548  0.00  0.00    +0.000 A 
ATOM     24  C   UNL     1       1.726   8.680  18.653  0.00  0.00    +0.000 A 
ATOM     25  C   UNL     1       1.157   9.104  19.855  0.00  0.00    +0.000 A 
ATOM     26  C   UNL     1       1.097   8.216  20.933  0.00  0.00    +0.000 A 
ATOM     27  C   UNL     1       1.634   6.926  20.826  0.00  0.00    +0.000 A 
BRANCH  25  28
ATOM     28  C   UNL     1       0.645  10.437  19.981  0.00  0.00    +0.000 C 
ATOM     29  N   UNL     1       0.218  11.514  20.077  0.00  0.00    +0.000 NA
ENDBRANCH  25  28
ENDBRANCH  21  22
BRANCH  21  30
ATOM     30  C   UNL     1       1.900   3.989  19.399  0.00  0.00    +0.000 A 
ATOM     31  C   UNL     1       1.109   3.625  18.314  0.00  0.00    +0.000 A 
ATOM     32  N   UNL     1       0.272   2.582  18.610  0.00  0.00    +0.000 NA
ATOM     33  C   UNL     1       0.490   2.322  19.875  0.00  0.00    +0.000 A 
ATOM     34  N   UNL     1       1.458   3.138  20.399  0.00  0.00    +0.000 N 
ATOM     35  C   UNL     1       1.850   3.102  21.787  0.00  0.00    +0.000 C 
ENDBRANCH  21  30
BRANCH  21  36
ATOM     36  O   UNL     1       3.625   4.778  20.745  0.00  0.00    +0.000 OA
ATOM     37  H   UNL     1       4.309   4.140  20.483  0.00  0.00    +0.000 HD
ENDBRANCH  21  36
ENDBRANCH   7  21
TORSDOF 8
ENDMDL
MODEL 9
REMARK VINA RESULT:      -7.4      3.509      7.333
REMARK  Name = 
REMARK  10 active torsions:
REMARK  status: ('A' for Active; 'I' for Inactive)
REMARK    1  A    between atoms: C_1  and  O_2
REMARK    2  A    between atoms: O_2  and  C_3
REMARK    3  A    between atoms: C_6  and  C_7
REMARK    4  A    between atoms: C_9  and  N_10
REMARK    5  A    between atoms: C_16  and  C_17
REMARK    6  A    between atoms: C_17  and  O_18
REMARK    7  A    between atoms: C_17  and  C_19
REMARK    8  A    between atoms: C_17  and  C_27
REMARK    9  A    between atoms: C_22  and  C_23
REMARK   10  A    between atoms: N_31  and  C_32
REMARK                            x       y       z     vdW  Elec       q    Type
REMARK                         _______ _______ _______ _____ _____    ______ ____
ROOT
ATOM      1  C   UNL     1       6.932   6.799  17.066  0.00  0.00    +0.000 A 
ATOM      2  C   UNL     1       7.485   6.375  15.815  0.00  0.00    +0.000 A 
ATOM      3  C   UNL     1       6.938   5.361  15.025  0.00  0.00    +0.000 A 
ATOM      4  C   UNL     1       5.834   4.646  15.467  0.00  0.00    +0.000 A 
ATOM      5  C   UNL     1       5.281   4.979  16.708  0.00  0.00    +0.000 A 
ATOM      6  C   UNL     1       4.174   4.446  17.391  0.00  0.00    +0.000 A 
ATOM      7  C   UNL     1       4.021   5.163  18.550  0.00  0.00    +0.000 A 
ATOM      8  O   UNL     1       5.020   6.136  18.625  0.00  0.00    +0.000 OA
ATOM      9  C   UNL     1       5.806   6.027  17.484  0.00  0.00    +0.000 A 
ENDROOT
BRANCH   1  13
ATOM     10  C   UNL     1       9.030  10.264  18.655  0.00  0.00    +0.000 A 
ATOM     11  C   UNL     1       8.103  10.384  17.632  0.00  0.00    +0.000 A 
ATOM     12  C   UNL     1       7.377   9.267  17.206  0.00  0.00    +0.000 A 
ATOM     13  C   UNL     1       7.582   7.964  17.734  0.00  0.00    +0.000 A 
ATOM     14  C   UNL     1       8.517   7.871  18.774  0.00  0.00    +0.000 A 
ATOM     15  C   UNL     1       9.232   9.008  19.230  0.00  0.00    +0.000 A 
BRANCH  10  17
ATOM     16  C   UNL     1      10.215  12.145  17.846  0.00  0.00    +0.000 C 
ATOM     17  O   UNL     1       9.703  11.415  18.953  0.00  0.00    +0.000 OA
ENDBRANCH  10  17
ENDBRANCH   1  13
BRANCH   3  18
ATOM     18  N   UNL     1       7.501   5.066  13.702  0.00  0.00    +0.000 N 
ATOM     19  O   UNL     1       6.952   4.186  13.025  0.00  0.00    +0.000 OA
ATOM     20  O   UNL     1       8.501   5.707  13.350  0.00  0.00    +0.000 OA
ENDBRANCH   3  18
BRANCH   7  21
ATOM     21  C   UNL     1       2.917   5.090  19.613  0.00  0.00    +0.000 C 
BRANCH  21  22
ATOM     22  C   UNL     1       2.227   6.471  19.741  0.00  0.00    +0.000 A 
ATOM     23  C   UNL     1       2.238   7.394  18.669  0.00  0.00    +0.000 A 
ATOM     24  C   UNL     1       1.683   8.673  18.797  0.00  0.00    +0.000 A 
ATOM     25  C   UNL     1       1.081   9.057  19.997  0.00  0.00    +0.000 A 
ATOM     26  C   UNL     1       1.007   8.140  21.048  0.00  0.00    +0.000 A 
ATOM     27  C   UNL     1       1.563   6.859  20.918  0.00  0.00    +0.000 A 
BRANCH  25  28
ATOM     28  C   UNL     1       0.550  10.380  20.148  0.00  0.00    +0.000 C 
ATOM     29  N   UNL     1       0.128  11.458  20.259  0.00  0.00    +0.000 NA
ENDBRANCH  25  28
ENDBRANCH  21  22
BRANCH  21  30
ATOM     30  C   UNL     1       1.901   3.970  19.392  0.00  0.00    +0.000 A 
ATOM     31  C   UNL     1       1.139   3.651  18.272  0.00  0.00    +0.000 A 
ATOM     32  N   UNL     1       0.311   2.584  18.494  0.00  0.00    +0.000 NA
ATOM     33  C   UNL     1       0.503   2.263  19.749  0.00  0.00    +0.000 A 
ATOM     34  N   UNL     1       1.447   3.063  20.337  0.00  0.00    +0.000 N 
ATOM     35  C   UNL     1       1.808   2.961  21.729  0.00  0.00    +0.000 C 
ENDBRANCH  21  30
BRANCH  21  36
ATOM     36  O   UNL     1       3.561   4.727  20.833  0.00  0.00    +0.000 OA
ATOM     37  H   UNL     1       3.134   5.269  21.518  0.00  0.00    +0.000 HD
ENDBRANCH  21  36
ENDBRANCH   7  21
TORSDOF 8
ENDMDL
