MODEL 1
REMARK VINA RESULT:      -8.8      0.000      0.000
REMARK  Name = 
REMARK  8 active torsions:
REMARK  status: ('A' for Active; 'I' for Inactive)
REMARK    1  A    between atoms: C_1  and  C_2
REMARK    2  A    between atoms: C_10  and  O_11
REMARK    3  A    between atoms: O_11  and  C_12
REMARK    4  A    between atoms: C_12  and  C_13
REMARK    5  A    between atoms: C_13  and  N_14
REMARK    6  A    between atoms: N_14  and  C_15
REMARK    7  A    between atoms: N_18  and  C_19
REMARK    8  A    between atoms: C_19  and  C_20
REMARK                            x       y       z     vdW  Elec       q    Type
REMARK                         _______ _______ _______ _____ _____    ______ ____
ROOT
ATOM      1  C   UNL     1       8.247   9.472  18.038  0.00  0.00    +0.000 C 
ENDROOT
BRANCH   1   2
ATOM      2  N   UNL     1       9.265  10.040  18.923  0.00  0.00    +0.000 NA
ATOM      3  H   UNL     1       9.894   9.284  19.210  0.00  0.00    +0.000 HD
BRANCH   2   4
ATOM      4  C   UNL     1      10.039  11.115  18.278  0.00  0.00    +0.000 C 
ATOM      5  C   UNL     1      11.270  11.437  19.127  0.00  0.00    +0.000 C 
ATOM      6  C   UNL     1      10.863  12.042  20.467  0.00  0.00    +0.000 C 
ATOM      7  N   UNL     1      10.101  13.292  20.283  0.00  0.00    +0.000 NA
ATOM      8  C   UNL     1       8.909  13.080  19.451  0.00  0.00    +0.000 C 
ATOM      9  C   UNL     1       9.248  12.421  18.109  0.00  0.00    +0.000 C 
BRANCH   7  10
ATOM     10  C   UNL     1       9.729  13.878  21.590  0.00  0.00    +0.000 C 
BRANCH  10  11
ATOM     11  C   UNL     1       8.458  13.246  22.124  0.00  0.00    +0.000 A 
ATOM     12  C   UNL     1       7.243  13.941  22.010  0.00  0.00    +0.000 A 
ATOM     13  C   UNL     1       6.124  13.523  22.723  0.00  0.00    +0.000 A 
ATOM     14  C   UNL     1       6.198  12.390  23.533  0.00  0.00    +0.000 A 
ATOM     15  C   UNL     1       7.380  11.653  23.598  0.00  0.00    +0.000 A 
ATOM     16  C   UNL     1       8.507  12.074  22.892  0.00  0.00    +0.000 A 
ENDBRANCH  10  11
ENDBRANCH   7  10
ENDBRANCH   2   4
ENDBRANCH   1   2
BRANCH   1  17
ATOM     17  C   UNL     1       8.154   7.952  18.178  0.00  0.00    +0.000 C 
BRANCH  17  18
ATOM     18  O   UNL     1       7.493   7.394  17.041  0.00  0.00    +0.000 OA
BRANCH  18  28
ATOM     19  C   UNL     1       1.672   4.454  17.682  0.00  0.00    +0.000 C 
ATOM     20  C   UNL     1       3.013   4.163  18.307  0.00  0.00    +0.000 A 
ATOM     21  C   UNL     1       3.255   3.151  19.161  0.00  0.00    +0.000 A 
ATOM     22 CL   UNL     1       2.008   2.062  19.680  0.00  0.00    +0.000 Cl
ATOM     23  C   UNL     1       4.608   2.872  19.729  0.00  0.00    +0.000 A 
ATOM     24  O   UNL     1       4.825   1.966  20.526  0.00  0.00    +0.000 OA
ATOM     25  O   UNL     1       5.639   3.696  19.303  0.00  0.00    +0.000 OA
ATOM     26  C   UNL     1       5.406   4.783  18.444  0.00  0.00    +0.000 A 
ATOM     27  C   UNL     1       6.514   5.572  18.128  0.00  0.00    +0.000 A 
ATOM     28  C   UNL     1       6.351   6.689  17.307  0.00  0.00    +0.000 A 
ATOM     29  C   UNL     1       5.082   6.991  16.821  0.00  0.00    +0.000 A 
ATOM     30  C   UNL     1       3.986   6.177  17.132  0.00  0.00    +0.000 A 
ATOM     31  C   UNL     1       4.130   5.054  17.955  0.00  0.00    +0.000 A 
ENDBRANCH  18  28
ENDBRANCH  17  18
ENDBRANCH   1  17
TORSDOF 7
ENDMDL
MODEL 2
REMARK VINA RESULT:      -8.7      5.808      8.710
REMARK  Name = 
REMARK  8 active torsions:
REMARK  status: ('A' for Active; 'I' for Inactive)
REMARK    1  A    between atoms: C_1  and  C_2
REMARK    2  A    between atoms: C_10  and  O_11
REMARK    3  A    between atoms: O_11  and  C_12
REMARK    4  A    between atoms: C_12  and  C_13
REMARK    5  A    between atoms: C_13  and  N_14
REMARK    6  A    between atoms: N_14  and  C_15
REMARK    7  A    between atoms: N_18  and  C_19
REMARK    8  A    between atoms: C_19  and  C_20
REMARK                            x       y       z     vdW  Elec       q    Type
REMARK                         _______ _______ _______ _____ _____    ______ ____
ROOT
ATOM      1  C   UNL     1       5.347   7.233  17.292  0.00  0.00    +0.000 C 
ENDROOT
BRANCH   1   2
ATOM      2  N   UNL     1       6.065   6.532  16.227  0.00  0.00    +0.000 NA
ATOM      3  H   UNL     1       6.702   7.199  15.781  0.00  0.00    +0.000 HD
BRANCH   2   4
ATOM      4  C   UNL     1       6.825   5.372  16.725  0.00  0.00    +0.000 C 
ATOM      5  C   UNL     1       6.534   4.155  15.847  0.00  0.00    +0.000 C 
ATOM      6  C   UNL     1       5.079   3.718  15.988  0.00  0.00    +0.000 C 
ATOM      7  N   UNL     1       4.761   3.356  17.383  0.00  0.00    +0.000 NA
ATOM      8  C   UNL     1       5.039   4.464  18.306  0.00  0.00    +0.000 C 
ATOM      9  C   UNL     1       6.473   4.987  18.170  0.00  0.00    +0.000 C 
BRANCH   7  10
ATOM     10  C   UNL     1       3.353   2.916  17.503  0.00  0.00    +0.000 C 
BRANCH  10  11
ATOM     11  C   UNL     1       2.798   3.244  18.876  0.00  0.00    +0.000 A 
ATOM     12  C   UNL     1       3.318   2.588  20.004  0.00  0.00    +0.000 A 
ATOM     13  C   UNL     1       2.656   2.659  21.226  0.00  0.00    +0.000 A 
ATOM     14  C   UNL     1       1.487   3.409  21.341  0.00  0.00    +0.000 A 
ATOM     15  C   UNL     1       1.001   4.120  20.244  0.00  0.00    +0.000 A 
ATOM     16  C   UNL     1       1.657   4.046  19.016  0.00  0.00    +0.000 A 
ENDBRANCH  10  11
ENDBRANCH   7  10
ENDBRANCH   2   4
ENDBRANCH   1   2
BRANCH   1  17
ATOM     17  C   UNL     1       3.855   7.366  16.982  0.00  0.00    +0.000 C 
BRANCH  17  18
ATOM     18  O   UNL     1       3.081   6.978  18.119  0.00  0.00    +0.000 OA
BRANCH  18  28
ATOM     19  C   UNL     1      -1.070  11.772  19.773  0.00  0.00    +0.000 C 
ATOM     20  C   UNL     1      -0.339  10.750  20.607  0.00  0.00    +0.000 A 
ATOM     21  C   UNL     1      -0.444  10.638  21.945  0.00  0.00    +0.000 A 
ATOM     22 CL   UNL     1      -1.432  11.710  22.887  0.00  0.00    +0.000 Cl
ATOM     23  C   UNL     1       0.266   9.586  22.732  0.00  0.00    +0.000 A 
ATOM     24  O   UNL     1       0.192   9.498  23.952  0.00  0.00    +0.000 OA
ATOM     25  O   UNL     1       1.031   8.684  22.007  0.00  0.00    +0.000 OA
ATOM     26  C   UNL     1       1.191   8.802  20.616  0.00  0.00    +0.000 A 
ATOM     27  C   UNL     1       2.027   7.866  20.006  0.00  0.00    +0.000 A 
ATOM     28  C   UNL     1       2.259   7.944  18.632  0.00  0.00    +0.000 A 
ATOM     29  C   UNL     1       1.646   8.958  17.900  0.00  0.00    +0.000 A 
ATOM     30  C   UNL     1       0.794   9.876  18.525  0.00  0.00    +0.000 A 
ATOM     31  C   UNL     1       0.552   9.814  19.903  0.00  0.00    +0.000 A 
ENDBRANCH  18  28
ENDBRANCH  17  18
ENDBRANCH   1  17
TORSDOF 7
ENDMDL
MODEL 3
REMARK VINA RESULT:      -8.6      4.446     10.372
REMARK  Name = 
REMARK  8 active torsions:
REMARK  status: ('A' for Active; 'I' for Inactive)
REMARK    1  A    between atoms: C_1  and  C_2
REMARK    2  A    between atoms: C_10  and  O_11
REMARK    3  A    between atoms: O_11  and  C_12
REMARK    4  A    between atoms: C_12  and  C_13
REMARK    5  A    between atoms: C_13  and  N_14
REMARK    6  A    between atoms: N_14  and  C_15
REMARK    7  A    between atoms: N_18  and  C_19
REMARK    8  A    between atoms: C_19  and  C_20
REMARK                            x       y       z     vdW  Elec       q    Type
REMARK                         _______ _______ _______ _____ _____    ______ ____
ROOT
ATOM      1  C   UNL     1       7.246   7.451  17.957  0.00  0.00    +0.000 C 
ENDROOT
BRANCH   1   2
ATOM      2  N   UNL     1       7.154   6.713  16.697  0.00  0.00    +0.000 NA
ATOM      3  H   UNL     1       7.494   5.760  16.860  0.00  0.00    +0.000 HD
BRANCH   2   4
ATOM      4  C   UNL     1       5.779   6.667  16.168  0.00  0.00    +0.000 C 
ATOM      5  C   UNL     1       4.783   6.816  17.319  0.00  0.00    +0.000 C 
ATOM      6  C   UNL     1       4.849   5.612  18.253  0.00  0.00    +0.000 C 
ATOM      7  N   UNL     1       4.530   4.361  17.539  0.00  0.00    +0.000 NA
ATOM      8  C   UNL     1       5.426   4.150  16.394  0.00  0.00    +0.000 C 
ATOM      9  C   UNL     1       5.447   5.353  15.445  0.00  0.00    +0.000 C 
BRANCH   7  10
ATOM     10  C   UNL     1       4.578   3.204  18.461  0.00  0.00    +0.000 C 
BRANCH  10  11
ATOM     11  C   UNL     1       3.222   2.958  19.093  0.00  0.00    +0.000 A 
ATOM     12  C   UNL     1       2.091   2.830  18.271  0.00  0.00    +0.000 A 
ATOM     13  C   UNL     1       0.814   2.880  18.818  0.00  0.00    +0.000 A 
ATOM     14  C   UNL     1       0.652   3.027  20.195  0.00  0.00    +0.000 A 
ATOM     15  C   UNL     1       1.769   3.086  21.028  0.00  0.00    +0.000 A 
ATOM     16  C   UNL     1       3.052   3.044  20.482  0.00  0.00    +0.000 A 
ENDBRANCH  10  11
ENDBRANCH   7  10
ENDBRANCH   2   4
ENDBRANCH   1   2
BRANCH   1  17
ATOM     17  C   UNL     1       7.971   8.787  17.782  0.00  0.00    +0.000 C 
BRANCH  17  18
ATOM     18  O   UNL     1       9.009   8.913  18.755  0.00  0.00    +0.000 OA
BRANCH  18  28
ATOM     19  C   UNL     1      10.321  14.727  21.478  0.00  0.00    +0.000 C 
ATOM     20  C   UNL     1      10.366  14.262  20.044  0.00  0.00    +0.000 A 
ATOM     21  C   UNL     1      10.731  15.031  19.002  0.00  0.00    +0.000 A 
ATOM     22 CL   UNL     1      11.168  16.699  19.193  0.00  0.00    +0.000 Cl
ATOM     23  C   UNL     1      10.800  14.521  17.600  0.00  0.00    +0.000 A 
ATOM     24  O   UNL     1      11.108  15.227  16.645  0.00  0.00    +0.000 OA
ATOM     25  O   UNL     1      10.499  13.180  17.414  0.00  0.00    +0.000 OA
ATOM     26  C   UNL     1      10.076  12.366  18.478  0.00  0.00    +0.000 A 
ATOM     27  C   UNL     1       9.751  11.046  18.158  0.00  0.00    +0.000 A 
ATOM     28  C   UNL     1       9.291  10.189  19.158  0.00  0.00    +0.000 A 
ATOM     29  C   UNL     1       9.167  10.674  20.458  0.00  0.00    +0.000 A 
ATOM     30  C   UNL     1       9.518  11.994  20.765  0.00  0.00    +0.000 A 
ATOM     31  C   UNL     1       9.979  12.868  19.774  0.00  0.00    +0.000 A 
ENDBRANCH  18  28
ENDBRANCH  17  18
ENDBRANCH   1  17
TORSDOF 7
ENDMDL
MODEL 4
REMARK VINA RESULT:      -8.2      4.766     10.506
REMARK  Name = 
REMARK  8 active torsions:
REMARK  status: ('A' for Active; 'I' for Inactive)
REMARK    1  A    between atoms: C_1  and  C_2
REMARK    2  A    between atoms: C_10  and  O_11
REMARK    3  A    between atoms: O_11  and  C_12
REMARK    4  A    between atoms: C_12  and  C_13
REMARK    5  A    between atoms: C_13  and  N_14
REMARK    6  A    between atoms: N_14  and  C_15
REMARK    7  A    between atoms: N_18  and  C_19
REMARK    8  A    between atoms: C_19  and  C_20
REMARK                            x       y       z     vdW  Elec       q    Type
REMARK                         _______ _______ _______ _____ _____    ______ ____
ROOT
ATOM      1  C   UNL     1       8.178   8.179  17.427  0.00  0.00    +0.000 C 
ENDROOT
BRANCH   1   2
ATOM      2  N   UNL     1       7.470   7.162  18.205  0.00  0.00    +0.000 NA
ATOM      3  H   UNL     1       6.569   7.555  18.498  0.00  0.00    +0.000 HD
BRANCH   2   4
ATOM      4  C   UNL     1       7.247   5.920  17.444  0.00  0.00    +0.000 C 
ATOM      5  C   UNL     1       6.313   6.204  16.266  0.00  0.00    +0.000 C 
ATOM      6  C   UNL     1       4.919   6.579  16.757  0.00  0.00    +0.000 C 
ATOM      7  N   UNL     1       4.321   5.492  17.557  0.00  0.00    +0.000 NA
ATOM      8  C   UNL     1       5.170   5.134  18.701  0.00  0.00    +0.000 C 
ATOM      9  C   UNL     1       6.605   4.801  18.276  0.00  0.00    +0.000 C 
BRANCH   7  10
ATOM     10  C   UNL     1       2.961   5.861  18.010  0.00  0.00    +0.000 C 
BRANCH  10  11
ATOM     11  C   UNL     1       2.311   4.714  18.759  0.00  0.00    +0.000 A 
ATOM     12  C   UNL     1       1.760   3.643  18.036  0.00  0.00    +0.000 A 
ATOM     13  C   UNL     1       0.925   2.725  18.665  0.00  0.00    +0.000 A 
ATOM     14  C   UNL     1       0.657   2.849  20.027  0.00  0.00    +0.000 A 
ATOM     15  C   UNL     1       1.254   3.867  20.769  0.00  0.00    +0.000 A 
ATOM     16  C   UNL     1       2.085   4.795  20.141  0.00  0.00    +0.000 A 
ENDBRANCH  10  11
ENDBRANCH   7  10
ENDBRANCH   2   4
ENDBRANCH   1   2
BRANCH   1  17
ATOM     17  C   UNL     1       8.089   9.560  18.080  0.00  0.00    +0.000 C 
BRANCH  17  18
ATOM     18  O   UNL     1       9.294   9.843  18.794  0.00  0.00    +0.000 OA
BRANCH  18  28
ATOM     19  C   UNL     1      12.311  15.415  17.126  0.00  0.00    +0.000 C 
ATOM     20  C   UNL     1      11.178  15.139  18.082  0.00  0.00    +0.000 A 
ATOM     21  C   UNL     1      10.536  16.080  18.799  0.00  0.00    +0.000 A 
ATOM     22 CL   UNL     1      10.977  17.757  18.728  0.00  0.00    +0.000 Cl
ATOM     23  C   UNL     1       9.392  15.772  19.708  0.00  0.00    +0.000 A 
ATOM     24  O   UNL     1       8.822  16.624  20.381  0.00  0.00    +0.000 OA
ATOM     25  O   UNL     1       8.983  14.447  19.758  0.00  0.00    +0.000 OA
ATOM     26  C   UNL     1       9.661  13.439  19.051  0.00  0.00    +0.000 A 
ATOM     27  C   UNL     1       9.188  12.137  19.223  0.00  0.00    +0.000 A 
ATOM     28  C   UNL     1       9.834  11.081  18.579  0.00  0.00    +0.000 A 
ATOM     29  C   UNL     1      10.939  11.354  17.776  0.00  0.00    +0.000 A 
ATOM     30  C   UNL     1      11.386  12.668  17.599  0.00  0.00    +0.000 A 
ATOM     31  C   UNL     1      10.752  13.740  18.239  0.00  0.00    +0.000 A 
ENDBRANCH  18  28
ENDBRANCH  17  18
ENDBRANCH   1  17
TORSDOF 7
ENDMDL
MODEL 5
REMARK VINA RESULT:      -8.1      6.034      9.246
REMARK  Name = 
REMARK  8 active torsions:
REMARK  status: ('A' for Active; 'I' for Inactive)
REMARK    1  A    between atoms: C_1  and  C_2
REMARK    2  A    between atoms: C_10  and  O_11
REMARK    3  A    between atoms: O_11  and  C_12
REMARK    4  A    between atoms: C_12  and  C_13
REMARK    5  A    between atoms: C_13  and  N_14
REMARK    6  A    between atoms: N_14  and  C_15
REMARK    7  A    between atoms: N_18  and  C_19
REMARK    8  A    between atoms: C_19  and  C_20
REMARK                            x       y       z     vdW  Elec       q    Type
REMARK                         _______ _______ _______ _____ _____    ______ ____
ROOT
ATOM      1  C   UNL     1       4.712   7.549  17.348  0.00  0.00    +0.000 C 
ENDROOT
BRANCH   1   2
ATOM      2  N   UNL     1       5.041   6.598  16.285  0.00  0.00    +0.000 NA
ATOM      3  H   UNL     1       5.301   7.131  15.450  0.00  0.00    +0.000 HD
BRANCH   2   4
ATOM      4  C   UNL     1       6.139   5.689  16.659  0.00  0.00    +0.000 C 
ATOM      5  C   UNL     1       6.063   4.420  15.809  0.00  0.00    +0.000 C 
ATOM      6  C   UNL     1       4.807   3.620  16.138  0.00  0.00    +0.000 C 
ATOM      7  N   UNL     1       4.785   3.215  17.557  0.00  0.00    +0.000 NA
ATOM      8  C   UNL     1       4.882   4.376  18.451  0.00  0.00    +0.000 C 
ATOM      9  C   UNL     1       6.097   5.254  18.132  0.00  0.00    +0.000 C 
BRANCH   7  10
ATOM     10  C   UNL     1       3.571   2.423  17.858  0.00  0.00    +0.000 C 
BRANCH  10  11
ATOM     11  C   UNL     1       2.884   2.939  19.107  0.00  0.00    +0.000 A 
ATOM     12  C   UNL     1       3.300   2.474  20.365  0.00  0.00    +0.000 A 
ATOM     13  C   UNL     1       2.524   2.710  21.495  0.00  0.00    +0.000 A 
ATOM     14  C   UNL     1       1.341   3.439  21.386  0.00  0.00    +0.000 A 
ATOM     15  C   UNL     1       0.954   3.966  20.154  0.00  0.00    +0.000 A 
ATOM     16  C   UNL     1       1.726   3.724  19.017  0.00  0.00    +0.000 A 
ENDBRANCH  10  11
ENDBRANCH   7  10
ENDBRANCH   2   4
ENDBRANCH   1   2
BRANCH   1  17
ATOM     17  C   UNL     1       3.201   7.722  17.510  0.00  0.00    +0.000 C 
BRANCH  17  18
ATOM     18  O   UNL     1       2.768   7.128  18.736  0.00  0.00    +0.000 OA
BRANCH  18  28
ATOM     19  C   UNL     1      -0.868  10.379  23.112  0.00  0.00    +0.000 C 
ATOM     20  C   UNL     1      -0.582  10.645  21.655  0.00  0.00    +0.000 A 
ATOM     21  C   UNL     1      -1.057  11.696  20.962  0.00  0.00    +0.000 A 
ATOM     22 CL   UNL     1      -2.111  12.875  21.677  0.00  0.00    +0.000 Cl
ATOM     23  C   UNL     1      -0.719  11.946  19.528  0.00  0.00    +0.000 A 
ATOM     24  O   UNL     1      -1.171  12.889  18.888  0.00  0.00    +0.000 OA
ATOM     25  O   UNL     1       0.155  11.048  18.935  0.00  0.00    +0.000 OA
ATOM     26  C   UNL     1       0.634   9.920  19.623  0.00  0.00    +0.000 A 
ATOM     27  C   UNL     1       1.466   9.061  18.903  0.00  0.00    +0.000 A 
ATOM     28  C   UNL     1       1.951   7.903  19.512  0.00  0.00    +0.000 A 
ATOM     29  C   UNL     1       1.592   7.632  20.830  0.00  0.00    +0.000 A 
ATOM     30  C   UNL     1       0.774   8.516  21.544  0.00  0.00    +0.000 A 
ATOM     31  C   UNL     1       0.276   9.681  20.948  0.00  0.00    +0.000 A 
ENDBRANCH  18  28
ENDBRANCH  17  18
ENDBRANCH   1  17
TORSDOF 7
ENDMDL
MODEL 6
REMARK VINA RESULT:      -8.1      4.429     10.343
REMARK  Name = 
REMARK  8 active torsions:
REMARK  status: ('A' for Active; 'I' for Inactive)
REMARK    1  A    between atoms: C_1  and  C_2
REMARK    2  A    between atoms: C_10  and  O_11
REMARK    3  A    between atoms: O_11  and  C_12
REMARK    4  A    between atoms: C_12  and  C_13
REMARK    5  A    between atoms: C_13  and  N_14
REMARK    6  A    between atoms: N_14  and  C_15
REMARK    7  A    between atoms: N_18  and  C_19
REMARK    8  A    between atoms: C_19  and  C_20
REMARK                            x       y       z     vdW  Elec       q    Type
REMARK                         _______ _______ _______ _____ _____    ______ ____
ROOT
ATOM      1  C   UNL     1       7.790   8.146  17.440  0.00  0.00    +0.000 C 
ENDROOT
BRANCH   1   2
ATOM      2  N   UNL     1       7.881   7.256  18.598  0.00  0.00    +0.000 NA
ATOM      3  H   UNL     1       7.150   7.525  19.264  0.00  0.00    +0.000 HD
BRANCH   2   4
ATOM      4  C   UNL     1       7.725   5.837  18.235  0.00  0.00    +0.000 C 
ATOM      5  C   UNL     1       6.982   5.730  16.902  0.00  0.00    +0.000 C 
ATOM      6  C   UNL     1       5.546   6.224  17.039  0.00  0.00    +0.000 C 
ATOM      7  N   UNL     1       4.799   5.435  18.038  0.00  0.00    +0.000 NA
ATOM      8  C   UNL     1       5.460   5.460  19.350  0.00  0.00    +0.000 C 
ATOM      9  C   UNL     1       6.928   5.026  19.267  0.00  0.00    +0.000 C 
BRANCH   7  10
ATOM     10  C   UNL     1       3.403   5.913  18.148  0.00  0.00    +0.000 C 
BRANCH  10  11
ATOM     11  C   UNL     1       2.458   4.762  18.430  0.00  0.00    +0.000 A 
ATOM     12  C   UNL     1       1.630   4.812  19.564  0.00  0.00    +0.000 A 
ATOM     13  C   UNL     1       0.962   3.672  19.999  0.00  0.00    +0.000 A 
ATOM     14  C   UNL     1       1.089   2.478  19.290  0.00  0.00    +0.000 A 
ATOM     15  C   UNL     1       1.853   2.435  18.124  0.00  0.00    +0.000 A 
ATOM     16  C   UNL     1       2.530   3.574  17.689  0.00  0.00    +0.000 A 
ENDBRANCH  10  11
ENDBRANCH   7  10
ENDBRANCH   2   4
ENDBRANCH   1   2
BRANCH   1  17
ATOM     17  C   UNL     1       8.397   9.521  17.730  0.00  0.00    +0.000 C 
BRANCH  17  18
ATOM     18  O   UNL     1       8.938   9.549  19.052  0.00  0.00    +0.000 OA
BRANCH  18  28
ATOM     19  C   UNL     1      10.420  15.122  22.165  0.00  0.00    +0.000 C 
ATOM     20  C   UNL     1      10.307  14.796  20.697  0.00  0.00    +0.000 A 
ATOM     21  C   UNL     1      10.528  15.673  19.700  0.00  0.00    +0.000 A 
ATOM     22 CL   UNL     1      10.943  17.331  20.002  0.00  0.00    +0.000 Cl
ATOM     23  C   UNL     1      10.443  15.302  18.256  0.00  0.00    +0.000 A 
ATOM     24  O   UNL     1      10.619  16.106  17.346  0.00  0.00    +0.000 OA
ATOM     25  O   UNL     1      10.155  13.975  17.975  0.00  0.00    +0.000 OA
ATOM     26  C   UNL     1       9.881  13.048  18.995  0.00  0.00    +0.000 A 
ATOM     27  C   UNL     1       9.552  11.754  18.586  0.00  0.00    +0.000 A 
ATOM     28  C   UNL     1       9.235  10.790  19.544  0.00  0.00    +0.000 A 
ATOM     29  C   UNL     1       9.253  11.145  20.890  0.00  0.00    +0.000 A 
ATOM     30  C   UNL     1       9.605  12.441  21.284  0.00  0.00    +0.000 A 
ATOM     31  C   UNL     1       9.925  13.421  20.337  0.00  0.00    +0.000 A 
ENDBRANCH  18  28
ENDBRANCH  17  18
ENDBRANCH   1  17
TORSDOF 7
ENDMDL
MODEL 7
REMARK VINA RESULT:      -8.1      4.359     10.174
REMARK  Name = 
REMARK  8 active torsions:
REMARK  status: ('A' for Active; 'I' for Inactive)
REMARK    1  A    between atoms: C_1  and  C_2
REMARK    2  A    between atoms: C_10  and  O_11
REMARK    3  A    between atoms: O_11  and  C_12
REMARK    4  A    between atoms: C_12  and  C_13
REMARK    5  A    between atoms: C_13  and  N_14
REMARK    6  A    between atoms: N_14  and  C_15
REMARK    7  A    between atoms: N_18  and  C_19
REMARK    8  A    between atoms: C_19  and  C_20
REMARK                            x       y       z     vdW  Elec       q    Type
REMARK                         _______ _______ _______ _____ _____    ______ ____
ROOT
ATOM      1  C   UNL     1       8.057   7.203  18.388  0.00  0.00    +0.000 C 
ENDROOT
BRANCH   1   2
ATOM      2  N   UNL     1       7.010   6.205  18.166  0.00  0.00    +0.000 NA
ATOM      3  H   UNL     1       6.479   6.102  19.036  0.00  0.00    +0.000 HD
BRANCH   2   4
ATOM      4  C   UNL     1       6.101   6.574  17.066  0.00  0.00    +0.000 C 
ATOM      5  C   UNL     1       4.680   6.731  17.610  0.00  0.00    +0.000 C 
ATOM      6  C   UNL     1       4.133   5.392  18.094  0.00  0.00    +0.000 C 
ATOM      7  N   UNL     1       4.092   4.401  17.001  0.00  0.00    +0.000 NA
ATOM      8  C   UNL     1       5.418   4.207  16.398  0.00  0.00    +0.000 C 
ATOM      9  C   UNL     1       6.047   5.529  15.942  0.00  0.00    +0.000 C 
BRANCH   7  10
ATOM     10  C   UNL     1       3.542   3.114  17.479  0.00  0.00    +0.000 C 
BRANCH  10  11
ATOM     11  C   UNL     1       2.829   3.289  18.806  0.00  0.00    +0.000 A 
ATOM     12  C   UNL     1       3.449   2.846  19.985  0.00  0.00    +0.000 A 
ATOM     13  C   UNL     1       2.721   2.740  21.166  0.00  0.00    +0.000 A 
ATOM     14  C   UNL     1       1.375   3.105  21.189  0.00  0.00    +0.000 A 
ATOM     15  C   UNL     1       0.768   3.612  20.040  0.00  0.00    +0.000 A 
ATOM     16  C   UNL     1       1.492   3.712  18.852  0.00  0.00    +0.000 A 
ENDBRANCH  10  11
ENDBRANCH   7  10
ENDBRANCH   2   4
ENDBRANCH   1   2
BRANCH   1  17
ATOM     17  C   UNL     1       7.692   8.557  17.778  0.00  0.00    +0.000 C 
BRANCH  17  18
ATOM     18  O   UNL     1       8.870   9.343  17.587  0.00  0.00    +0.000 OA
BRANCH  18  28
ATOM     19  C   UNL     1       9.794  14.088  22.010  0.00  0.00    +0.000 C 
ATOM     20  C   UNL     1       9.341  14.136  20.572  0.00  0.00    +0.000 A 
ATOM     21  C   UNL     1       9.043  15.264  19.901  0.00  0.00    +0.000 A 
ATOM     22 CL   UNL     1       9.113  16.829  20.648  0.00  0.00    +0.000 Cl
ATOM     23  C   UNL     1       8.635  15.273  18.465  0.00  0.00    +0.000 A 
ATOM     24  O   UNL     1       8.338  16.298  17.859  0.00  0.00    +0.000 OA
ATOM     25  O   UNL     1       8.609  14.044  17.822  0.00  0.00    +0.000 OA
ATOM     26  C   UNL     1       8.876  12.848  18.509  0.00  0.00    +0.000 A 
ATOM     27  C   UNL     1       8.767  11.670  17.768  0.00  0.00    +0.000 A 
ATOM     28  C   UNL     1       8.986  10.442  18.393  0.00  0.00    +0.000 A 
ATOM     29  C   UNL     1       9.309  10.421  19.748  0.00  0.00    +0.000 A 
ATOM     30  C   UNL     1       9.434  11.613  20.470  0.00  0.00    +0.000 A 
ATOM     31  C   UNL     1       9.217  12.854  19.860  0.00  0.00    +0.000 A 
ENDBRANCH  18  28
ENDBRANCH  17  18
ENDBRANCH   1  17
TORSDOF 7
ENDMDL
MODEL 8
REMARK VINA RESULT:      -8.1      4.550     10.384
REMARK  Name = 
REMARK  8 active torsions:
REMARK  status: ('A' for Active; 'I' for Inactive)
REMARK    1  A    between atoms: C_1  and  C_2
REMARK    2  A    between atoms: C_10  and  O_11
REMARK    3  A    between atoms: O_11  and  C_12
REMARK    4  A    between atoms: C_12  and  C_13
REMARK    5  A    between atoms: C_13  and  N_14
REMARK    6  A    between atoms: N_14  and  C_15
REMARK    7  A    between atoms: N_18  and  C_19
REMARK    8  A    between atoms: C_19  and  C_20
REMARK                            x       y       z     vdW  Elec       q    Type
REMARK                         _______ _______ _______ _____ _____    ______ ____
ROOT
ATOM      1  C   UNL     1       6.970   8.165  17.616  0.00  0.00    +0.000 C 
ENDROOT
BRANCH   1   2
ATOM      2  N   UNL     1       6.760   6.855  16.999  0.00  0.00    +0.000 NA
ATOM      3  H   UNL     1       6.762   6.149  17.743  0.00  0.00    +0.000 HD
BRANCH   2   4
ATOM      4  C   UNL     1       5.496   6.781  16.245  0.00  0.00    +0.000 C 
ATOM      5  C   UNL     1       4.318   6.783  17.220  0.00  0.00    +0.000 C 
ATOM      6  C   UNL     1       4.308   5.511  18.063  0.00  0.00    +0.000 C 
ATOM      7  N   UNL     1       4.193   4.308  17.217  0.00  0.00    +0.000 NA
ATOM      8  C   UNL     1       5.275   4.238  16.226  0.00  0.00    +0.000 C 
ATOM      9  C   UNL     1       5.373   5.515  15.383  0.00  0.00    +0.000 C 
BRANCH   7  10
ATOM     10  C   UNL     1       4.165   3.083  18.047  0.00  0.00    +0.000 C 
BRANCH  10  11
ATOM     11  C   UNL     1       3.102   3.183  19.124  0.00  0.00    +0.000 A 
ATOM     12  C   UNL     1       3.465   3.010  20.469  0.00  0.00    +0.000 A 
ATOM     13  C   UNL     1       2.490   2.823  21.443  0.00  0.00    +0.000 A 
ATOM     14  C   UNL     1       1.141   2.838  21.089  0.00  0.00    +0.000 A 
ATOM     15  C   UNL     1       0.768   3.078  19.767  0.00  0.00    +0.000 A 
ATOM     16  C   UNL     1       1.743   3.258  18.786  0.00  0.00    +0.000 A 
ENDBRANCH  10  11
ENDBRANCH   7  10
ENDBRANCH   2   4
ENDBRANCH   1   2
BRANCH   1  17
ATOM     17  C   UNL     1       8.457   8.480  17.791  0.00  0.00    +0.000 C 
BRANCH  17  18
ATOM     18  O   UNL     1       8.670   9.172  19.023  0.00  0.00    +0.000 OA
BRANCH  18  28
ATOM     19  C   UNL     1      11.676  14.841  17.697  0.00  0.00    +0.000 C 
ATOM     20  C   UNL     1      11.056  14.311  18.966  0.00  0.00    +0.000 A 
ATOM     21  C   UNL     1      11.001  14.985  20.130  0.00  0.00    +0.000 A 
ATOM     22 CL   UNL     1      11.689  16.567  20.315  0.00  0.00    +0.000 Cl
ATOM     23  C   UNL     1      10.343  14.440  21.355  0.00  0.00    +0.000 A 
ATOM     24  O   UNL     1      10.315  15.042  22.423  0.00  0.00    +0.000 OA
ATOM     25  O   UNL     1       9.744  13.195  21.233  0.00  0.00    +0.000 OA
ATOM     26  C   UNL     1       9.822  12.454  20.042  0.00  0.00    +0.000 A 
ATOM     27  C   UNL     1       9.225  11.191  20.058  0.00  0.00    +0.000 A 
ATOM     28  C   UNL     1       9.293  10.385  18.921  0.00  0.00    +0.000 A 
ATOM     29  C   UNL     1       9.956  10.862  17.793  0.00  0.00    +0.000 A 
ATOM     30  C   UNL     1      10.531  12.138  17.788  0.00  0.00    +0.000 A 
ATOM     31  C   UNL     1      10.474  12.960  18.920  0.00  0.00    +0.000 A 
ENDBRANCH  18  28
ENDBRANCH  17  18
ENDBRANCH   1  17
TORSDOF 7
ENDMDL
MODEL 9
REMARK VINA RESULT:      -8.1      4.448     10.053
REMARK  Name = 
REMARK  8 active torsions:
REMARK  status: ('A' for Active; 'I' for Inactive)
REMARK    1  A    between atoms: C_1  and  C_2
REMARK    2  A    between atoms: C_10  and  O_11
REMARK    3  A    between atoms: O_11  and  C_12
REMARK    4  A    between atoms: C_12  and  C_13
REMARK    5  A    between atoms: C_13  and  N_14
REMARK    6  A    between atoms: N_14  and  C_15
REMARK    7  A    between atoms: N_18  and  C_19
REMARK    8  A    between atoms: C_19  and  C_20
REMARK                            x       y       z     vdW  Elec       q    Type
REMARK                         _______ _______ _______ _____ _____    ______ ____
ROOT
ATOM      1  C   UNL     1       7.192   7.418  17.764  0.00  0.00    +0.000 C 
ENDROOT
BRANCH   1   2
ATOM      2  N   UNL     1       7.559   6.565  16.633  0.00  0.00    +0.000 NA
ATOM      3  H   UNL     1       8.562   6.682  16.458  0.00  0.00    +0.000 HD
BRANCH   2   4
ATOM      4  C   UNL     1       7.259   5.143  16.876  0.00  0.00    +0.000 C 
ATOM      5  C   UNL     1       6.162   4.681  15.916  0.00  0.00    +0.000 C 
ATOM      6  C   UNL     1       4.843   5.383  16.220  0.00  0.00    +0.000 C 
ATOM      7  N   UNL     1       4.388   5.099  17.595  0.00  0.00    +0.000 NA
ATOM      8  C   UNL     1       5.398   5.488  18.588  0.00  0.00    +0.000 C 
ATOM      9  C   UNL     1       6.766   4.858  18.302  0.00  0.00    +0.000 C 
BRANCH   7  10
ATOM     10  C   UNL     1       3.098   5.770  17.870  0.00  0.00    +0.000 C 
BRANCH  10  11
ATOM     11  C   UNL     1       2.147   4.838  18.595  0.00  0.00    +0.000 A 
ATOM     12  C   UNL     1       1.884   5.047  19.959  0.00  0.00    +0.000 A 
ATOM     13  C   UNL     1       1.244   4.066  20.710  0.00  0.00    +0.000 A 
ATOM     14  C   UNL     1       0.835   2.880  20.101  0.00  0.00    +0.000 A 
ATOM     15  C   UNL     1       1.029   2.692  18.733  0.00  0.00    +0.000 A 
ATOM     16  C   UNL     1       1.677   3.670  17.978  0.00  0.00    +0.000 A 
ENDBRANCH  10  11
ENDBRANCH   7  10
ENDBRANCH   2   4
ENDBRANCH   1   2
BRANCH   1  17
ATOM     17  C   UNL     1       8.402   8.161  18.333  0.00  0.00    +0.000 C 
BRANCH  17  18
ATOM     18  O   UNL     1       8.617   9.374  17.608  0.00  0.00    +0.000 OA
BRANCH  18  28
ATOM     19  C   UNL     1      10.123  14.206  21.770  0.00  0.00    +0.000 C 
ATOM     20  C   UNL     1       9.464  14.224  20.414  0.00  0.00    +0.000 A 
ATOM     21  C   UNL     1       9.057  15.337  19.776  0.00  0.00    +0.000 A 
ATOM     22 CL   UNL     1       9.218  16.916  20.479  0.00  0.00    +0.000 Cl
ATOM     23  C   UNL     1       8.443  15.317  18.415  0.00  0.00    +0.000 A 
ATOM     24  O   UNL     1       8.048  16.327  17.843  0.00  0.00    +0.000 OA
ATOM     25  O   UNL     1       8.337  14.076  17.804  0.00  0.00    +0.000 OA
ATOM     26  C   UNL     1       8.717  12.895  18.463  0.00  0.00    +0.000 A 
ATOM     27  C   UNL     1       8.515  11.703  17.765  0.00  0.00    +0.000 A 
ATOM     28  C   UNL     1       8.837  10.488  18.371  0.00  0.00    +0.000 A 
ATOM     29  C   UNL     1       9.355  10.495  19.663  0.00  0.00    +0.000 A 
ATOM     30  C   UNL     1       9.571  11.700  20.341  0.00  0.00    +0.000 A 
ATOM     31  C   UNL     1       9.252  12.929  19.749  0.00  0.00    +0.000 A 
ENDBRANCH  18  28
ENDBRANCH  17  18
ENDBRANCH   1  17
TORSDOF 7
ENDMDL
