MODEL 1
REMARK VINA RESULT:      -6.1      0.000      0.000
REMARK  Name = 
REMARK  9 active torsions:
REMARK  status: ('A' for Active; 'I' for Inactive)
REMARK    1  A    between atoms: C_1  and  C_2
REMARK    2  A    between atoms: C_5  and  C_6
REMARK    3  A    between atoms: C_6  and  N_7
REMARK    4  A    between atoms: N_7  and  C_8
REMARK    5  A    between atoms: N_7  and  C_9
REMARK    6  A    between atoms: C_9  and  C_10
REMARK    7  A    between atoms: N_12  and  C_13
REMARK    8  A    between atoms: C_13  and  C_14
REMARK    9  A    between atoms: C_14  and  C_15
REMARK                            x       y       z     vdW  Elec       q    Type
REMARK                         _______ _______ _______ _____ _____    ______ ____
ROOT
ATOM      1  N   UNL     1       6.257   5.348  17.012  0.00  0.00    +0.000 NA
ATOM      2  C   UNL     1       7.029   6.547  17.361  0.00  0.00    +0.000 C 
ENDROOT
BRANCH   1   3
ATOM      3  C   UNL     1       5.635   4.725  18.192  0.00  0.00    +0.000 C 
BRANCH   3   8
ATOM      4  C   UNL     1       1.462   2.332  18.550  0.00  0.00    +0.000 C 
ATOM      5  C   UNL     1       2.258   3.540  18.262  0.00  0.00    +0.000 A 
ATOM      6  C   UNL     1       1.932   4.834  17.915  0.00  0.00    +0.000 A 
ATOM      7  C   UNL     1       3.155   5.532  17.785  0.00  0.00    +0.000 A 
ATOM      8  C   UNL     1       4.152   4.627  18.081  0.00  0.00    +0.000 A 
ATOM      9  O   UNL     1       3.609   3.407  18.355  0.00  0.00    +0.000 OA
ENDBRANCH   3   8
ENDBRANCH   1   3
BRANCH   1  10
ATOM     10  C   UNL     1       7.087   4.388  16.247  0.00  0.00    +0.000 C 
BRANCH  10  11
ATOM     11  C   UNL     1       7.051   4.621  14.730  0.00  0.00    +0.000 C 
ATOM     12  O   UNL     1       7.651   5.547  14.185  0.00  0.00    +0.000 OA
ATOM     13  N   UNL     1       6.332   3.686  14.014  0.00  0.00    +0.000 N 
ATOM     14  H   UNL     1       5.885   2.919  14.506  0.00  0.00    +0.000 HD
BRANCH  13  15
ATOM     15  C   UNL     1       6.258   3.736  12.564  0.00  0.00    +0.000 C 
BRANCH  15  16
ATOM     16  C   UNL     1       5.463   2.573  11.968  0.00  0.00    +0.000 C 
BRANCH  16  17
ATOM     17  C   UNL     1       4.291   3.117  11.167  0.00  0.00    +0.000 C 
ATOM     18  N   UNL     1       3.319   3.569  10.504  0.00  0.00    +0.000 NA
ENDBRANCH  16  17
ENDBRANCH  15  16
ENDBRANCH  13  15
ENDBRANCH  10  11
ENDBRANCH   1  10
TORSDOF 7
ENDMDL
MODEL 2
REMARK VINA RESULT:      -5.8      1.602      1.804
REMARK  Name = 
REMARK  9 active torsions:
REMARK  status: ('A' for Active; 'I' for Inactive)
REMARK    1  A    between atoms: C_1  and  C_2
REMARK    2  A    between atoms: C_5  and  C_6
REMARK    3  A    between atoms: C_6  and  N_7
REMARK    4  A    between atoms: N_7  and  C_8
REMARK    5  A    between atoms: N_7  and  C_9
REMARK    6  A    between atoms: C_9  and  C_10
REMARK    7  A    between atoms: N_12  and  C_13
REMARK    8  A    between atoms: C_13  and  C_14
REMARK    9  A    between atoms: C_14  and  C_15
REMARK                            x       y       z     vdW  Elec       q    Type
REMARK                         _______ _______ _______ _____ _____    ______ ____
ROOT
ATOM      1  N   UNL     1       4.844   5.695  17.179  0.00  0.00    +0.000 NA
ATOM      2  C   UNL     1       5.545   6.943  16.854  0.00  0.00    +0.000 C 
ENDROOT
BRANCH   1   3
ATOM      3  C   UNL     1       4.131   5.778  18.464  0.00  0.00    +0.000 C 
BRANCH   3   8
ATOM      4  C   UNL     1       1.290   2.784  20.962  0.00  0.00    +0.000 C 
ATOM      5  C   UNL     1       1.720   3.446  19.716  0.00  0.00    +0.000 A 
ATOM      6  C   UNL     1       1.249   3.435  18.421  0.00  0.00    +0.000 A 
ATOM      7  C   UNL     1       2.095   4.293  17.681  0.00  0.00    +0.000 A 
ATOM      8  C   UNL     1       3.019   4.792  18.574  0.00  0.00    +0.000 A 
ATOM      9  O   UNL     1       2.804   4.264  19.812  0.00  0.00    +0.000 OA
ENDBRANCH   3   8
ENDBRANCH   1   3
BRANCH   1  10
ATOM     10  C   UNL     1       5.771   4.540  17.128  0.00  0.00    +0.000 C 
BRANCH  10  11
ATOM     11  C   UNL     1       6.531   4.423  15.800  0.00  0.00    +0.000 C 
ATOM     12  O   UNL     1       7.747   4.591  15.712  0.00  0.00    +0.000 OA
ATOM     13  N   UNL     1       5.755   4.068  14.714  0.00  0.00    +0.000 N 
ATOM     14  H   UNL     1       4.763   3.904  14.844  0.00  0.00    +0.000 HD
BRANCH  13  15
ATOM     15  C   UNL     1       6.342   3.857  13.402  0.00  0.00    +0.000 C 
BRANCH  15  16
ATOM     16  C   UNL     1       5.320   3.400  12.360  0.00  0.00    +0.000 C 
BRANCH  16  17
ATOM     17  C   UNL     1       5.851   2.177  11.630  0.00  0.00    +0.000 C 
ATOM     18  N   UNL     1       6.291   1.162  11.026  0.00  0.00    +0.000 NA
ENDBRANCH  16  17
ENDBRANCH  15  16
ENDBRANCH  13  15
ENDBRANCH  10  11
ENDBRANCH   1  10
TORSDOF 7
ENDMDL
MODEL 3
REMARK VINA RESULT:      -5.8      2.679      6.486
REMARK  Name = 
REMARK  9 active torsions:
REMARK  status: ('A' for Active; 'I' for Inactive)
REMARK    1  A    between atoms: C_1  and  C_2
REMARK    2  A    between atoms: C_5  and  C_6
REMARK    3  A    between atoms: C_6  and  N_7
REMARK    4  A    between atoms: N_7  and  C_8
REMARK    5  A    between atoms: N_7  and  C_9
REMARK    6  A    between atoms: C_9  and  C_10
REMARK    7  A    between atoms: N_12  and  C_13
REMARK    8  A    between atoms: C_13  and  C_14
REMARK    9  A    between atoms: C_14  and  C_15
REMARK                            x       y       z     vdW  Elec       q    Type
REMARK                         _______ _______ _______ _____ _____    ______ ____
ROOT
ATOM      1  N   UNL     1       6.384   6.006  17.839  0.00  0.00    +0.000 NA
ATOM      2  C   UNL     1       6.991   7.286  17.455  0.00  0.00    +0.000 C 
ENDROOT
BRANCH   1   3
ATOM      3  C   UNL     1       7.113   4.856  17.281  0.00  0.00    +0.000 C 
BRANCH   3   8
ATOM      4  C   UNL     1       7.965   5.395  12.564  0.00  0.00    +0.000 C 
ATOM      5  C   UNL     1       7.204   4.848  13.703  0.00  0.00    +0.000 A 
ATOM      6  C   UNL     1       6.138   3.981  13.806  0.00  0.00    +0.000 A 
ATOM      7  C   UNL     1       5.870   3.840  15.187  0.00  0.00    +0.000 A 
ATOM      8  C   UNL     1       6.803   4.614  15.845  0.00  0.00    +0.000 A 
ATOM      9  O   UNL     1       7.606   5.244  14.941  0.00  0.00    +0.000 OA
ENDBRANCH   3   8
ENDBRANCH   1   3
BRANCH   1  10
ATOM     10  C   UNL     1       4.944   5.978  17.488  0.00  0.00    +0.000 C 
BRANCH  10  11
ATOM     11  C   UNL     1       4.048   5.463  18.623  0.00  0.00    +0.000 C 
ATOM     12  O   UNL     1       4.451   5.319  19.777  0.00  0.00    +0.000 OA
ATOM     13  N   UNL     1       2.738   5.216  18.264  0.00  0.00    +0.000 N 
ATOM     14  H   UNL     1       2.444   5.386  17.308  0.00  0.00    +0.000 HD
BRANCH  13  15
ATOM     15  C   UNL     1       1.753   4.784  19.241  0.00  0.00    +0.000 C 
BRANCH  15  16
ATOM     16  C   UNL     1       1.646   3.263  19.347  0.00  0.00    +0.000 C 
BRANCH  16  17
ATOM     17  C   UNL     1       1.651   2.855  20.811  0.00  0.00    +0.000 C 
ATOM     18  N   UNL     1       1.655   2.517  22.026  0.00  0.00    +0.000 NA
ENDBRANCH  16  17
ENDBRANCH  15  16
ENDBRANCH  13  15
ENDBRANCH  10  11
ENDBRANCH   1  10
TORSDOF 7
ENDMDL
MODEL 4
REMARK VINA RESULT:      -5.8      1.835      2.359
REMARK  Name = 
REMARK  9 active torsions:
REMARK  status: ('A' for Active; 'I' for Inactive)
REMARK    1  A    between atoms: C_1  and  C_2
REMARK    2  A    between atoms: C_5  and  C_6
REMARK    3  A    between atoms: C_6  and  N_7
REMARK    4  A    between atoms: N_7  and  C_8
REMARK    5  A    between atoms: N_7  and  C_9
REMARK    6  A    between atoms: C_9  and  C_10
REMARK    7  A    between atoms: N_12  and  C_13
REMARK    8  A    between atoms: C_13  and  C_14
REMARK    9  A    between atoms: C_14  and  C_15
REMARK                            x       y       z     vdW  Elec       q    Type
REMARK                         _______ _______ _______ _____ _____    ______ ____
ROOT
ATOM      1  N   UNL     1       4.733   5.940  18.003  0.00  0.00    +0.000 NA
ATOM      2  C   UNL     1       3.814   7.042  17.689  0.00  0.00    +0.000 C 
ENDROOT
BRANCH   1   3
ATOM      3  C   UNL     1       4.562   5.450  19.380  0.00  0.00    +0.000 C 
BRANCH   3   8
ATOM      4  C   UNL     1       0.943   2.338  18.680  0.00  0.00    +0.000 C 
ATOM      5  C   UNL     1       1.554   3.510  19.336  0.00  0.00    +0.000 A 
ATOM      6  C   UNL     1       1.142   4.361  20.338  0.00  0.00    +0.000 A 
ATOM      7  C   UNL     1       2.191   5.290  20.529  0.00  0.00    +0.000 A 
ATOM      8  C   UNL     1       3.189   4.936  19.645  0.00  0.00    +0.000 A 
ATOM      9  O   UNL     1       2.795   3.861  18.904  0.00  0.00    +0.000 OA
ENDBRANCH   3   8
ENDBRANCH   1   3
BRANCH   1  10
ATOM     10  C   UNL     1       6.136   6.325  17.717  0.00  0.00    +0.000 C 
BRANCH  10  11
ATOM     11  C   UNL     1       6.809   5.441  16.658  0.00  0.00    +0.000 C 
ATOM     12  O   UNL     1       7.621   4.561  16.944  0.00  0.00    +0.000 OA
ATOM     13  N   UNL     1       6.403   5.676  15.360  0.00  0.00    +0.000 N 
ATOM     14  H   UNL     1       5.703   6.388  15.179  0.00  0.00    +0.000 HD
BRANCH  13  15
ATOM     15  C   UNL     1       6.904   4.877  14.254  0.00  0.00    +0.000 C 
BRANCH  15  16
ATOM     16  C   UNL     1       5.872   3.881  13.724  0.00  0.00    +0.000 C 
BRANCH  16  17
ATOM     17  C   UNL     1       6.405   3.222  12.463  0.00  0.00    +0.000 C 
ATOM     18  N   UNL     1       6.848   2.674  11.417  0.00  0.00    +0.000 NA
ENDBRANCH  16  17
ENDBRANCH  15  16
ENDBRANCH  13  15
ENDBRANCH  10  11
ENDBRANCH   1  10
TORSDOF 7
ENDMDL
MODEL 5
REMARK VINA RESULT:      -5.8      2.658      6.001
REMARK  Name = 
REMARK  9 active torsions:
REMARK  status: ('A' for Active; 'I' for Inactive)
REMARK    1  A    between atoms: C_1  and  C_2
REMARK    2  A    between atoms: C_5  and  C_6
REMARK    3  A    between atoms: C_6  and  N_7
REMARK    4  A    between atoms: N_7  and  C_8
REMARK    5  A    between atoms: N_7  and  C_9
REMARK    6  A    between atoms: C_9  and  C_10
REMARK    7  A    between atoms: N_12  and  C_13
REMARK    8  A    between atoms: C_13  and  C_14
REMARK    9  A    between atoms: C_14  and  C_15
REMARK                            x       y       z     vdW  Elec       q    Type
REMARK                         _______ _______ _______ _____ _____    ______ ____
ROOT
ATOM      1  N   UNL     1       6.618   5.897  18.025  0.00  0.00    +0.000 NA
ATOM      2  C   UNL     1       5.866   6.696  17.050  0.00  0.00    +0.000 C 
ENDROOT
BRANCH   1   3
ATOM      3  C   UNL     1       7.273   4.734  17.403  0.00  0.00    +0.000 C 
BRANCH   3   8
ATOM      4  C   UNL     1       8.000   5.478  12.693  0.00  0.00    +0.000 C 
ATOM      5  C   UNL     1       7.259   4.894  13.827  0.00  0.00    +0.000 A 
ATOM      6  C   UNL     1       6.177   4.047  13.922  0.00  0.00    +0.000 A 
ATOM      7  C   UNL     1       5.946   3.846  15.303  0.00  0.00    +0.000 A 
ATOM      8  C   UNL     1       6.915   4.568  15.967  0.00  0.00    +0.000 A 
ATOM      9  O   UNL     1       7.707   5.222  15.070  0.00  0.00    +0.000 OA
ENDBRANCH   3   8
ENDBRANCH   1   3
BRANCH   1  10
ATOM     10  C   UNL     1       5.758   5.509  19.167  0.00  0.00    +0.000 C 
BRANCH  10  11
ATOM     11  C   UNL     1       4.933   4.240  18.909  0.00  0.00    +0.000 C 
ATOM     12  O   UNL     1       5.181   3.163  19.451  0.00  0.00    +0.000 OA
ATOM     13  N   UNL     1       3.860   4.406  18.057  0.00  0.00    +0.000 N 
ATOM     14  H   UNL     1       3.674   5.323  17.664  0.00  0.00    +0.000 HD
BRANCH  13  15
ATOM     15  C   UNL     1       2.948   3.313  17.765  0.00  0.00    +0.000 C 
BRANCH  15  16
ATOM     16  C   UNL     1       1.488   3.664  18.051  0.00  0.00    +0.000 C 
BRANCH  16  17
ATOM     17  C   UNL     1       1.317   3.954  19.533  0.00  0.00    +0.000 C 
ATOM     18  N   UNL     1       1.174   4.195  20.762  0.00  0.00    +0.000 NA
ENDBRANCH  16  17
ENDBRANCH  15  16
ENDBRANCH  13  15
ENDBRANCH  10  11
ENDBRANCH   1  10
TORSDOF 7
ENDMDL
MODEL 6
REMARK VINA RESULT:      -5.7      3.268      5.940
REMARK  Name = 
REMARK  9 active torsions:
REMARK  status: ('A' for Active; 'I' for Inactive)
REMARK    1  A    between atoms: C_1  and  C_2
REMARK    2  A    between atoms: C_5  and  C_6
REMARK    3  A    between atoms: C_6  and  N_7
REMARK    4  A    between atoms: N_7  and  C_8
REMARK    5  A    between atoms: N_7  and  C_9
REMARK    6  A    between atoms: C_9  and  C_10
REMARK    7  A    between atoms: N_12  and  C_13
REMARK    8  A    between atoms: C_13  and  C_14
REMARK    9  A    between atoms: C_14  and  C_15
REMARK                            x       y       z     vdW  Elec       q    Type
REMARK                         _______ _______ _______ _____ _____    ______ ____
ROOT
ATOM      1  N   UNL     1       4.640   4.819  16.929  0.00  0.00    +0.000 NA
ATOM      2  C   UNL     1       5.254   4.466  15.643  0.00  0.00    +0.000 C 
ENDROOT
BRANCH   1   3
ATOM      3  C   UNL     1       4.933   6.207  17.322  0.00  0.00    +0.000 C 
BRANCH   3   8
ATOM      4  C   UNL     1       1.600   7.001  20.718  0.00  0.00    +0.000 C 
ATOM      5  C   UNL     1       2.242   7.287  19.421  0.00  0.00    +0.000 A 
ATOM      6  C   UNL     1       2.031   8.235  18.443  0.00  0.00    +0.000 A 
ATOM      7  C   UNL     1       2.991   7.989  17.434  0.00  0.00    +0.000 A 
ATOM      8  C   UNL     1       3.744   6.918  17.867  0.00  0.00    +0.000 A 
ATOM      9  O   UNL     1       3.278   6.477  19.070  0.00  0.00    +0.000 OA
ENDBRANCH   3   8
ENDBRANCH   1   3
BRANCH   1  10
ATOM     10  C   UNL     1       5.021   3.848  17.981  0.00  0.00    +0.000 C 
BRANCH  10  11
ATOM     11  C   UNL     1       3.853   2.979  18.465  0.00  0.00    +0.000 C 
ATOM     12  O   UNL     1       4.015   1.950  19.122  0.00  0.00    +0.000 OA
ATOM     13  N   UNL     1       2.598   3.459  18.147  0.00  0.00    +0.000 N 
ATOM     14  H   UNL     1       2.515   4.331  17.636  0.00  0.00    +0.000 HD
BRANCH  13  15
ATOM     15  C   UNL     1       1.392   2.780  18.591  0.00  0.00    +0.000 C 
BRANCH  15  16
ATOM     16  C   UNL     1       0.719   3.476  19.775  0.00  0.00    +0.000 C 
BRANCH  16  17
ATOM     17  C   UNL     1       1.296   2.938  21.074  0.00  0.00    +0.000 C 
ATOM     18  N   UNL     1       1.775   2.492  22.152  0.00  0.00    +0.000 NA
ENDBRANCH  16  17
ENDBRANCH  15  16
ENDBRANCH  13  15
ENDBRANCH  10  11
ENDBRANCH   1  10
TORSDOF 7
ENDMDL
MODEL 7
REMARK VINA RESULT:      -5.6      2.414      6.330
REMARK  Name = 
REMARK  9 active torsions:
REMARK  status: ('A' for Active; 'I' for Inactive)
REMARK    1  A    between atoms: C_1  and  C_2
REMARK    2  A    between atoms: C_5  and  C_6
REMARK    3  A    between atoms: C_6  and  N_7
REMARK    4  A    between atoms: N_7  and  C_8
REMARK    5  A    between atoms: N_7  and  C_9
REMARK    6  A    between atoms: C_9  and  C_10
REMARK    7  A    between atoms: N_12  and  C_13
REMARK    8  A    between atoms: C_13  and  C_14
REMARK    9  A    between atoms: C_14  and  C_15
REMARK                            x       y       z     vdW  Elec       q    Type
REMARK                         _______ _______ _______ _____ _____    ______ ____
ROOT
ATOM      1  N   UNL     1       5.575   4.553  15.431  0.00  0.00    +0.000 NA
ATOM      2  C   UNL     1       5.199   4.024  14.114  0.00  0.00    +0.000 C 
ENDROOT
BRANCH   1   3
ATOM      3  C   UNL     1       7.027   4.755  15.555  0.00  0.00    +0.000 C 
BRANCH   3   8
ATOM      4  C   UNL     1       7.961   8.869  17.895  0.00  0.00    +0.000 C 
ATOM      5  C   UNL     1       7.809   7.403  17.834  0.00  0.00    +0.000 A 
ATOM      6  C   UNL     1       7.877   6.399  18.775  0.00  0.00    +0.000 A 
ATOM      7  C   UNL     1       7.629   5.189  18.088  0.00  0.00    +0.000 A 
ATOM      8  C   UNL     1       7.403   5.530  16.771  0.00  0.00    +0.000 A 
ATOM      9  O   UNL     1       7.530   6.878  16.610  0.00  0.00    +0.000 OA
ENDBRANCH   3   8
ENDBRANCH   1   3
BRANCH   1  10
ATOM     10  C   UNL     1       5.035   3.701  16.516  0.00  0.00    +0.000 C 
BRANCH  10  11
ATOM     11  C   UNL     1       3.679   4.180  17.054  0.00  0.00    +0.000 C 
ATOM     12  O   UNL     1       2.660   3.491  16.999  0.00  0.00    +0.000 OA
ATOM     13  N   UNL     1       3.695   5.426  17.648  0.00  0.00    +0.000 N 
ATOM     14  H   UNL     1       4.568   5.939  17.702  0.00  0.00    +0.000 HD
BRANCH  13  15
ATOM     15  C   UNL     1       2.503   5.988  18.260  0.00  0.00    +0.000 C 
BRANCH  15  16
ATOM     16  C   UNL     1       2.538   5.936  19.788  0.00  0.00    +0.000 C 
BRANCH  16  17
ATOM     17  C   UNL     1       1.764   4.721  20.272  0.00  0.00    +0.000 C 
ATOM     18  N   UNL     1       1.122   3.713  20.674  0.00  0.00    +0.000 NA
ENDBRANCH  16  17
ENDBRANCH  15  16
ENDBRANCH  13  15
ENDBRANCH  10  11
ENDBRANCH   1  10
TORSDOF 7
ENDMDL
MODEL 8
REMARK VINA RESULT:      -5.6      1.710      2.088
REMARK  Name = 
REMARK  9 active torsions:
REMARK  status: ('A' for Active; 'I' for Inactive)
REMARK    1  A    between atoms: C_1  and  C_2
REMARK    2  A    between atoms: C_5  and  C_6
REMARK    3  A    between atoms: C_6  and  N_7
REMARK    4  A    between atoms: N_7  and  C_8
REMARK    5  A    between atoms: N_7  and  C_9
REMARK    6  A    between atoms: C_9  and  C_10
REMARK    7  A    between atoms: N_12  and  C_13
REMARK    8  A    between atoms: C_13  and  C_14
REMARK    9  A    between atoms: C_14  and  C_15
REMARK                            x       y       z     vdW  Elec       q    Type
REMARK                         _______ _______ _______ _____ _____    ______ ____
ROOT
ATOM      1  N   UNL     1       5.000   5.021  17.876  0.00  0.00    +0.000 NA
ATOM      2  C   UNL     1       5.966   5.166  18.972  0.00  0.00    +0.000 C 
ENDROOT
BRANCH   1   3
ATOM      3  C   UNL     1       4.719   3.609  17.568  0.00  0.00    +0.000 C 
BRANCH   3   8
ATOM      4  C   UNL     1       1.294   3.511  20.963  0.00  0.00    +0.000 C 
ATOM      5  C   UNL     1       1.854   3.116  19.657  0.00  0.00    +0.000 A 
ATOM      6  C   UNL     1       1.385   2.350  18.613  0.00  0.00    +0.000 A 
ATOM      7  C   UNL     1       2.397   2.356  17.626  0.00  0.00    +0.000 A 
ATOM      8  C   UNL     1       3.415   3.145  18.119  0.00  0.00    +0.000 A 
ATOM      9  O   UNL     1       3.094   3.595  19.365  0.00  0.00    +0.000 OA
ENDBRANCH   3   8
ENDBRANCH   1   3
BRANCH   1  10
ATOM     10  C   UNL     1       5.439   5.778  16.681  0.00  0.00    +0.000 C 
BRANCH  10  11
ATOM     11  C   UNL     1       6.263   4.939  15.693  0.00  0.00    +0.000 C 
ATOM     12  O   UNL     1       7.401   4.545  15.944  0.00  0.00    +0.000 OA
ATOM     13  N   UNL     1       5.614   4.619  14.517  0.00  0.00    +0.000 N 
ATOM     14  H   UNL     1       4.662   4.937  14.373  0.00  0.00    +0.000 HD
BRANCH  13  15
ATOM     15  C   UNL     1       6.241   3.778  13.512  0.00  0.00    +0.000 C 
BRANCH  15  16
ATOM     16  C   UNL     1       5.291   3.404  12.373  0.00  0.00    +0.000 C 
BRANCH  16  17
ATOM     17  C   UNL     1       5.833   2.187  11.641  0.00  0.00    +0.000 C 
ATOM     18  N   UNL     1       6.282   1.177  11.034  0.00  0.00    +0.000 NA
ENDBRANCH  16  17
ENDBRANCH  15  16
ENDBRANCH  13  15
ENDBRANCH  10  11
ENDBRANCH   1  10
TORSDOF 7
ENDMDL
MODEL 9
REMARK VINA RESULT:      -5.6      3.343      5.078
REMARK  Name = 
REMARK  9 active torsions:
REMARK  status: ('A' for Active; 'I' for Inactive)
REMARK    1  A    between atoms: C_1  and  C_2
REMARK    2  A    between atoms: C_5  and  C_6
REMARK    3  A    between atoms: C_6  and  N_7
REMARK    4  A    between atoms: N_7  and  C_8
REMARK    5  A    between atoms: N_7  and  C_9
REMARK    6  A    between atoms: C_9  and  C_10
REMARK    7  A    between atoms: N_12  and  C_13
REMARK    8  A    between atoms: C_13  and  C_14
REMARK    9  A    between atoms: C_14  and  C_15
REMARK                            x       y       z     vdW  Elec       q    Type
REMARK                         _______ _______ _______ _____ _____    ______ ____
ROOT
ATOM      1  N   UNL     1       4.231   2.895  18.036  0.00  0.00    +0.000 NA
ATOM      2  C   UNL     1       3.230   1.822  17.990  0.00  0.00    +0.000 C 
ENDROOT
BRANCH   1   3
ATOM      3  C   UNL     1       4.468   3.374  19.407  0.00  0.00    +0.000 C 
BRANCH   3   8
ATOM      4  C   UNL     1       2.114   7.551  19.936  0.00  0.00    +0.000 C 
ATOM      5  C   UNL     1       2.274   6.102  20.155  0.00  0.00    +0.000 A 
ATOM      6  C   UNL     1       1.501   5.142  20.772  0.00  0.00    +0.000 A 
ATOM      7  C   UNL     1       2.200   3.920  20.641  0.00  0.00    +0.000 A 
ATOM      8  C   UNL     1       3.349   4.205  19.933  0.00  0.00    +0.000 A 
ATOM      9  O   UNL     1       3.405   5.538  19.651  0.00  0.00    +0.000 OA
ENDBRANCH   3   8
ENDBRANCH   1   3
BRANCH   1  10
ATOM     10  C   UNL     1       3.867   3.997  17.114  0.00  0.00    +0.000 C 
BRANCH  10  11
ATOM     11  C   UNL     1       5.079   4.685  16.473  0.00  0.00    +0.000 C 
ATOM     12  O   UNL     1       5.512   4.372  15.363  0.00  0.00    +0.000 OA
ATOM     13  N   UNL     1       5.625   5.714  17.213  0.00  0.00    +0.000 N 
ATOM     14  H   UNL     1       5.210   5.959  18.105  0.00  0.00    +0.000 HD
BRANCH  13  15
ATOM     15  C   UNL     1       6.737   6.502  16.710  0.00  0.00    +0.000 C 
BRANCH  15  16
ATOM     16  C   UNL     1       7.680   6.976  17.816  0.00  0.00    +0.000 C 
BRANCH  16  17
ATOM     17  C   UNL     1       7.579   6.035  19.006  0.00  0.00    +0.000 C 
ATOM     18  N   UNL     1       7.495   5.253  19.992  0.00  0.00    +0.000 NA
ENDBRANCH  16  17
ENDBRANCH  15  16
ENDBRANCH  13  15
ENDBRANCH  10  11
ENDBRANCH   1  10
TORSDOF 7
ENDMDL
