MODEL 1
REMARK VINA RESULT:      -7.1      0.000      0.000
REMARK  Name = 
REMARK  6 active torsions:
REMARK  status: ('A' for Active; 'I' for Inactive)
REMARK    1  A    between atoms: C_1  and  O_2
REMARK    2  A    between atoms: O_2  and  C_3
REMARK    3  A    between atoms: C_5  and  C_6
REMARK    4  A    between atoms: C_6  and  O_7
REMARK    5  A    between atoms: C_6  and  C_8
REMARK    6  A    between atoms: C_10  and  C_11
REMARK                            x       y       z     vdW  Elec       q    Type
REMARK                         _______ _______ _______ _____ _____    ______ ____
ROOT
ATOM      1  C   UNL     1       4.476   3.556  18.506  0.00  0.00    +0.000 C 
ENDROOT
BRANCH   1   4
ATOM      2  C   UNL     1       6.851   5.634  16.345  0.00  0.00    +0.000 A 
ATOM      3  C   UNL     1       6.133   5.118  17.428  0.00  0.00    +0.000 A 
ATOM      4  C   UNL     1       5.214   4.054  17.274  0.00  0.00    +0.000 A 
ATOM      5  C   UNL     1       5.032   3.522  15.989  0.00  0.00    +0.000 A 
ATOM      6  C   UNL     1       5.746   4.030  14.903  0.00  0.00    +0.000 A 
ATOM      7  C   UNL     1       6.647   5.074  15.082  0.00  0.00    +0.000 A 
ATOM      8  F   UNL     1       7.308   5.511  14.002  0.00  0.00    +0.000 F 
BRANCH   2  10
ATOM      9  C   UNL     1       7.760   7.038  18.034  0.00  0.00    +0.000 C 
ATOM     10  O   UNL     1       7.695   6.663  16.663  0.00  0.00    +0.000 OA
ENDBRANCH   2  10
ENDBRANCH   1   4
BRANCH   1  11
ATOM     11  C   UNL     1       3.446   4.485  19.106  0.00  0.00    +0.000 A 
ATOM     12  N   UNL     1       3.173   5.695  18.652  0.00  0.00    +0.000 NA
ATOM     13  C   UNL     1       2.319   6.349  19.526  0.00  0.00    +0.000 A 
ATOM     14  C   UNL     1       1.890   5.595  20.595  0.00  0.00    +0.000 A 
ATOM     15  S   UNL     1       2.591   4.032  20.531  0.00  0.00    +0.000 S 
BRANCH  13  16
ATOM     16  C   UNL     1       1.970   7.791  19.307  0.00  0.00    +0.000 A 
ATOM     17  C   UNL     1       1.342   8.566  20.260  0.00  0.00    +0.000 A 
ATOM     18  C   UNL     1       1.011   9.863  19.770  0.00  0.00    +0.000 A 
ATOM     19  C   UNL     1       1.414  10.036  18.464  0.00  0.00    +0.000 A 
ATOM     20  S   UNL     1       2.230   8.659  17.859  0.00  0.00    +0.000 S 
ENDBRANCH  13  16
ENDBRANCH   1  11
BRANCH   1  21
ATOM     21  O   UNL     1       5.448   3.320  19.532  0.00  0.00    +0.000 OA
ATOM     22  H   UNL     1       5.382   4.089  20.129  0.00  0.00    +0.000 HD
ENDBRANCH   1  21
TORSDOF 5
ENDMDL
MODEL 2
REMARK VINA RESULT:      -7.0      2.274      3.134
REMARK  Name = 
REMARK  6 active torsions:
REMARK  status: ('A' for Active; 'I' for Inactive)
REMARK    1  A    between atoms: C_1  and  O_2
REMARK    2  A    between atoms: O_2  and  C_3
REMARK    3  A    between atoms: C_5  and  C_6
REMARK    4  A    between atoms: C_6  and  O_7
REMARK    5  A    between atoms: C_6  and  C_8
REMARK    6  A    between atoms: C_10  and  C_11
REMARK                            x       y       z     vdW  Elec       q    Type
REMARK                         _______ _______ _______ _____ _____    ______ ____
ROOT
ATOM      1  C   UNL     1       2.523   5.494  19.533  0.00  0.00    +0.000 C 
ENDROOT
BRANCH   1   4
ATOM      2  C   UNL     1       6.138   4.898  18.436  0.00  0.00    +0.000 A 
ATOM      3  C   UNL     1       5.005   5.235  19.181  0.00  0.00    +0.000 A 
ATOM      4  C   UNL     1       3.699   5.104  18.653  0.00  0.00    +0.000 A 
ATOM      5  C   UNL     1       3.565   4.626  17.341  0.00  0.00    +0.000 A 
ATOM      6  C   UNL     1       4.691   4.285  16.592  0.00  0.00    +0.000 A 
ATOM      7  C   UNL     1       5.964   4.419  17.135  0.00  0.00    +0.000 A 
ATOM      8  F   UNL     1       7.004   4.067  16.368  0.00  0.00    +0.000 F 
BRANCH   2  10
ATOM      9  C   UNL     1       8.000   6.317  18.854  0.00  0.00    +0.000 C 
ATOM     10  O   UNL     1       7.325   5.087  19.091  0.00  0.00    +0.000 OA
ENDBRANCH   2  10
ENDBRANCH   1   4
BRANCH   1  11
ATOM     11  C   UNL     1       2.163   6.962  19.579  0.00  0.00    +0.000 A 
ATOM     12  N   UNL     1       1.639   7.572  20.627  0.00  0.00    +0.000 NA
ATOM     13  C   UNL     1       1.262   8.861  20.287  0.00  0.00    +0.000 A 
ATOM     14  C   UNL     1       1.580   9.241  19.001  0.00  0.00    +0.000 A 
ATOM     15  S   UNL     1       2.346   7.946  18.178  0.00  0.00    +0.000 S 
BRANCH  13  16
ATOM     16  C   UNL     1       0.513   9.715  21.265  0.00  0.00    +0.000 A 
ATOM     17  C   UNL     1      -0.071   9.212  22.410  0.00  0.00    +0.000 A 
ATOM     18  C   UNL     1      -0.825  10.198  23.111  0.00  0.00    +0.000 A 
ATOM     19  C   UNL     1      -0.776  11.423  22.483  0.00  0.00    +0.000 A 
ATOM     20  S   UNL     1       0.216  11.388  21.090  0.00  0.00    +0.000 S 
ENDBRANCH  13  16
ENDBRANCH   1  11
BRANCH   1  21
ATOM     21  O   UNL     1       2.841   5.118  20.879  0.00  0.00    +0.000 OA
ATOM     22  H   UNL     1       3.812   5.020  20.894  0.00  0.00    +0.000 HD
ENDBRANCH   1  21
TORSDOF 5
ENDMDL
MODEL 3
REMARK VINA RESULT:      -6.9      2.707      4.532
REMARK  Name = 
REMARK  6 active torsions:
REMARK  status: ('A' for Active; 'I' for Inactive)
REMARK    1  A    between atoms: C_1  and  O_2
REMARK    2  A    between atoms: O_2  and  C_3
REMARK    3  A    between atoms: C_5  and  C_6
REMARK    4  A    between atoms: C_6  and  O_7
REMARK    5  A    between atoms: C_6  and  C_8
REMARK    6  A    between atoms: C_10  and  C_11
REMARK                            x       y       z     vdW  Elec       q    Type
REMARK                         _______ _______ _______ _____ _____    ______ ____
ROOT
ATOM      1  C   UNL     1       6.796   4.104  16.260  0.00  0.00    +0.000 C 
ENDROOT
BRANCH   1   4
ATOM      2  C   UNL     1       6.294   3.681  12.492  0.00  0.00    +0.000 A 
ATOM      3  C   UNL     1       6.205   3.530  13.879  0.00  0.00    +0.000 A 
ATOM      4  C   UNL     1       6.954   4.338  14.767  0.00  0.00    +0.000 A 
ATOM      5  C   UNL     1       7.805   5.306  14.216  0.00  0.00    +0.000 A 
ATOM      6  C   UNL     1       7.898   5.465  12.832  0.00  0.00    +0.000 A 
ATOM      7  C   UNL     1       7.147   4.662  11.981  0.00  0.00    +0.000 A 
ATOM      8  F   UNL     1       7.274   4.869  10.664  0.00  0.00    +0.000 F 
BRANCH   2  10
ATOM      9  C   UNL     1       4.208   3.280  11.424  0.00  0.00    +0.000 C 
ATOM     10  O   UNL     1       5.508   2.820  11.776  0.00  0.00    +0.000 OA
ENDBRANCH   2  10
ENDBRANCH   1   4
BRANCH   1  11
ATOM     11  C   UNL     1       5.611   4.760  16.932  0.00  0.00    +0.000 A 
ATOM     12  N   UNL     1       4.777   4.142  17.750  0.00  0.00    +0.000 NA
ATOM     13  C   UNL     1       3.705   4.968  18.048  0.00  0.00    +0.000 A 
ATOM     14  C   UNL     1       3.780   6.235  17.514  0.00  0.00    +0.000 A 
ATOM     15  S   UNL     1       5.214   6.399  16.589  0.00  0.00    +0.000 S 
BRANCH  13  16
ATOM     16  C   UNL     1       2.547   4.448  18.846  0.00  0.00    +0.000 A 
ATOM     17  C   UNL     1       2.191   4.962  20.076  0.00  0.00    +0.000 A 
ATOM     18  C   UNL     1       1.136   4.222  20.686  0.00  0.00    +0.000 A 
ATOM     19  C   UNL     1       0.716   3.179  19.891  0.00  0.00    +0.000 A 
ATOM     20  S   UNL     1       1.555   3.131  18.401  0.00  0.00    +0.000 S 
ENDBRANCH  13  16
ENDBRANCH   1  11
BRANCH   1  21
ATOM     21  O   UNL     1       7.963   4.626  16.909  0.00  0.00    +0.000 OA
ATOM     22  H   UNL     1       8.274   3.908  17.492  0.00  0.00    +0.000 HD
ENDBRANCH   1  21
TORSDOF 5
ENDMDL
MODEL 4
REMARK VINA RESULT:      -6.9      1.371      2.247
REMARK  Name = 
REMARK  6 active torsions:
REMARK  status: ('A' for Active; 'I' for Inactive)
REMARK    1  A    between atoms: C_1  and  O_2
REMARK    2  A    between atoms: O_2  and  C_3
REMARK    3  A    between atoms: C_5  and  C_6
REMARK    4  A    between atoms: C_6  and  O_7
REMARK    5  A    between atoms: C_6  and  C_8
REMARK    6  A    between atoms: C_10  and  C_11
REMARK                            x       y       z     vdW  Elec       q    Type
REMARK                         _______ _______ _______ _____ _____    ______ ____
ROOT
ATOM      1  C   UNL     1       4.386   3.480  18.450  0.00  0.00    +0.000 C 
ENDROOT
BRANCH   1   4
ATOM      2  C   UNL     1       5.713   4.328  14.965  0.00  0.00    +0.000 A 
ATOM      3  C   UNL     1       4.917   3.870  16.018  0.00  0.00    +0.000 A 
ATOM      4  C   UNL     1       5.315   4.007  17.369  0.00  0.00    +0.000 A 
ATOM      5  C   UNL     1       6.549   4.618  17.632  0.00  0.00    +0.000 A 
ATOM      6  C   UNL     1       7.349   5.080  16.586  0.00  0.00    +0.000 A 
ATOM      7  C   UNL     1       6.933   4.938  15.267  0.00  0.00    +0.000 A 
ATOM      8  F   UNL     1       7.742   5.409  14.309  0.00  0.00    +0.000 F 
BRANCH   2  10
ATOM      9  C   UNL     1       6.029   3.478  12.767  0.00  0.00    +0.000 C 
ATOM     10  O   UNL     1       5.186   4.116  13.720  0.00  0.00    +0.000 OA
ENDBRANCH   2  10
ENDBRANCH   1   4
BRANCH   1  11
ATOM     11  C   UNL     1       3.396   4.460  19.037  0.00  0.00    +0.000 A 
ATOM     12  N   UNL     1       3.108   5.638  18.513  0.00  0.00    +0.000 NA
ATOM     13  C   UNL     1       2.307   6.361  19.382  0.00  0.00    +0.000 A 
ATOM     14  C   UNL     1       1.930   5.688  20.524  0.00  0.00    +0.000 A 
ATOM     15  S   UNL     1       2.615   4.117  20.533  0.00  0.00    +0.000 S 
BRANCH  13  16
ATOM     16  C   UNL     1       1.956   7.787  19.081  0.00  0.00    +0.000 A 
ATOM     17  C   UNL     1       2.270   8.402  17.886  0.00  0.00    +0.000 A 
ATOM     18  C   UNL     1       1.940   9.789  17.889  0.00  0.00    +0.000 A 
ATOM     19  C   UNL     1       1.372  10.178  19.082  0.00  0.00    +0.000 A 
ATOM     20  S   UNL     1       1.194   8.866  20.164  0.00  0.00    +0.000 S 
ENDBRANCH  13  16
ENDBRANCH   1  11
BRANCH   1  21
ATOM     21  O   UNL     1       5.199   3.031  19.542  0.00  0.00    +0.000 OA
ATOM     22  H   UNL     1       5.624   2.212  19.224  0.00  0.00    +0.000 HD
ENDBRANCH   1  21
TORSDOF 5
ENDMDL
MODEL 5
REMARK VINA RESULT:      -6.8      3.863      5.497
REMARK  Name = 
REMARK  6 active torsions:
REMARK  status: ('A' for Active; 'I' for Inactive)
REMARK    1  A    between atoms: C_1  and  O_2
REMARK    2  A    between atoms: O_2  and  C_3
REMARK    3  A    between atoms: C_5  and  C_6
REMARK    4  A    between atoms: C_6  and  O_7
REMARK    5  A    between atoms: C_6  and  C_8
REMARK    6  A    between atoms: C_10  and  C_11
REMARK                            x       y       z     vdW  Elec       q    Type
REMARK                         _______ _______ _______ _____ _____    ______ ____
ROOT
ATOM      1  C   UNL     1       3.050   6.711  19.174  0.00  0.00    +0.000 C 
ENDROOT
BRANCH   1   4
ATOM      2  C   UNL     1       1.242   3.446  20.011  0.00  0.00    +0.000 A 
ATOM      3  C   UNL     1       1.920   4.664  20.114  0.00  0.00    +0.000 A 
ATOM      4  C   UNL     1       2.317   5.395  18.969  0.00  0.00    +0.000 A 
ATOM      5  C   UNL     1       2.017   4.859  17.709  0.00  0.00    +0.000 A 
ATOM      6  C   UNL     1       1.339   3.645  17.598  0.00  0.00    +0.000 A 
ATOM      7  C   UNL     1       0.954   2.948  18.738  0.00  0.00    +0.000 A 
ATOM      8  F   UNL     1       0.299   1.793  18.565  0.00  0.00    +0.000 F 
BRANCH   2  10
ATOM      9  C   UNL     1       2.020   2.572  22.080  0.00  0.00    +0.000 C 
ATOM     10  O   UNL     1       0.932   2.866  21.211  0.00  0.00    +0.000 OA
ENDBRANCH   2  10
ENDBRANCH   1   4
BRANCH   1  11
ATOM     11  C   UNL     1       2.202   7.960  19.248  0.00  0.00    +0.000 A 
ATOM     12  N   UNL     1       1.645   8.423  20.352  0.00  0.00    +0.000 NA
ATOM     13  C   UNL     1       0.792   9.472  20.050  0.00  0.00    +0.000 A 
ATOM     14  C   UNL     1       0.774   9.846  18.725  0.00  0.00    +0.000 A 
ATOM     15  S   UNL     1       1.830   8.844  17.818  0.00  0.00    +0.000 S 
BRANCH  13  16
ATOM     16  C   UNL     1      -0.071  10.079  21.117  0.00  0.00    +0.000 A 
ATOM     17  C   UNL     1      -0.736  11.276  20.955  0.00  0.00    +0.000 A 
ATOM     18  C   UNL     1      -1.389  11.698  22.150  0.00  0.00    +0.000 A 
ATOM     19  C   UNL     1      -1.210  10.797  23.176  0.00  0.00    +0.000 A 
ATOM     20  S   UNL     1      -0.306   9.433  22.680  0.00  0.00    +0.000 S 
ENDBRANCH  13  16
ENDBRANCH   1  11
BRANCH   1  21
ATOM     21  O   UNL     1       3.936   6.894  18.062  0.00  0.00    +0.000 OA
ATOM     22  H   UNL     1       3.570   6.339  17.349  0.00  0.00    +0.000 HD
ENDBRANCH   1  21
TORSDOF 5
ENDMDL
MODEL 6
REMARK VINA RESULT:      -6.6      3.546      6.578
REMARK  Name = 
REMARK  6 active torsions:
REMARK  status: ('A' for Active; 'I' for Inactive)
REMARK    1  A    between atoms: C_1  and  O_2
REMARK    2  A    between atoms: O_2  and  C_3
REMARK    3  A    between atoms: C_5  and  C_6
REMARK    4  A    between atoms: C_6  and  O_7
REMARK    5  A    between atoms: C_6  and  C_8
REMARK    6  A    between atoms: C_10  and  C_11
REMARK                            x       y       z     vdW  Elec       q    Type
REMARK                         _______ _______ _______ _____ _____    ______ ____
ROOT
ATOM      1  C   UNL     1       5.036   3.825  19.051  0.00  0.00    +0.000 C 
ENDROOT
BRANCH   1   4
ATOM      2  C   UNL     1       2.461   6.585  19.672  0.00  0.00    +0.000 A 
ATOM      3  C   UNL     1       3.571   5.869  19.213  0.00  0.00    +0.000 A 
ATOM      4  C   UNL     1       3.804   4.528  19.598  0.00  0.00    +0.000 A 
ATOM      5  C   UNL     1       2.885   3.924  20.468  0.00  0.00    +0.000 A 
ATOM      6  C   UNL     1       1.774   4.631  20.929  0.00  0.00    +0.000 A 
ATOM      7  C   UNL     1       1.564   5.947  20.533  0.00  0.00    +0.000 A 
ATOM      8  F   UNL     1       0.475   6.568  21.003  0.00  0.00    +0.000 F 
BRANCH   2  10
ATOM      9  C   UNL     1       2.593   8.063  17.815  0.00  0.00    +0.000 C 
ATOM     10  O   UNL     1       2.384   7.870  19.210  0.00  0.00    +0.000 OA
ENDBRANCH   2  10
ENDBRANCH   1   4
BRANCH   1  11
ATOM     11  C   UNL     1       5.726   4.476  17.874  0.00  0.00    +0.000 A 
ATOM     12  N   UNL     1       5.523   4.147  16.611  0.00  0.00    +0.000 NA
ATOM     13  C   UNL     1       6.435   4.800  15.797  0.00  0.00    +0.000 A 
ATOM     14  C   UNL     1       7.270   5.681  16.449  0.00  0.00    +0.000 A 
ATOM     15  S   UNL     1       6.931   5.679  18.129  0.00  0.00    +0.000 S 
BRANCH  13  16
ATOM     16  C   UNL     1       6.505   4.487  14.333  0.00  0.00    +0.000 A 
ATOM     17  C   UNL     1       5.596   3.668  13.695  0.00  0.00    +0.000 A 
ATOM     18  C   UNL     1       5.945   3.430  12.334  0.00  0.00    +0.000 A 
ATOM     19  C   UNL     1       7.100   4.089  11.978  0.00  0.00    +0.000 A 
ATOM     20  S   UNL     1       7.724   5.027  13.265  0.00  0.00    +0.000 S 
ENDBRANCH  13  16
ENDBRANCH   1  11
BRANCH   1  21
ATOM     21  O   UNL     1       4.636   2.522  18.609  0.00  0.00    +0.000 OA
ATOM     22  H   UNL     1       4.071   2.172  19.324  0.00  0.00    +0.000 HD
ENDBRANCH   1  21
TORSDOF 5
ENDMDL
MODEL 7
REMARK VINA RESULT:      -6.6      1.829      2.711
REMARK  Name = 
REMARK  6 active torsions:
REMARK  status: ('A' for Active; 'I' for Inactive)
REMARK    1  A    between atoms: C_1  and  O_2
REMARK    2  A    between atoms: O_2  and  C_3
REMARK    3  A    between atoms: C_5  and  C_6
REMARK    4  A    between atoms: C_6  and  O_7
REMARK    5  A    between atoms: C_6  and  C_8
REMARK    6  A    between atoms: C_10  and  C_11
REMARK                            x       y       z     vdW  Elec       q    Type
REMARK                         _______ _______ _______ _____ _____    ______ ____
ROOT
ATOM      1  C   UNL     1       3.989   3.639  16.823  0.00  0.00    +0.000 C 
ENDROOT
BRANCH   1   4
ATOM      2  C   UNL     1       6.287   4.036  13.792  0.00  0.00    +0.000 A 
ATOM      3  C   UNL     1       5.259   3.628  14.647  0.00  0.00    +0.000 A 
ATOM      4  C   UNL     1       5.136   4.138  15.961  0.00  0.00    +0.000 A 
ATOM      5  C   UNL     1       6.087   5.073  16.395  0.00  0.00    +0.000 A 
ATOM      6  C   UNL     1       7.115   5.487  15.546  0.00  0.00    +0.000 A 
ATOM      7  C   UNL     1       7.211   4.974  14.257  0.00  0.00    +0.000 A 
ATOM      8  F   UNL     1       8.214   5.416  13.489  0.00  0.00    +0.000 F 
BRANCH   2  10
ATOM      9  C   UNL     1       4.992   3.309  11.934  0.00  0.00    +0.000 C 
ATOM     10  O   UNL     1       6.265   3.445  12.557  0.00  0.00    +0.000 OA
ENDBRANCH   2  10
ENDBRANCH   1   4
BRANCH   1  11
ATOM     11  C   UNL     1       3.509   4.562  17.921  0.00  0.00    +0.000 A 
ATOM     12  N   UNL     1       2.827   5.675  17.720  0.00  0.00    +0.000 NA
ATOM     13  C   UNL     1       2.700   6.376  18.909  0.00  0.00    +0.000 A 
ATOM     14  C   UNL     1       3.220   5.743  20.016  0.00  0.00    +0.000 A 
ATOM     15  S   UNL     1       3.915   4.242  19.564  0.00  0.00    +0.000 S 
BRANCH  13  16
ATOM     16  C   UNL     1       2.088   7.744  18.920  0.00  0.00    +0.000 A 
ATOM     17  C   UNL     1       2.087   8.577  17.819  0.00  0.00    +0.000 A 
ATOM     18  C   UNL     1       1.553   9.865  18.116  0.00  0.00    +0.000 A 
ATOM     19  C   UNL     1       1.152   9.963  19.430  0.00  0.00    +0.000 A 
ATOM     20  S   UNL     1       1.372   8.493  20.278  0.00  0.00    +0.000 S 
ENDBRANCH  13  16
ENDBRANCH   1  11
BRANCH   1  21
ATOM     21  O   UNL     1       4.421   2.437  17.472  0.00  0.00    +0.000 OA
ATOM     22  H   UNL     1       4.389   2.635  18.427  0.00  0.00    +0.000 HD
ENDBRANCH   1  21
TORSDOF 5
ENDMDL
MODEL 8
REMARK VINA RESULT:      -6.6      2.329      3.498
REMARK  Name = 
REMARK  6 active torsions:
REMARK  status: ('A' for Active; 'I' for Inactive)
REMARK    1  A    between atoms: C_1  and  O_2
REMARK    2  A    between atoms: O_2  and  C_3
REMARK    3  A    between atoms: C_5  and  C_6
REMARK    4  A    between atoms: C_6  and  O_7
REMARK    5  A    between atoms: C_6  and  C_8
REMARK    6  A    between atoms: C_10  and  C_11
REMARK                            x       y       z     vdW  Elec       q    Type
REMARK                         _______ _______ _______ _____ _____    ______ ____
ROOT
ATOM      1  C   UNL     1       2.728   5.724  19.253  0.00  0.00    +0.000 C 
ENDROOT
BRANCH   1   4
ATOM      2  C   UNL     1       5.416   5.112  16.602  0.00  0.00    +0.000 A 
ATOM      3  C   UNL     1       4.193   5.333  17.240  0.00  0.00    +0.000 A 
ATOM      4  C   UNL     1       4.100   5.487  18.643  0.00  0.00    +0.000 A 
ATOM      5  C   UNL     1       5.282   5.406  19.393  0.00  0.00    +0.000 A 
ATOM      6  C   UNL     1       6.508   5.188  18.764  0.00  0.00    +0.000 A 
ATOM      7  C   UNL     1       6.573   5.045  17.382  0.00  0.00    +0.000 A 
ATOM      8  F   UNL     1       7.780   4.846  16.837  0.00  0.00    +0.000 F 
BRANCH   2  10
ATOM      9  C   UNL     1       6.009   3.873  14.662  0.00  0.00    +0.000 C 
ATOM     10  O   UNL     1       5.332   4.982  15.242  0.00  0.00    +0.000 OA
ENDBRANCH   2  10
ENDBRANCH   1   4
BRANCH   1  11
ATOM     11  C   UNL     1       2.270   7.160  19.366  0.00  0.00    +0.000 A 
ATOM     12  N   UNL     1       1.763   7.701  20.459  0.00  0.00    +0.000 NA
ATOM     13  C   UNL     1       1.280   8.970  20.181  0.00  0.00    +0.000 A 
ATOM     14  C   UNL     1       1.499   9.408  18.893  0.00  0.00    +0.000 A 
ATOM     15  S   UNL     1       2.307   8.195  17.990  0.00  0.00    +0.000 S 
BRANCH  13  16
ATOM     16  C   UNL     1       0.528   9.740  21.225  0.00  0.00    +0.000 A 
ATOM     17  C   UNL     1       0.019   9.158  22.368  0.00  0.00    +0.000 A 
ATOM     18  C   UNL     1      -0.756  10.071  23.140  0.00  0.00    +0.000 A 
ATOM     19  C   UNL     1      -0.798  11.322  22.565  0.00  0.00    +0.000 A 
ATOM     20  S   UNL     1       0.135  11.400  21.134  0.00  0.00    +0.000 S 
ENDBRANCH  13  16
ENDBRANCH   1  11
BRANCH   1  21
ATOM     21  O   UNL     1       2.749   5.205  20.589  0.00  0.00    +0.000 OA
ATOM     22  H   UNL     1       3.200   5.887  21.121  0.00  0.00    +0.000 HD
ENDBRANCH   1  21
TORSDOF 5
ENDMDL
MODEL 9
REMARK VINA RESULT:      -6.6      1.923      2.702
REMARK  Name = 
REMARK  6 active torsions:
REMARK  status: ('A' for Active; 'I' for Inactive)
REMARK    1  A    between atoms: C_1  and  O_2
REMARK    2  A    between atoms: O_2  and  C_3
REMARK    3  A    between atoms: C_5  and  C_6
REMARK    4  A    between atoms: C_6  and  O_7
REMARK    5  A    between atoms: C_6  and  C_8
REMARK    6  A    between atoms: C_10  and  C_11
REMARK                            x       y       z     vdW  Elec       q    Type
REMARK                         _______ _______ _______ _____ _____    ______ ____
ROOT
ATOM      1  C   UNL     1       2.969   5.531  18.717  0.00  0.00    +0.000 C 
ENDROOT
BRANCH   1   4
ATOM      2  C   UNL     1       6.257   6.203  16.881  0.00  0.00    +0.000 A 
ATOM      3  C   UNL     1       5.171   6.293  17.757  0.00  0.00    +0.000 A 
ATOM      4  C   UNL     1       4.111   5.357  17.728  0.00  0.00    +0.000 A 
ATOM      5  C   UNL     1       4.170   4.324  16.782  0.00  0.00    +0.000 A 
ATOM      6  C   UNL     1       5.252   4.226  15.906  0.00  0.00    +0.000 A 
ATOM      7  C   UNL     1       6.285   5.155  15.958  0.00  0.00    +0.000 A 
ATOM      8  F   UNL     1       7.298   5.002  15.096  0.00  0.00    +0.000 F 
BRANCH   2  10
ATOM      9  C   UNL     1       7.971   7.149  18.229  0.00  0.00    +0.000 C 
ATOM     10  O   UNL     1       7.195   7.187  17.037  0.00  0.00    +0.000 OA
ENDBRANCH   2  10
ENDBRANCH   1   4
BRANCH   1  11
ATOM     11  C   UNL     1       2.471   6.941  18.943  0.00  0.00    +0.000 A 
ATOM     12  N   UNL     1       2.001   7.394  20.091  0.00  0.00    +0.000 NA
ATOM     13  C   UNL     1       1.464   8.660  19.917  0.00  0.00    +0.000 A 
ATOM     14  C   UNL     1       1.606   9.185  18.652  0.00  0.00    +0.000 A 
ATOM     15  S   UNL     1       2.408   8.060  17.636  0.00  0.00    +0.000 S 
BRANCH  13  16
ATOM     16  C   UNL     1       0.738   9.336  21.042  0.00  0.00    +0.000 A 
ATOM     17  C   UNL     1       0.826   8.915  22.354  0.00  0.00    +0.000 A 
ATOM     18  C   UNL     1      -0.048   9.643  23.214  0.00  0.00    +0.000 A 
ATOM     19  C   UNL     1      -0.759  10.603  22.529  0.00  0.00    +0.000 A 
ATOM     20  S   UNL     1      -0.333  10.655  20.873  0.00  0.00    +0.000 S 
ENDBRANCH  13  16
ENDBRANCH   1  11
BRANCH   1  21
ATOM     21  O   UNL     1       3.420   5.057  19.992  0.00  0.00    +0.000 OA
ATOM     22  H   UNL     1       3.979   4.282  19.794  0.00  0.00    +0.000 HD
ENDBRANCH   1  21
TORSDOF 5
ENDMDL
