MODEL 1
REMARK VINA RESULT:      -7.3      0.000      0.000
REMARK  Name = 
REMARK  10 active torsions:
REMARK  status: ('A' for Active; 'I' for Inactive)
REMARK    1  A    between atoms: C_1  and  C_2
REMARK    2  A    between atoms: C_2  and  C_3
REMARK    3  A    between atoms: C_2  and  C_4
REMARK    4  A    between atoms: C_4  and  C_5
REMARK    5  A    between atoms: C_5  and  N_6
REMARK    6  A    between atoms: C_5  and  C_17
REMARK    7  A    between atoms: N_6  and  S_7
REMARK    8  A    between atoms: S_7  and  C_10
REMARK    9  A    between atoms: C_13  and  N_14
REMARK   10  A    between atoms: N_27  and  C_28
REMARK                            x       y       z     vdW  Elec       q    Type
REMARK                         _______ _______ _______ _____ _____    ______ ____
ROOT
ATOM      1  C   UNL     1      -0.815  12.631  18.630  0.00  0.00    +0.000 C 
ENDROOT
BRANCH   1   2
ATOM      2  C   UNL     1      -0.186  11.366  19.251  0.00  0.00    +0.000 A 
ATOM      3  N   UNL     1       0.452  10.569  18.447  0.00  0.00    +0.000 NA
ATOM      4  C   UNL     1       1.099   9.445  18.951  0.00  0.00    +0.000 A 
ATOM      5  C   UNL     1       1.763   8.597  18.061  0.00  0.00    +0.000 A 
ATOM      6  C   UNL     1       2.391   7.436  18.521  0.00  0.00    +0.000 A 
ATOM      7  C   UNL     1       2.368   7.125  19.879  0.00  0.00    +0.000 A 
ATOM      8  C   UNL     1       1.734   7.982  20.778  0.00  0.00    +0.000 A 
ATOM      9  C   UNL     1       1.103   9.137  20.302  0.00  0.00    +0.000 A 
ATOM     10  C   UNL     1       0.422  10.070  21.216  0.00  0.00    +0.000 A 
ATOM     11  O   UNL     1       0.496   9.850  22.424  0.00  0.00    +0.000 OA
ATOM     12  N   UNL     1      -0.255  11.145  20.620  0.00  0.00    +0.000 N 
BRANCH  12  13
ATOM     13  C   UNL     1      -0.946  12.019  21.509  0.00  0.00    +0.000 A 
ATOM     14  C   UNL     1      -0.264  13.087  22.105  0.00  0.00    +0.000 A 
ATOM     15  C   UNL     1      -0.883  13.857  23.090  0.00  0.00    +0.000 A 
ATOM     16  C   UNL     1      -2.186  13.562  23.487  0.00  0.00    +0.000 A 
ATOM     17  C   UNL     1      -2.882  12.519  22.878  0.00  0.00    +0.000 A 
ATOM     18  C   UNL     1      -2.264  11.753  21.887  0.00  0.00    +0.000 A 
ENDBRANCH  12  13
ENDBRANCH   1   2
BRANCH   1  19
ATOM     19  N   UNL     1      -1.606  12.378  17.407  0.00  0.00    +0.000 NA
ATOM     20  H   UNL     1      -1.110  12.496  16.525  0.00  0.00    +0.000 HD
BRANCH  19  21
ATOM     21  S   UNL     1      -2.765  11.173  17.258  0.00  0.00    +0.000 S 
ATOM     22  O   UNL     1      -2.923  10.985  15.830  0.00  0.00    +0.000 OA
ATOM     23  O   UNL     1      -2.407  10.058  18.104  0.00  0.00    +0.000 OA
BRANCH  21  24
ATOM     24  C   UNL     1      -4.282  11.888  17.841  0.00  0.00    +0.000 A 
ATOM     25  C   UNL     1      -5.354  12.106  16.967  0.00  0.00    +0.000 A 
ATOM     26  C   UNL     1      -6.540  12.663  17.466  0.00  0.00    +0.000 A 
ATOM     27  C   UNL     1      -6.695  12.927  18.835  0.00  0.00    +0.000 A 
ATOM     28  C   UNL     1      -5.606  12.720  19.683  0.00  0.00    +0.000 A 
ATOM     29  C   UNL     1      -4.415  12.175  19.196  0.00  0.00    +0.000 A 
BRANCH  27  30
ATOM     30  N   UNL     1      -7.825  13.597  19.313  0.00  0.00    +0.000 N 
ATOM     31  H   UNL     1      -7.903  14.559  18.992  0.00  0.00    +0.000 HD
ATOM     32  H   UNL     1      -8.689  13.083  19.193  0.00  0.00    +0.000 HD
ENDBRANCH  27  30
ENDBRANCH  21  24
ENDBRANCH  19  21
ENDBRANCH   1  19
BRANCH   1  33
ATOM     33  C   UNL     1       0.285  13.695  18.407  0.00  0.00    +0.000 C 
BRANCH  33  35
ATOM     34  C   UNL     1       1.640  15.377  19.795  0.00  0.00    +0.000 C 
ATOM     35  C   UNL     1       0.259  14.935  19.316  0.00  0.00    +0.000 C 
ATOM     36  C   UNL     1      -0.411  16.092  18.561  0.00  0.00    +0.000 C 
ENDBRANCH  33  35
ENDBRANCH   1  33
TORSDOF 8
ENDMDL
MODEL 2
REMARK VINA RESULT:      -7.2      5.368     10.367
REMARK  Name = 
REMARK  10 active torsions:
REMARK  status: ('A' for Active; 'I' for Inactive)
REMARK    1  A    between atoms: C_1  and  C_2
REMARK    2  A    between atoms: C_2  and  C_3
REMARK    3  A    between atoms: C_2  and  C_4
REMARK    4  A    between atoms: C_4  and  C_5
REMARK    5  A    between atoms: C_5  and  N_6
REMARK    6  A    between atoms: C_5  and  C_17
REMARK    7  A    between atoms: N_6  and  S_7
REMARK    8  A    between atoms: S_7  and  C_10
REMARK    9  A    between atoms: C_13  and  N_14
REMARK   10  A    between atoms: N_27  and  C_28
REMARK                            x       y       z     vdW  Elec       q    Type
REMARK                         _______ _______ _______ _____ _____    ______ ____
ROOT
ATOM      1  C   UNL     1       3.653   5.778  18.017  0.00  0.00    +0.000 C 
ENDROOT
BRANCH   1   2
ATOM      2  C   UNL     1       2.785   6.851  18.706  0.00  0.00    +0.000 A 
ATOM      3  N   UNL     1       2.830   8.053  18.212  0.00  0.00    +0.000 NA
ATOM      4  C   UNL     1       2.022   9.054  18.743  0.00  0.00    +0.000 A 
ATOM      5  C   UNL     1       2.103  10.339  18.203  0.00  0.00    +0.000 A 
ATOM      6  C   UNL     1       1.340  11.383  18.734  0.00  0.00    +0.000 A 
ATOM      7  C   UNL     1       0.480  11.140  19.803  0.00  0.00    +0.000 A 
ATOM      8  C   UNL     1       0.370   9.852  20.329  0.00  0.00    +0.000 A 
ATOM      9  C   UNL     1       1.147   8.820  19.792  0.00  0.00    +0.000 A 
ATOM     10  C   UNL     1       1.063   7.446  20.316  0.00  0.00    +0.000 A 
ATOM     11  O   UNL     1       0.225   7.211  21.186  0.00  0.00    +0.000 OA
ATOM     12  N   UNL     1       1.952   6.511  19.764  0.00  0.00    +0.000 N 
BRANCH  12  13
ATOM     13  C   UNL     1       1.892   5.194  20.306  0.00  0.00    +0.000 A 
ATOM     14  C   UNL     1       0.856   4.332  19.928  0.00  0.00    +0.000 A 
ATOM     15  C   UNL     1       0.697   3.100  20.561  0.00  0.00    +0.000 A 
ATOM     16  C   UNL     1       1.571   2.724  21.579  0.00  0.00    +0.000 A 
ATOM     17  C   UNL     1       2.623   3.563  21.942  0.00  0.00    +0.000 A 
ATOM     18  C   UNL     1       2.786   4.794  21.302  0.00  0.00    +0.000 A 
ENDBRANCH  12  13
ENDBRANCH   1   2
BRANCH   1  19
ATOM     19  N   UNL     1       4.503   6.294  16.924  0.00  0.00    +0.000 NA
ATOM     20  H   UNL     1       4.287   7.236  16.600  0.00  0.00    +0.000 HD
BRANCH  19  21
ATOM     21  S   UNL     1       6.150   6.000  16.781  0.00  0.00    +0.000 S 
ATOM     22  O   UNL     1       6.747   7.310  16.617  0.00  0.00    +0.000 OA
ATOM     23  O   UNL     1       6.575   5.135  17.857  0.00  0.00    +0.000 OA
BRANCH  21  24
ATOM     24  C   UNL     1       6.356   5.156  15.233  0.00  0.00    +0.000 A 
ATOM     25  C   UNL     1       5.397   4.240  14.783  0.00  0.00    +0.000 A 
ATOM     26  C   UNL     1       5.589   3.599  13.550  0.00  0.00    +0.000 A 
ATOM     27  C   UNL     1       6.681   3.922  12.731  0.00  0.00    +0.000 A 
ATOM     28  C   UNL     1       7.633   4.823  13.209  0.00  0.00    +0.000 A 
ATOM     29  C   UNL     1       7.459   5.459  14.441  0.00  0.00    +0.000 A 
BRANCH  27  30
ATOM     30  N   UNL     1       6.940   3.197  11.565  0.00  0.00    +0.000 N 
ATOM     31  H   UNL     1       6.339   3.442  10.782  0.00  0.00    +0.000 HD
ATOM     32  H   UNL     1       7.918   3.174  11.303  0.00  0.00    +0.000 HD
ENDBRANCH  27  30
ENDBRANCH  21  24
ENDBRANCH  19  21
ENDBRANCH   1  19
BRANCH   1  33
ATOM     33  C   UNL     1       2.752   4.607  17.557  0.00  0.00    +0.000 C 
BRANCH  33  35
ATOM     34  C   UNL     1       4.322   2.922  18.692  0.00  0.00    +0.000 C 
ATOM     35  C   UNL     1       3.385   3.206  17.520  0.00  0.00    +0.000 C 
ATOM     36  C   UNL     1       2.266   2.155  17.498  0.00  0.00    +0.000 C 
ENDBRANCH  33  35
ENDBRANCH   1  33
TORSDOF 8
ENDMDL
MODEL 3
REMARK VINA RESULT:      -7.2      2.531      5.836
REMARK  Name = 
REMARK  10 active torsions:
REMARK  status: ('A' for Active; 'I' for Inactive)
REMARK    1  A    between atoms: C_1  and  C_2
REMARK    2  A    between atoms: C_2  and  C_3
REMARK    3  A    between atoms: C_2  and  C_4
REMARK    4  A    between atoms: C_4  and  C_5
REMARK    5  A    between atoms: C_5  and  N_6
REMARK    6  A    between atoms: C_5  and  C_17
REMARK    7  A    between atoms: N_6  and  S_7
REMARK    8  A    between atoms: S_7  and  C_10
REMARK    9  A    between atoms: C_13  and  N_14
REMARK   10  A    between atoms: N_27  and  C_28
REMARK                            x       y       z     vdW  Elec       q    Type
REMARK                         _______ _______ _______ _____ _____    ______ ____
ROOT
ATOM      1  C   UNL     1      -0.092  11.505  21.282  0.00  0.00    +0.000 C 
ENDROOT
BRANCH   1   2
ATOM      2  C   UNL     1      -1.209  11.584  20.221  0.00  0.00    +0.000 A 
ATOM      3  N   UNL     1      -1.027  10.914  19.122  0.00  0.00    +0.000 NA
ATOM      4  C   UNL     1      -2.023  10.888  18.150  0.00  0.00    +0.000 A 
ATOM      5  C   UNL     1      -1.793  10.174  16.972  0.00  0.00    +0.000 A 
ATOM      6  C   UNL     1      -2.750  10.155  15.954  0.00  0.00    +0.000 A 
ATOM      7  C   UNL     1      -3.951  10.845  16.116  0.00  0.00    +0.000 A 
ATOM      8  C   UNL     1      -4.200  11.536  17.302  0.00  0.00    +0.000 A 
ATOM      9  C   UNL     1      -3.229  11.551  18.310  0.00  0.00    +0.000 A 
ATOM     10  C   UNL     1      -3.451  12.268  19.577  0.00  0.00    +0.000 A 
ATOM     11  O   UNL     1      -4.553  12.783  19.762  0.00  0.00    +0.000 OA
ATOM     12  N   UNL     1      -2.375  12.293  20.477  0.00  0.00    +0.000 N 
BRANCH  12  13
ATOM     13  C   UNL     1      -2.584  13.023  21.683  0.00  0.00    +0.000 A 
ATOM     14  C   UNL     1      -3.090  12.370  22.814  0.00  0.00    +0.000 A 
ATOM     15  C   UNL     1      -3.442  13.097  23.950  0.00  0.00    +0.000 A 
ATOM     16  C   UNL     1      -3.295  14.483  23.961  0.00  0.00    +0.000 A 
ATOM     17  C   UNL     1      -2.766  15.138  22.851  0.00  0.00    +0.000 A 
ATOM     18  C   UNL     1      -2.407  14.408  21.716  0.00  0.00    +0.000 A 
ENDBRANCH  12  13
ENDBRANCH   1   2
BRANCH   1  19
ATOM     19  N   UNL     1       0.647  12.769  21.482  0.00  0.00    +0.000 NA
ATOM     20  H   UNL     1       0.898  12.989  22.446  0.00  0.00    +0.000 HD
BRANCH  19  21
ATOM     21  S   UNL     1       1.817  13.362  20.435  0.00  0.00    +0.000 S 
ATOM     22  O   UNL     1       2.965  13.633  21.276  0.00  0.00    +0.000 OA
ATOM     23  O   UNL     1       1.938  12.473  19.302  0.00  0.00    +0.000 OA
BRANCH  21  24
ATOM     24  C   UNL     1       1.215  14.937  19.882  0.00  0.00    +0.000 A 
ATOM     25  C   UNL     1       1.872  16.121  20.240  0.00  0.00    +0.000 A 
ATOM     26  C   UNL     1       1.373  17.347  19.775  0.00  0.00    +0.000 A 
ATOM     27  C   UNL     1       0.280  17.397  18.898  0.00  0.00    +0.000 A 
ATOM     28  C   UNL     1      -0.370  16.206  18.571  0.00  0.00    +0.000 A 
ATOM     29  C   UNL     1       0.111  14.979  19.037  0.00  0.00    +0.000 A 
BRANCH  27  30
ATOM     30  N   UNL     1      -0.294  18.619  18.536  0.00  0.00    +0.000 N 
ATOM     31  H   UNL     1      -0.881  19.030  19.258  0.00  0.00    +0.000 HD
ATOM     32  H   UNL     1       0.364  19.285  18.153  0.00  0.00    +0.000 HD
ENDBRANCH  27  30
ENDBRANCH  21  24
ENDBRANCH  19  21
ENDBRANCH   1  19
BRANCH   1  33
ATOM     33  C   UNL     1       0.848  10.322  20.950  0.00  0.00    +0.000 C 
BRANCH  33  35
ATOM     34  C   UNL     1      -0.417   8.979  22.736  0.00  0.00    +0.000 C 
ATOM     35  C   UNL     1       0.877   9.147  21.943  0.00  0.00    +0.000 C 
ATOM     36  C   UNL     1       1.173   7.852  21.172  0.00  0.00    +0.000 C 
ENDBRANCH  33  35
ENDBRANCH   1  33
TORSDOF 8
ENDMDL
MODEL 4
REMARK VINA RESULT:      -7.2      2.782      6.856
REMARK  Name = 
REMARK  10 active torsions:
REMARK  status: ('A' for Active; 'I' for Inactive)
REMARK    1  A    between atoms: C_1  and  C_2
REMARK    2  A    between atoms: C_2  and  C_3
REMARK    3  A    between atoms: C_2  and  C_4
REMARK    4  A    between atoms: C_4  and  C_5
REMARK    5  A    between atoms: C_5  and  N_6
REMARK    6  A    between atoms: C_5  and  C_17
REMARK    7  A    between atoms: N_6  and  S_7
REMARK    8  A    between atoms: S_7  and  C_10
REMARK    9  A    between atoms: C_13  and  N_14
REMARK   10  A    between atoms: N_27  and  C_28
REMARK                            x       y       z     vdW  Elec       q    Type
REMARK                         _______ _______ _______ _____ _____    ______ ____
ROOT
ATOM      1  C   UNL     1       0.036  11.135  19.696  0.00  0.00    +0.000 C 
ENDROOT
BRANCH   1   2
ATOM      2  C   UNL     1       0.353  12.645  19.714  0.00  0.00    +0.000 A 
ATOM      3  N   UNL     1       1.302  13.057  18.926  0.00  0.00    +0.000 NA
ATOM      4  C   UNL     1       1.595  14.415  18.843  0.00  0.00    +0.000 A 
ATOM      5  C   UNL     1       2.630  14.828  18.001  0.00  0.00    +0.000 A 
ATOM      6  C   UNL     1       2.984  16.178  17.918  0.00  0.00    +0.000 A 
ATOM      7  C   UNL     1       2.292  17.124  18.673  0.00  0.00    +0.000 A 
ATOM      8  C   UNL     1       1.238  16.724  19.493  0.00  0.00    +0.000 A 
ATOM      9  C   UNL     1       0.900  15.368  19.571  0.00  0.00    +0.000 A 
ATOM     10  C   UNL     1      -0.206  14.902  20.424  0.00  0.00    +0.000 A 
ATOM     11  O   UNL     1      -0.884  15.749  21.003  0.00  0.00    +0.000 OA
ATOM     12  N   UNL     1      -0.397  13.513  20.495  0.00  0.00    +0.000 N 
BRANCH  12  13
ATOM     13  C   UNL     1      -1.443  13.068  21.355  0.00  0.00    +0.000 A 
ATOM     14  C   UNL     1      -2.779  13.236  20.971  0.00  0.00    +0.000 A 
ATOM     15  C   UNL     1      -3.811  12.945  21.863  0.00  0.00    +0.000 A 
ATOM     16  C   UNL     1      -3.513  12.491  23.146  0.00  0.00    +0.000 A 
ATOM     17  C   UNL     1      -2.188  12.294  23.527  0.00  0.00    +0.000 A 
ATOM     18  C   UNL     1      -1.154  12.577  22.631  0.00  0.00    +0.000 A 
ENDBRANCH  12  13
ENDBRANCH   1   2
BRANCH   1  19
ATOM     19  N   UNL     1       1.127  10.279  20.208  0.00  0.00    +0.000 NA
ATOM     20  H   UNL     1       1.986  10.762  20.469  0.00  0.00    +0.000 HD
BRANCH  19  21
ATOM     21  S   UNL     1       0.901   8.938  21.192  0.00  0.00    +0.000 S 
ATOM     22  O   UNL     1       1.731   9.186  22.353  0.00  0.00    +0.000 OA
ATOM     23  O   UNL     1      -0.515   8.694  21.348  0.00  0.00    +0.000 OA
BRANCH  21  24
ATOM     24  C   UNL     1       1.639   7.575  20.327  0.00  0.00    +0.000 A 
ATOM     25  C   UNL     1       1.587   6.279  20.855  0.00  0.00    +0.000 A 
ATOM     26  C   UNL     1       2.173   5.225  20.138  0.00  0.00    +0.000 A 
ATOM     27  C   UNL     1       2.734   5.437  18.870  0.00  0.00    +0.000 A 
ATOM     28  C   UNL     1       2.791   6.740  18.374  0.00  0.00    +0.000 A 
ATOM     29  C   UNL     1       2.221   7.801  19.084  0.00  0.00    +0.000 A 
BRANCH  27  30
ATOM     30  N   UNL     1       3.427   4.417  18.214  0.00  0.00    +0.000 N 
ATOM     31  H   UNL     1       4.414   4.613  18.070  0.00  0.00    +0.000 HD
ATOM     32  H   UNL     1       3.273   3.496  18.605  0.00  0.00    +0.000 HD
ENDBRANCH  27  30
ENDBRANCH  21  24
ENDBRANCH  19  21
ENDBRANCH   1  19
BRANCH   1  33
ATOM     33  C   UNL     1      -0.416  10.722  18.276  0.00  0.00    +0.000 C 
BRANCH  33  35
ATOM     34  C   UNL     1      -2.855  11.523  18.231  0.00  0.00    +0.000 C 
ATOM     35  C   UNL     1      -1.895  10.343  18.091  0.00  0.00    +0.000 C 
ATOM     36  C   UNL     1      -2.075   9.702  16.707  0.00  0.00    +0.000 C 
ENDBRANCH  33  35
ENDBRANCH   1  33
TORSDOF 8
ENDMDL
MODEL 5
REMARK VINA RESULT:      -7.2      2.758      6.005
REMARK  Name = 
REMARK  10 active torsions:
REMARK  status: ('A' for Active; 'I' for Inactive)
REMARK    1  A    between atoms: C_1  and  C_2
REMARK    2  A    between atoms: C_2  and  C_3
REMARK    3  A    between atoms: C_2  and  C_4
REMARK    4  A    between atoms: C_4  and  C_5
REMARK    5  A    between atoms: C_5  and  N_6
REMARK    6  A    between atoms: C_5  and  C_17
REMARK    7  A    between atoms: N_6  and  S_7
REMARK    8  A    between atoms: S_7  and  C_10
REMARK    9  A    between atoms: C_13  and  N_14
REMARK   10  A    between atoms: N_27  and  C_28
REMARK                            x       y       z     vdW  Elec       q    Type
REMARK                         _______ _______ _______ _____ _____    ______ ____
ROOT
ATOM      1  C   UNL     1      -1.167  12.353  21.289  0.00  0.00    +0.000 C 
ENDROOT
BRANCH   1   2
ATOM      2  C   UNL     1      -2.104  12.133  20.083  0.00  0.00    +0.000 A 
ATOM      3  N   UNL     1      -1.632  11.440  19.089  0.00  0.00    +0.000 NA
ATOM      4  C   UNL     1      -2.445  11.148  17.998  0.00  0.00    +0.000 A 
ATOM      5  C   UNL     1      -1.908  10.416  16.937  0.00  0.00    +0.000 A 
ATOM      6  C   UNL     1      -2.677  10.136  15.804  0.00  0.00    +0.000 A 
ATOM      7  C   UNL     1      -3.997  10.579  15.735  0.00  0.00    +0.000 A 
ATOM      8  C   UNL     1      -4.551  11.284  16.803  0.00  0.00    +0.000 A 
ATOM      9  C   UNL     1      -3.766  11.563  17.927  0.00  0.00    +0.000 A 
ATOM     10  C   UNL     1      -4.310  12.305  19.077  0.00  0.00    +0.000 A 
ATOM     11  O   UNL     1      -5.504  12.600  19.059  0.00  0.00    +0.000 OA
ATOM     12  N   UNL     1      -3.408  12.608  20.108  0.00  0.00    +0.000 N 
BRANCH  12  13
ATOM     13  C   UNL     1      -3.933  13.361  21.198  0.00  0.00    +0.000 A 
ATOM     14  C   UNL     1      -4.571  12.703  22.256  0.00  0.00    +0.000 A 
ATOM     15  C   UNL     1      -5.221  13.433  23.251  0.00  0.00    +0.000 A 
ATOM     16  C   UNL     1      -5.242  14.825  23.192  0.00  0.00    +0.000 A 
ATOM     17  C   UNL     1      -4.585  15.489  22.158  0.00  0.00    +0.000 A 
ATOM     18  C   UNL     1      -3.927  14.758  21.166  0.00  0.00    +0.000 A 
ENDBRANCH  12  13
ENDBRANCH   1   2
BRANCH   1  19
ATOM     19  N   UNL     1       0.221  12.707  20.924  0.00  0.00    +0.000 NA
ATOM     20  H   UNL     1       0.506  12.468  19.975  0.00  0.00    +0.000 HD
BRANCH  19  21
ATOM     21  S   UNL     1       1.009  14.102  21.426  0.00  0.00    +0.000 S 
ATOM     22  O   UNL     1       0.282  14.535  22.603  0.00  0.00    +0.000 OA
ATOM     23  O   UNL     1       2.429  13.847  21.501  0.00  0.00    +0.000 OA
BRANCH  21  24
ATOM     24  C   UNL     1       0.695  15.313  20.167  0.00  0.00    +0.000 A 
ATOM     25  C   UNL     1       1.734  15.788  19.356  0.00  0.00    +0.000 A 
ATOM     26  C   UNL     1       1.446  16.737  18.363  0.00  0.00    +0.000 A 
ATOM     27  C   UNL     1       0.129  17.153  18.121  0.00  0.00    +0.000 A 
ATOM     28  C   UNL     1      -0.886  16.680  18.955  0.00  0.00    +0.000 A 
ATOM     29  C   UNL     1      -0.610  15.743  19.955  0.00  0.00    +0.000 A 
BRANCH  27  30
ATOM     30  N   UNL     1      -0.142  18.187  17.222  0.00  0.00    +0.000 N 
ATOM     31  H   UNL     1      -0.272  17.878  16.262  0.00  0.00    +0.000 HD
ATOM     32  H   UNL     1      -0.877  18.814  17.525  0.00  0.00    +0.000 HD
ENDBRANCH  27  30
ENDBRANCH  21  24
ENDBRANCH  19  21
ENDBRANCH   1  19
BRANCH   1  33
ATOM     33  C   UNL     1      -1.232  11.120  22.221  0.00  0.00    +0.000 C 
BRANCH  33  35
ATOM     34  C   UNL     1       0.211   9.475  23.564  0.00  0.00    +0.000 C 
ATOM     35  C   UNL     1      -0.015  10.179  22.228  0.00  0.00    +0.000 C 
ATOM     36  C   UNL     1      -0.192   9.128  21.123  0.00  0.00    +0.000 C 
ENDBRANCH  33  35
ENDBRANCH   1  33
TORSDOF 8
ENDMDL
MODEL 6
REMARK VINA RESULT:      -7.2      2.492      5.906
REMARK  Name = 
REMARK  10 active torsions:
REMARK  status: ('A' for Active; 'I' for Inactive)
REMARK    1  A    between atoms: C_1  and  C_2
REMARK    2  A    between atoms: C_2  and  C_3
REMARK    3  A    between atoms: C_2  and  C_4
REMARK    4  A    between atoms: C_4  and  C_5
REMARK    5  A    between atoms: C_5  and  N_6
REMARK    6  A    between atoms: C_5  and  C_17
REMARK    7  A    between atoms: N_6  and  S_7
REMARK    8  A    between atoms: S_7  and  C_10
REMARK    9  A    between atoms: C_13  and  N_14
REMARK   10  A    between atoms: N_27  and  C_28
REMARK                            x       y       z     vdW  Elec       q    Type
REMARK                         _______ _______ _______ _____ _____    ______ ____
ROOT
ATOM      1  C   UNL     1      -0.987  13.174  20.539  0.00  0.00    +0.000 C 
ENDROOT
BRANCH   1   2
ATOM      2  C   UNL     1      -2.189  12.454  19.892  0.00  0.00    +0.000 A 
ATOM      3  N   UNL     1      -3.332  13.074  19.918  0.00  0.00    +0.000 NA
ATOM      4  C   UNL     1      -4.442  12.512  19.295  0.00  0.00    +0.000 A 
ATOM      5  C   UNL     1      -5.660  13.192  19.352  0.00  0.00    +0.000 A 
ATOM      6  C   UNL     1      -6.809  12.644  18.775  0.00  0.00    +0.000 A 
ATOM      7  C   UNL     1      -6.740  11.412  18.126  0.00  0.00    +0.000 A 
ATOM      8  C   UNL     1      -5.520  10.740  18.038  0.00  0.00    +0.000 A 
ATOM      9  C   UNL     1      -4.381  11.299  18.627  0.00  0.00    +0.000 A 
ATOM     10  C   UNL     1      -3.073  10.624  18.558  0.00  0.00    +0.000 A 
ATOM     11  O   UNL     1      -2.992   9.593  17.892  0.00  0.00    +0.000 OA
ATOM     12  N   UNL     1      -2.020  11.228  19.261  0.00  0.00    +0.000 N 
BRANCH  12  13
ATOM     13  C   UNL     1      -0.769  10.547  19.223  0.00  0.00    +0.000 A 
ATOM     14  C   UNL     1      -0.072  10.437  18.014  0.00  0.00    +0.000 A 
ATOM     15  C   UNL     1       1.073   9.647  17.929  0.00  0.00    +0.000 A 
ATOM     16  C   UNL     1       1.527   8.957  19.052  0.00  0.00    +0.000 A 
ATOM     17  C   UNL     1       0.855   9.082  20.267  0.00  0.00    +0.000 A 
ATOM     18  C   UNL     1      -0.288   9.881  20.353  0.00  0.00    +0.000 A 
ENDBRANCH  12  13
ENDBRANCH   1   2
BRANCH   1  19
ATOM     19  N   UNL     1      -1.344  14.058  21.668  0.00  0.00    +0.000 NA
ATOM     20  H   UNL     1      -2.034  14.782  21.465  0.00  0.00    +0.000 HD
BRANCH  19  21
ATOM     21  S   UNL     1      -1.496  13.552  23.261  0.00  0.00    +0.000 S 
ATOM     22  O   UNL     1      -1.048  12.174  23.256  0.00  0.00    +0.000 OA
ATOM     23  O   UNL     1      -0.866  14.519  24.131  0.00  0.00    +0.000 OA
BRANCH  21  24
ATOM     24  C   UNL     1      -3.239  13.513  23.591  0.00  0.00    +0.000 A 
ATOM     25  C   UNL     1      -3.815  12.436  24.276  0.00  0.00    +0.000 A 
ATOM     26  C   UNL     1      -5.195  12.445  24.528  0.00  0.00    +0.000 A 
ATOM     27  C   UNL     1      -5.986  13.549  24.177  0.00  0.00    +0.000 A 
ATOM     28  C   UNL     1      -5.394  14.602  23.478  0.00  0.00    +0.000 A 
ATOM     29  C   UNL     1      -4.022  14.599  23.211  0.00  0.00    +0.000 A 
BRANCH  27  30
ATOM     30  N   UNL     1      -7.377  13.506  24.313  0.00  0.00    +0.000 N 
ATOM     31  H   UNL     1      -7.881  13.977  23.566  0.00  0.00    +0.000 HD
ATOM     32  H   UNL     1      -7.744  12.582  24.499  0.00  0.00    +0.000 HD
ENDBRANCH  27  30
ENDBRANCH  21  24
ENDBRANCH  19  21
ENDBRANCH   1  19
BRANCH   1  33
ATOM     33  C   UNL     1      -0.184  13.915  19.444  0.00  0.00    +0.000 C 
BRANCH  33  35
ATOM     34  C   UNL     1       1.866  12.892  20.604  0.00  0.00    +0.000 C 
ATOM     35  C   UNL     1       1.350  13.856  19.537  0.00  0.00    +0.000 C 
ATOM     36  C   UNL     1       1.916  13.451  18.169  0.00  0.00    +0.000 C 
ENDBRANCH  33  35
ENDBRANCH   1  33
TORSDOF 8
ENDMDL
MODEL 7
REMARK VINA RESULT:      -7.1      1.030      1.601
REMARK  Name = 
REMARK  10 active torsions:
REMARK  status: ('A' for Active; 'I' for Inactive)
REMARK    1  A    between atoms: C_1  and  C_2
REMARK    2  A    between atoms: C_2  and  C_3
REMARK    3  A    between atoms: C_2  and  C_4
REMARK    4  A    between atoms: C_4  and  C_5
REMARK    5  A    between atoms: C_5  and  N_6
REMARK    6  A    between atoms: C_5  and  C_17
REMARK    7  A    between atoms: N_6  and  S_7
REMARK    8  A    between atoms: S_7  and  C_10
REMARK    9  A    between atoms: C_13  and  N_14
REMARK   10  A    between atoms: N_27  and  C_28
REMARK                            x       y       z     vdW  Elec       q    Type
REMARK                         _______ _______ _______ _____ _____    ______ ____
ROOT
ATOM      1  C   UNL     1      -0.982  12.730  19.042  0.00  0.00    +0.000 C 
ENDROOT
BRANCH   1   2
ATOM      2  C   UNL     1      -0.273  11.439  19.502  0.00  0.00    +0.000 A 
ATOM      3  N   UNL     1       0.286  10.712  18.580  0.00  0.00    +0.000 NA
ATOM      4  C   UNL     1       0.999   9.570  18.932  0.00  0.00    +0.000 A 
ATOM      5  C   UNL     1       1.576   8.800  17.919  0.00  0.00    +0.000 A 
ATOM      6  C   UNL     1       2.265   7.624  18.226  0.00  0.00    +0.000 A 
ATOM      7  C   UNL     1       2.390   7.218  19.553  0.00  0.00    +0.000 A 
ATOM      8  C   UNL     1       1.844   7.997  20.573  0.00  0.00    +0.000 A 
ATOM      9  C   UNL     1       1.150   9.169  20.250  0.00  0.00    +0.000 A 
ATOM     10  C   UNL     1       0.557  10.021  21.294  0.00  0.00    +0.000 A 
ATOM     11  O   UNL     1       0.763   9.720  22.469  0.00  0.00    +0.000 OA
ATOM     12  N   UNL     1      -0.193  11.121  20.851  0.00  0.00    +0.000 N 
BRANCH  12  13
ATOM     13  C   UNL     1      -0.798  11.917  21.867  0.00  0.00    +0.000 A 
ATOM     14  C   UNL     1      -2.022  11.526  22.422  0.00  0.00    +0.000 A 
ATOM     15  C   UNL     1      -2.698  12.368  23.305  0.00  0.00    +0.000 A 
ATOM     16  C   UNL     1      -2.156  13.609  23.634  0.00  0.00    +0.000 A 
ATOM     17  C   UNL     1      -0.924  13.995  23.108  0.00  0.00    +0.000 A 
ATOM     18  C   UNL     1      -0.244  13.147  22.231  0.00  0.00    +0.000 A 
ENDBRANCH  12  13
ENDBRANCH   1   2
BRANCH   1  19
ATOM     19  N   UNL     1      -1.932  12.537  17.927  0.00  0.00    +0.000 NA
ATOM     20  H   UNL     1      -1.531  12.574  16.990  0.00  0.00    +0.000 HD
BRANCH  19  21
ATOM     21  S   UNL     1      -3.228  11.470  17.956  0.00  0.00    +0.000 S 
ATOM     22  O   UNL     1      -3.874  11.636  16.670  0.00  0.00    +0.000 OA
ATOM     23  O   UNL     1      -2.763  10.167  18.375  0.00  0.00    +0.000 OA
BRANCH  21  24
ATOM     24  C   UNL     1      -4.352  12.110  19.170  0.00  0.00    +0.000 A 
ATOM     25  C   UNL     1      -4.006  13.219  19.953  0.00  0.00    +0.000 A 
ATOM     26  C   UNL     1      -4.925  13.703  20.896  0.00  0.00    +0.000 A 
ATOM     27  C   UNL     1      -6.208  13.146  21.007  0.00  0.00    +0.000 A 
ATOM     28  C   UNL     1      -6.523  12.031  20.231  0.00  0.00    +0.000 A 
ATOM     29  C   UNL     1      -5.611  11.531  19.295  0.00  0.00    +0.000 A 
BRANCH  27  30
ATOM     30  N   UNL     1      -7.075  13.544  22.028  0.00  0.00    +0.000 N 
ATOM     31  H   UNL     1      -7.957  13.038  22.043  0.00  0.00    +0.000 HD
ATOM     32  H   UNL     1      -6.643  13.586  22.942  0.00  0.00    +0.000 HD
ENDBRANCH  27  30
ENDBRANCH  21  24
ENDBRANCH  19  21
ENDBRANCH   1  19
BRANCH   1  33
ATOM     33  C   UNL     1       0.077  13.813  18.730  0.00  0.00    +0.000 C 
BRANCH  33  35
ATOM     34  C   UNL     1      -1.235  15.649  19.954  0.00  0.00    +0.000 C 
ATOM     35  C   UNL     1      -0.392  15.278  18.735  0.00  0.00    +0.000 C 
ATOM     36  C   UNL     1       0.838  16.195  18.670  0.00  0.00    +0.000 C 
ENDBRANCH  33  35
ENDBRANCH   1  33
TORSDOF 8
ENDMDL
MODEL 8
REMARK VINA RESULT:      -7.1      3.100      6.974
REMARK  Name = 
REMARK  10 active torsions:
REMARK  status: ('A' for Active; 'I' for Inactive)
REMARK    1  A    between atoms: C_1  and  C_2
REMARK    2  A    between atoms: C_2  and  C_3
REMARK    3  A    between atoms: C_2  and  C_4
REMARK    4  A    between atoms: C_4  and  C_5
REMARK    5  A    between atoms: C_5  and  N_6
REMARK    6  A    between atoms: C_5  and  C_17
REMARK    7  A    between atoms: N_6  and  S_7
REMARK    8  A    between atoms: S_7  and  C_10
REMARK    9  A    between atoms: C_13  and  N_14
REMARK   10  A    between atoms: N_27  and  C_28
REMARK                            x       y       z     vdW  Elec       q    Type
REMARK                         _______ _______ _______ _____ _____    ______ ____
ROOT
ATOM      1  C   UNL     1       0.284  11.993  20.816  0.00  0.00    +0.000 C 
ENDROOT
BRANCH   1   2
ATOM      2  C   UNL     1      -0.984  11.922  19.940  0.00  0.00    +0.000 A 
ATOM      3  N   UNL     1      -0.884  11.288  18.809  0.00  0.00    +0.000 NA
ATOM      4  C   UNL     1      -2.006  11.128  18.001  0.00  0.00    +0.000 A 
ATOM      5  C   UNL     1      -1.866  10.458  16.784  0.00  0.00    +0.000 A 
ATOM      6  C   UNL     1      -2.958  10.311  15.923  0.00  0.00    +0.000 A 
ATOM      7  C   UNL     1      -4.201  10.827  16.285  0.00  0.00    +0.000 A 
ATOM      8  C   UNL     1      -4.356  11.471  17.512  0.00  0.00    +0.000 A 
ATOM      9  C   UNL     1      -3.252  11.617  18.359  0.00  0.00    +0.000 A 
ATOM     10  C   UNL     1      -3.371  12.290  19.664  0.00  0.00    +0.000 A 
ATOM     11  O   UNL     1      -4.491  12.647  20.028  0.00  0.00    +0.000 OA
ATOM     12  N   UNL     1      -2.182  12.461  20.389  0.00  0.00    +0.000 N 
BRANCH  12  13
ATOM     13  C   UNL     1      -2.299  13.149  21.631  0.00  0.00    +0.000 A 
ATOM     14  C   UNL     1      -2.741  12.464  22.769  0.00  0.00    +0.000 A 
ATOM     15  C   UNL     1      -3.006  13.155  23.951  0.00  0.00    +0.000 A 
ATOM     16  C   UNL     1      -2.835  14.537  24.001  0.00  0.00    +0.000 A 
ATOM     17  C   UNL     1      -2.368  15.224  22.882  0.00  0.00    +0.000 A 
ATOM     18  C   UNL     1      -2.095  14.530  21.701  0.00  0.00    +0.000 A 
ENDBRANCH  12  13
ENDBRANCH   1   2
BRANCH   1  19
ATOM     19  N   UNL     1       1.394  12.764  20.216  0.00  0.00    +0.000 NA
ATOM     20  H   UNL     1       1.529  12.641  19.213  0.00  0.00    +0.000 HD
BRANCH  19  21
ATOM     21  S   UNL     1       1.821  14.323  20.666  0.00  0.00    +0.000 S 
ATOM     22  O   UNL     1       0.863  15.178  19.995  0.00  0.00    +0.000 OA
ATOM     23  O   UNL     1       1.968  14.382  22.103  0.00  0.00    +0.000 OA
BRANCH  21  24
ATOM     24  C   UNL     1       3.393  14.632  19.903  0.00  0.00    +0.000 A 
ATOM     25  C   UNL     1       4.520  14.930  20.680  0.00  0.00    +0.000 A 
ATOM     26  C   UNL     1       5.749  15.158  20.042  0.00  0.00    +0.000 A 
ATOM     27  C   UNL     1       5.880  15.013  18.653  0.00  0.00    +0.000 A 
ATOM     28  C   UNL     1       4.739  14.736  17.899  0.00  0.00    +0.000 A 
ATOM     29  C   UNL     1       3.507  14.517  18.522  0.00  0.00    +0.000 A 
BRANCH  27  30
ATOM     30  N   UNL     1       7.068  15.362  18.006  0.00  0.00    +0.000 N 
ATOM     31  H   UNL     1       6.965  15.518  17.006  0.00  0.00    +0.000 HD
ATOM     32  H   UNL     1       7.580  16.109  18.458  0.00  0.00    +0.000 HD
ENDBRANCH  27  30
ENDBRANCH  21  24
ENDBRANCH  19  21
ENDBRANCH   1  19
BRANCH   1  33
ATOM     33  C   UNL     1       0.713  10.562  21.216  0.00  0.00    +0.000 C 
BRANCH  33  35
ATOM     34  C   UNL     1      -0.271   8.199  21.414  0.00  0.00    +0.000 C 
ATOM     35  C   UNL     1      -0.358   9.660  21.852  0.00  0.00    +0.000 C 
ATOM     36  C   UNL     1      -0.233   9.740  23.380  0.00  0.00    +0.000 C 
ENDBRANCH  33  35
ENDBRANCH   1  33
TORSDOF 8
ENDMDL
MODEL 9
REMARK VINA RESULT:      -7.1      1.812      5.289
REMARK  Name = 
REMARK  10 active torsions:
REMARK  status: ('A' for Active; 'I' for Inactive)
REMARK    1  A    between atoms: C_1  and  C_2
REMARK    2  A    between atoms: C_2  and  C_3
REMARK    3  A    between atoms: C_2  and  C_4
REMARK    4  A    between atoms: C_4  and  C_5
REMARK    5  A    between atoms: C_5  and  N_6
REMARK    6  A    between atoms: C_5  and  C_17
REMARK    7  A    between atoms: N_6  and  S_7
REMARK    8  A    between atoms: S_7  and  C_10
REMARK    9  A    between atoms: C_13  and  N_14
REMARK   10  A    between atoms: N_27  and  C_28
REMARK                            x       y       z     vdW  Elec       q    Type
REMARK                         _______ _______ _______ _____ _____    ______ ____
ROOT
ATOM      1  C   UNL     1      -0.083  11.364  20.123  0.00  0.00    +0.000 C 
ENDROOT
BRANCH   1   2
ATOM      2  C   UNL     1      -0.641  12.363  21.159  0.00  0.00    +0.000 A 
ATOM      3  N   UNL     1      -1.649  11.966  21.878  0.00  0.00    +0.000 NA
ATOM      4  C   UNL     1      -2.159  12.791  22.876  0.00  0.00    +0.000 A 
ATOM      5  C   UNL     1      -3.252  12.345  23.622  0.00  0.00    +0.000 A 
ATOM      6  C   UNL     1      -3.821  13.159  24.605  0.00  0.00    +0.000 A 
ATOM      7  C   UNL     1      -3.288  14.422  24.855  0.00  0.00    +0.000 A 
ATOM      8  C   UNL     1      -2.178  14.863  24.135  0.00  0.00    +0.000 A 
ATOM      9  C   UNL     1      -1.624  14.040  23.149  0.00  0.00    +0.000 A 
ATOM     10  C   UNL     1      -0.451  14.465  22.365  0.00  0.00    +0.000 A 
ATOM     11  O   UNL     1       0.083  15.533  22.662  0.00  0.00    +0.000 OA
ATOM     12  N   UNL     1      -0.037  13.600  21.341  0.00  0.00    +0.000 N 
BRANCH  12  13
ATOM     13  C   UNL     1       1.072  14.039  20.561  0.00  0.00    +0.000 A 
ATOM     14  C   UNL     1       2.376  13.820  21.021  0.00  0.00    +0.000 A 
ATOM     15  C   UNL     1       3.464  14.374  20.347  0.00  0.00    +0.000 A 
ATOM     16  C   UNL     1       3.255  15.156  19.212  0.00  0.00    +0.000 A 
ATOM     17  C   UNL     1       1.962  15.355  18.732  0.00  0.00    +0.000 A 
ATOM     18  C   UNL     1       0.873  14.793  19.402  0.00  0.00    +0.000 A 
ENDBRANCH  12  13
ENDBRANCH   1   2
BRANCH   1  19
ATOM     19  N   UNL     1      -1.119  10.623  19.374  0.00  0.00    +0.000 NA
ATOM     20  H   UNL     1      -1.790  10.104  19.939  0.00  0.00    +0.000 HD
BRANCH  19  21
ATOM     21  S   UNL     1      -1.856  11.177  17.971  0.00  0.00    +0.000 S 
ATOM     22  O   UNL     1      -1.249  12.468  17.718  0.00  0.00    +0.000 OA
ATOM     23  O   UNL     1      -1.808  10.140  16.965  0.00  0.00    +0.000 OA
BRANCH  21  24
ATOM     24  C   UNL     1      -3.547  11.492  18.407  0.00  0.00    +0.000 A 
ATOM     25  C   UNL     1      -3.866  12.374  19.447  0.00  0.00    +0.000 A 
ATOM     26  C   UNL     1      -5.215  12.607  19.756  0.00  0.00    +0.000 A 
ATOM     27  C   UNL     1      -6.241  12.035  18.990  0.00  0.00    +0.000 A 
ATOM     28  C   UNL     1      -5.899  11.144  17.972  0.00  0.00    +0.000 A 
ATOM     29  C   UNL     1      -4.559  10.896  17.661  0.00  0.00    +0.000 A 
BRANCH  27  30
ATOM     30  N   UNL     1      -7.579  12.164  19.374  0.00  0.00    +0.000 N 
ATOM     31  H   UNL     1      -7.737  12.863  20.095  0.00  0.00    +0.000 HD
ATOM     32  H   UNL     1      -8.222  12.263  18.599  0.00  0.00    +0.000 HD
ENDBRANCH  27  30
ENDBRANCH  21  24
ENDBRANCH  19  21
ENDBRANCH   1  19
BRANCH   1  33
ATOM     33  C   UNL     1       0.929  10.420  20.815  0.00  0.00    +0.000 C 
BRANCH  33  35
ATOM     34  C   UNL     1       1.250   7.887  21.077  0.00  0.00    +0.000 C 
ATOM     35  C   UNL     1       0.382   9.103  21.391  0.00  0.00    +0.000 C 
ATOM     36  C   UNL     1       0.239   9.248  22.913  0.00  0.00    +0.000 C 
ENDBRANCH  33  35
ENDBRANCH   1  33
TORSDOF 8
ENDMDL
