MODEL 1
REMARK VINA RESULT:      -8.2      0.000      0.000
REMARK  Name = 
REMARK  2 active torsions:
REMARK  status: ('A' for Active; 'I' for Inactive)
REMARK    1  A    between atoms: C_7  and  C_8
REMARK    2  A    between atoms: C_11  and  C_12
REMARK                            x       y       z     vdW  Elec       q    Type
REMARK                         _______ _______ _______ _____ _____    ______ ____
ROOT
ATOM      1  O   UNL     1       0.862   2.138  22.705  0.00  0.00    +0.000 OA
ATOM      2  C   UNL     1       1.351   2.558  21.674  0.00  0.00    +0.000 A 
ATOM      3  N   UNL     1       0.686   2.788  20.460  0.00  0.00    +0.000 N 
ATOM      4  C   UNL     1       1.601   3.273  19.532  0.00  0.00    +0.000 A 
ATOM      5  C   UNL     1       1.414   3.645  18.224  0.00  0.00    +0.000 A 
ATOM      6  C   UNL     1       2.545   4.112  17.537  0.00  0.00    +0.000 A 
ATOM      7  C   UNL     1       3.823   4.185  18.157  0.00  0.00    +0.000 A 
ATOM      8  C   UNL     1       3.971   3.795  19.500  0.00  0.00    +0.000 A 
ATOM      9  C   UNL     1       2.844   3.346  20.154  0.00  0.00    +0.000 A 
ATOM     10  N   UNL     1       2.694   2.909  21.466  0.00  0.00    +0.000 N 
ATOM     11  H   UNL     1      -0.299   2.626  20.323  0.00  0.00    +0.000 HD
ATOM     12  H   UNL     1       3.403   2.847  22.178  0.00  0.00    +0.000 HD
ENDROOT
BRANCH   7  13
ATOM     13  C   UNL     1       4.960   4.676  17.381  0.00  0.00    +0.000 A 
ATOM     14  C   UNL     1       5.943   5.506  17.888  0.00  0.00    +0.000 A 
ATOM     15  S   UNL     1       7.107   5.851  16.677  0.00  0.00    +0.000 S 
ATOM     16  C   UNL     1       6.230   4.876  15.569  0.00  0.00    +0.000 A 
ATOM     17  N   UNL     1       5.142   4.306  16.055  0.00  0.00    +0.000 NA
BRANCH  16  18
ATOM     18  C   UNL     1       6.657   4.697  14.207  0.00  0.00    +0.000 A 
ATOM     19  C   UNL     1       6.219   3.751  13.292  0.00  0.00    +0.000 A 
ATOM     20  C   UNL     1       6.928   3.964  12.086  0.00  0.00    +0.000 A 
ATOM     21  C   UNL     1       7.762   5.028  12.322  0.00  0.00    +0.000 A 
ATOM     22  O   UNL     1       7.607   5.479  13.592  0.00  0.00    +0.000 OA
ENDBRANCH  16  18
ENDBRANCH   7  13
TORSDOF 2
ENDMDL
MODEL 2
REMARK VINA RESULT:      -7.3      4.312      4.565
REMARK  Name = 
REMARK  2 active torsions:
REMARK  status: ('A' for Active; 'I' for Inactive)
REMARK    1  A    between atoms: C_7  and  C_8
REMARK    2  A    between atoms: C_11  and  C_12
REMARK                            x       y       z     vdW  Elec       q    Type
REMARK                         _______ _______ _______ _____ _____    ______ ____
ROOT
ATOM      1  O   UNL     1       0.161  10.371  22.882  0.00  0.00    +0.000 OA
ATOM      2  C   UNL     1       0.616   9.784  21.919  0.00  0.00    +0.000 A 
ATOM      3  N   UNL     1       0.649  10.242  20.594  0.00  0.00    +0.000 N 
ATOM      4  C   UNL     1       1.256   9.274  19.800  0.00  0.00    +0.000 A 
ATOM      5  C   UNL     1       1.518   9.278  18.453  0.00  0.00    +0.000 A 
ATOM      6  C   UNL     1       2.162   8.144  17.934  0.00  0.00    +0.000 A 
ATOM      7  C   UNL     1       2.514   7.039  18.757  0.00  0.00    +0.000 A 
ATOM      8  C   UNL     1       2.229   7.076  20.135  0.00  0.00    +0.000 A 
ATOM      9  C   UNL     1       1.603   8.203  20.619  0.00  0.00    +0.000 A 
ATOM     10  N   UNL     1       1.212   8.513  21.918  0.00  0.00    +0.000 N 
ATOM     11  H   UNL     1       0.291  11.136  20.302  0.00  0.00    +0.000 HD
ATOM     12  H   UNL     1       1.326   7.950  22.745  0.00  0.00    +0.000 HD
ENDROOT
BRANCH   7  13
ATOM     13  C   UNL     1       3.178   5.887  18.152  0.00  0.00    +0.000 A 
ATOM     14  C   UNL     1       2.968   4.578  18.543  0.00  0.00    +0.000 A 
ATOM     15  S   UNL     1       3.918   3.516  17.590  0.00  0.00    +0.000 S 
ATOM     16  C   UNL     1       4.538   4.863  16.725  0.00  0.00    +0.000 A 
ATOM     17  N   UNL     1       4.068   6.039  17.097  0.00  0.00    +0.000 NA
BRANCH  16  18
ATOM     18  C   UNL     1       5.503   4.711  15.669  0.00  0.00    +0.000 A 
ATOM     19  C   UNL     1       6.806   5.185  15.627  0.00  0.00    +0.000 A 
ATOM     20  C   UNL     1       7.365   4.793  14.388  0.00  0.00    +0.000 A 
ATOM     21  C   UNL     1       6.378   4.097  13.735  0.00  0.00    +0.000 A 
ATOM     22  O   UNL     1       5.256   4.039  14.494  0.00  0.00    +0.000 OA
ENDBRANCH  16  18
ENDBRANCH   7  13
TORSDOF 2
ENDMDL
MODEL 3
REMARK VINA RESULT:      -7.3      4.839      5.270
REMARK  Name = 
REMARK  2 active torsions:
REMARK  status: ('A' for Active; 'I' for Inactive)
REMARK    1  A    between atoms: C_7  and  C_8
REMARK    2  A    between atoms: C_11  and  C_12
REMARK                            x       y       z     vdW  Elec       q    Type
REMARK                         _______ _______ _______ _____ _____    ______ ____
ROOT
ATOM      1  O   UNL     1      -0.975  11.976  18.389  0.00  0.00    +0.000 OA
ATOM      2  C   UNL     1      -0.279  11.014  18.656  0.00  0.00    +0.000 A 
ATOM      3  N   UNL     1      -0.170  10.373  19.899  0.00  0.00    +0.000 N 
ATOM      4  C   UNL     1       0.724   9.315  19.781  0.00  0.00    +0.000 A 
ATOM      5  C   UNL     1       1.139   8.404  20.721  0.00  0.00    +0.000 A 
ATOM      6  C   UNL     1       2.056   7.432  20.292  0.00  0.00    +0.000 A 
ATOM      7  C   UNL     1       2.541   7.397  18.956  0.00  0.00    +0.000 A 
ATOM      8  C   UNL     1       2.090   8.348  18.023  0.00  0.00    +0.000 A 
ATOM      9  C   UNL     1       1.186   9.287  18.468  0.00  0.00    +0.000 A 
ATOM     10  N   UNL     1       0.573  10.327  17.777  0.00  0.00    +0.000 N 
ATOM     11  H   UNL     1      -0.681  10.655  20.720  0.00  0.00    +0.000 HD
ATOM     12  H   UNL     1       0.688  10.573  16.807  0.00  0.00    +0.000 HD
ENDROOT
BRANCH   7  13
ATOM     13  C   UNL     1       3.499   6.360  18.577  0.00  0.00    +0.000 A 
ATOM     14  C   UNL     1       3.939   5.363  19.428  0.00  0.00    +0.000 A 
ATOM     15  S   UNL     1       5.046   4.338  18.615  0.00  0.00    +0.000 S 
ATOM     16  C   UNL     1       4.864   5.284  17.194  0.00  0.00    +0.000 A 
ATOM     17  N   UNL     1       4.023   6.297  17.293  0.00  0.00    +0.000 NA
BRANCH  16  18
ATOM     18  C   UNL     1       5.582   4.987  15.983  0.00  0.00    +0.000 A 
ATOM     19  C   UNL     1       5.290   4.020  15.032  0.00  0.00    +0.000 A 
ATOM     20  C   UNL     1       6.277   4.102  14.021  0.00  0.00    +0.000 A 
ATOM     21  C   UNL     1       7.122   5.114  14.402  0.00  0.00    +0.000 A 
ATOM     22  O   UNL     1       6.714   5.656  15.577  0.00  0.00    +0.000 OA
ENDBRANCH  16  18
ENDBRANCH   7  13
TORSDOF 2
ENDMDL
MODEL 4
REMARK VINA RESULT:      -7.3      4.999      8.408
REMARK  Name = 
REMARK  2 active torsions:
REMARK  status: ('A' for Active; 'I' for Inactive)
REMARK    1  A    between atoms: C_7  and  C_8
REMARK    2  A    between atoms: C_11  and  C_12
REMARK                            x       y       z     vdW  Elec       q    Type
REMARK                         _______ _______ _______ _____ _____    ______ ____
ROOT
ATOM      1  O   UNL     1       7.475   4.514  15.548  0.00  0.00    +0.000 OA
ATOM      2  C   UNL     1       6.486   4.921  16.128  0.00  0.00    +0.000 A 
ATOM      3  N   UNL     1       5.562   4.155  16.854  0.00  0.00    +0.000 N 
ATOM      4  C   UNL     1       4.582   4.999  17.363  0.00  0.00    +0.000 A 
ATOM      5  C   UNL     1       3.487   4.709  18.139  0.00  0.00    +0.000 A 
ATOM      6  C   UNL     1       2.675   5.792  18.511  0.00  0.00    +0.000 A 
ATOM      7  C   UNL     1       2.964   7.122  18.097  0.00  0.00    +0.000 A 
ATOM      8  C   UNL     1       4.098   7.377  17.304  0.00  0.00    +0.000 A 
ATOM      9  C   UNL     1       4.881   6.297  16.959  0.00  0.00    +0.000 A 
ATOM     10  N   UNL     1       6.046   6.252  16.201  0.00  0.00    +0.000 N 
ATOM     11  H   UNL     1       5.634   3.158  16.973  0.00  0.00    +0.000 HD
ATOM     12  H   UNL     1       6.529   7.022  15.768  0.00  0.00    +0.000 HD
ENDROOT
BRANCH   7  13
ATOM     13  C   UNL     1       2.074   8.203  18.516  0.00  0.00    +0.000 A 
ATOM     14  C   UNL     1       1.598   9.186  17.669  0.00  0.00    +0.000 A 
ATOM     15  S   UNL     1       0.579  10.264  18.528  0.00  0.00    +0.000 S 
ATOM     16  C   UNL     1       0.838   9.353  19.959  0.00  0.00    +0.000 A 
ATOM     17  N   UNL     1       1.619   8.297  19.824  0.00  0.00    +0.000 NA
BRANCH  16  18
ATOM     18  C   UNL     1       0.239   9.720  21.215  0.00  0.00    +0.000 A 
ATOM     19  C   UNL     1      -0.170  10.978  21.631  0.00  0.00    +0.000 A 
ATOM     20  C   UNL     1      -0.695  10.846  22.939  0.00  0.00    +0.000 A 
ATOM     21  C   UNL     1      -0.583   9.516  23.257  0.00  0.00    +0.000 A 
ATOM     22  O   UNL     1      -0.025   8.828  22.229  0.00  0.00    +0.000 OA
ENDBRANCH  16  18
ENDBRANCH   7  13
TORSDOF 2
ENDMDL
MODEL 5
REMARK VINA RESULT:      -7.3      4.613      4.843
REMARK  Name = 
REMARK  2 active torsions:
REMARK  status: ('A' for Active; 'I' for Inactive)
REMARK    1  A    between atoms: C_7  and  C_8
REMARK    2  A    between atoms: C_11  and  C_12
REMARK                            x       y       z     vdW  Elec       q    Type
REMARK                         _______ _______ _______ _____ _____    ______ ____
ROOT
ATOM      1  O   UNL     1      -0.932  10.863  22.188  0.00  0.00    +0.000 OA
ATOM      2  C   UNL     1      -0.248  10.256  21.385  0.00  0.00    +0.000 A 
ATOM      3  N   UNL     1      -0.030  10.593  20.041  0.00  0.00    +0.000 N 
ATOM      4  C   UNL     1       0.815   9.647  19.473  0.00  0.00    +0.000 A 
ATOM      5  C   UNL     1       1.312   9.565  18.196  0.00  0.00    +0.000 A 
ATOM      6  C   UNL     1       2.163   8.483  17.921  0.00  0.00    +0.000 A 
ATOM      7  C   UNL     1       2.487   7.514  18.909  0.00  0.00    +0.000 A 
ATOM      8  C   UNL     1       1.957   7.635  20.207  0.00  0.00    +0.000 A 
ATOM      9  C   UNL     1       1.130   8.709  20.452  0.00  0.00    +0.000 A 
ATOM     10  N   UNL     1       0.480   9.080  21.625  0.00  0.00    +0.000 N 
ATOM     11  H   UNL     1      -0.430  11.403  19.597  0.00  0.00    +0.000 HD
ATOM     12  H   UNL     1       0.508   8.614  22.517  0.00  0.00    +0.000 HD
ENDROOT
BRANCH   7  13
ATOM     13  C   UNL     1       3.375   6.409  18.555  0.00  0.00    +0.000 A 
ATOM     14  C   UNL     1       3.665   5.348  19.392  0.00  0.00    +0.000 A 
ATOM     15  S   UNL     1       4.734   4.256  18.615  0.00  0.00    +0.000 S 
ATOM     16  C   UNL     1       4.737   5.263  17.225  0.00  0.00    +0.000 A 
ATOM     17  N   UNL     1       3.981   6.343  17.307  0.00  0.00    +0.000 NA
BRANCH  16  18
ATOM     18  C   UNL     1       5.510   4.944  16.054  0.00  0.00    +0.000 A 
ATOM     19  C   UNL     1       5.343   3.877  15.184  0.00  0.00    +0.000 A 
ATOM     20  C   UNL     1       6.340   3.978  14.186  0.00  0.00    +0.000 A 
ATOM     21  C   UNL     1       7.066   5.102  14.492  0.00  0.00    +0.000 A 
ATOM     22  O   UNL     1       6.576   5.693  15.611  0.00  0.00    +0.000 OA
ENDBRANCH  16  18
ENDBRANCH   7  13
TORSDOF 2
ENDMDL
MODEL 6
REMARK VINA RESULT:      -7.2      5.354      7.958
REMARK  Name = 
REMARK  2 active torsions:
REMARK  status: ('A' for Active; 'I' for Inactive)
REMARK    1  A    between atoms: C_7  and  C_8
REMARK    2  A    between atoms: C_11  and  C_12
REMARK                            x       y       z     vdW  Elec       q    Type
REMARK                         _______ _______ _______ _____ _____    ______ ____
ROOT
ATOM      1  O   UNL     1       7.444   5.115  14.695  0.00  0.00    +0.000 OA
ATOM      2  C   UNL     1       6.487   5.330  15.416  0.00  0.00    +0.000 A 
ATOM      3  N   UNL     1       5.620   4.377  15.969  0.00  0.00    +0.000 N 
ATOM      4  C   UNL     1       4.663   5.034  16.735  0.00  0.00    +0.000 A 
ATOM      5  C   UNL     1       3.621   4.523  17.470  0.00  0.00    +0.000 A 
ATOM      6  C   UNL     1       2.822   5.450  18.155  0.00  0.00    +0.000 A 
ATOM      7  C   UNL     1       3.068   6.849  18.085  0.00  0.00    +0.000 A 
ATOM      8  C   UNL     1       4.147   7.332  17.322  0.00  0.00    +0.000 A 
ATOM      9  C   UNL     1       4.920   6.400  16.665  0.00  0.00    +0.000 A 
ATOM     10  N   UNL     1       6.037   6.584  15.857  0.00  0.00    +0.000 N 
ATOM     11  H   UNL     1       5.712   3.386  15.822  0.00  0.00    +0.000 HD
ATOM     12  H   UNL     1       6.482   7.454  15.612  0.00  0.00    +0.000 HD
ENDROOT
BRANCH   7  13
ATOM     13  C   UNL     1       2.193   7.761  18.820  0.00  0.00    +0.000 A 
ATOM     14  C   UNL     1       2.014   7.728  20.190  0.00  0.00    +0.000 A 
ATOM     15  S   UNL     1       0.923   8.958  20.674  0.00  0.00    +0.000 S 
ATOM     16  C   UNL     1       0.765   9.449  19.036  0.00  0.00    +0.000 A 
ATOM     17  N   UNL     1       1.486   8.763  18.168  0.00  0.00    +0.000 NA
BRANCH  16  18
ATOM     18  C   UNL     1      -0.093  10.536  18.646  0.00  0.00    +0.000 A 
ATOM     19  C   UNL     1      -1.286  10.472  17.942  0.00  0.00    +0.000 A 
ATOM     20  C   UNL     1      -1.767  11.794  17.793  0.00  0.00    +0.000 A 
ATOM     21  C   UNL     1      -0.846  12.601  18.414  0.00  0.00    +0.000 A 
ATOM     22  O   UNL     1       0.163  11.857  18.932  0.00  0.00    +0.000 OA
ENDBRANCH  16  18
ENDBRANCH   7  13
TORSDOF 2
ENDMDL
MODEL 7
REMARK VINA RESULT:      -7.1      1.019      1.080
REMARK  Name = 
REMARK  2 active torsions:
REMARK  status: ('A' for Active; 'I' for Inactive)
REMARK    1  A    between atoms: C_7  and  C_8
REMARK    2  A    between atoms: C_11  and  C_12
REMARK                            x       y       z     vdW  Elec       q    Type
REMARK                         _______ _______ _______ _____ _____    ______ ____
ROOT
ATOM      1  O   UNL     1       1.186   2.125  22.436  0.00  0.00    +0.000 OA
ATOM      2  C   UNL     1       1.719   2.856  21.622  0.00  0.00    +0.000 A 
ATOM      3  N   UNL     1       1.284   4.128  21.222  0.00  0.00    +0.000 N 
ATOM      4  C   UNL     1       2.174   4.629  20.279  0.00  0.00    +0.000 A 
ATOM      5  C   UNL     1       2.168   5.831  19.615  0.00  0.00    +0.000 A 
ATOM      6  C   UNL     1       3.222   6.058  18.717  0.00  0.00    +0.000 A 
ATOM      7  C   UNL     1       4.241   5.090  18.496  0.00  0.00    +0.000 A 
ATOM      8  C   UNL     1       4.211   3.871  19.198  0.00  0.00    +0.000 A 
ATOM      9  C   UNL     1       3.168   3.676  20.078  0.00  0.00    +0.000 A 
ATOM     10  N   UNL     1       2.892   2.589  20.899  0.00  0.00    +0.000 N 
ATOM     11  H   UNL     1       0.461   4.578  21.588  0.00  0.00    +0.000 HD
ATOM     12  H   UNL     1       3.423   1.738  20.993  0.00  0.00    +0.000 HD
ENDROOT
BRANCH   7  13
ATOM     13  C   UNL     1       5.307   5.389  17.543  0.00  0.00    +0.000 A 
ATOM     14  C   UNL     1       6.368   6.235  17.807  0.00  0.00    +0.000 A 
ATOM     15  S   UNL     1       7.410   6.319  16.448  0.00  0.00    +0.000 S 
ATOM     16  C   UNL     1       6.385   5.229  15.607  0.00  0.00    +0.000 A 
ATOM     17  N   UNL     1       5.335   4.803  16.284  0.00  0.00    +0.000 NA
BRANCH  16  18
ATOM     18  C   UNL     1       6.660   4.811  14.258  0.00  0.00    +0.000 A 
ATOM     19  C   UNL     1       6.070   3.777  13.546  0.00  0.00    +0.000 A 
ATOM     20  C   UNL     1       6.665   3.746  12.263  0.00  0.00    +0.000 A 
ATOM     21  C   UNL     1       7.587   4.762  12.252  0.00  0.00    +0.000 A 
ATOM     22  O   UNL     1       7.593   5.412  13.443  0.00  0.00    +0.000 OA
ENDBRANCH  16  18
ENDBRANCH   7  13
TORSDOF 2
ENDMDL
MODEL 8
REMARK VINA RESULT:      -7.1      5.032      5.546
REMARK  Name = 
REMARK  2 active torsions:
REMARK  status: ('A' for Active; 'I' for Inactive)
REMARK    1  A    between atoms: C_7  and  C_8
REMARK    2  A    between atoms: C_11  and  C_12
REMARK                            x       y       z     vdW  Elec       q    Type
REMARK                         _______ _______ _______ _____ _____    ______ ____
ROOT
ATOM      1  O   UNL     1      -0.065  12.644  18.714  0.00  0.00    +0.000 OA
ATOM      2  C   UNL     1       0.405  11.538  18.904  0.00  0.00    +0.000 A 
ATOM      3  N   UNL     1       0.352  10.794  20.091  0.00  0.00    +0.000 N 
ATOM      4  C   UNL     1       1.002   9.581  19.891  0.00  0.00    +0.000 A 
ATOM      5  C   UNL     1       1.196   8.533  20.755  0.00  0.00    +0.000 A 
ATOM      6  C   UNL     1       1.892   7.423  20.251  0.00  0.00    +0.000 A 
ATOM      7  C   UNL     1       2.384   7.389  18.917  0.00  0.00    +0.000 A 
ATOM      8  C   UNL     1       2.162   8.485  18.062  0.00  0.00    +0.000 A 
ATOM      9  C   UNL     1       1.471   9.558  18.580  0.00  0.00    +0.000 A 
ATOM     10  N   UNL     1       1.107  10.755  17.973  0.00  0.00    +0.000 N 
ATOM     11  H   UNL     1      -0.102  11.114  20.932  0.00  0.00    +0.000 HD
ATOM     12  H   UNL     1       1.290  11.046  17.027  0.00  0.00    +0.000 HD
ENDROOT
BRANCH   7  13
ATOM     13  C   UNL     1       3.105   6.204  18.457  0.00  0.00    +0.000 A 
ATOM     14  C   UNL     1       2.990   4.954  19.035  0.00  0.00    +0.000 A 
ATOM     15  S   UNL     1       3.983   3.827  18.210  0.00  0.00    +0.000 S 
ATOM     16  C   UNL     1       4.494   5.072  17.144  0.00  0.00    +0.000 A 
ATOM     17  N   UNL     1       3.957   6.259  17.362  0.00  0.00    +0.000 NA
BRANCH  16  18
ATOM     18  C   UNL     1       5.441   4.831  16.088  0.00  0.00    +0.000 A 
ATOM     19  C   UNL     1       6.729   5.330  15.965  0.00  0.00    +0.000 A 
ATOM     20  C   UNL     1       7.273   4.819  14.762  0.00  0.00    +0.000 A 
ATOM     21  C   UNL     1       6.293   4.033  14.211  0.00  0.00    +0.000 A 
ATOM     22  O   UNL     1       5.188   4.029  14.999  0.00  0.00    +0.000 OA
ENDBRANCH  16  18
ENDBRANCH   7  13
TORSDOF 2
ENDMDL
MODEL 9
REMARK VINA RESULT:      -7.1      3.472      3.609
REMARK  Name = 
REMARK  2 active torsions:
REMARK  status: ('A' for Active; 'I' for Inactive)
REMARK    1  A    between atoms: C_7  and  C_8
REMARK    2  A    between atoms: C_11  and  C_12
REMARK                            x       y       z     vdW  Elec       q    Type
REMARK                         _______ _______ _______ _____ _____    ______ ____
ROOT
ATOM      1  O   UNL     1      -0.172   8.872  21.974  0.00  0.00    +0.000 OA
ATOM      2  C   UNL     1       0.592   8.559  21.080  0.00  0.00    +0.000 A 
ATOM      3  N   UNL     1       0.721   9.178  19.828  0.00  0.00    +0.000 N 
ATOM      4  C   UNL     1       1.708   8.521  19.102  0.00  0.00    +0.000 A 
ATOM      5  C   UNL     1       2.187   8.771  17.840  0.00  0.00    +0.000 A 
ATOM      6  C   UNL     1       3.209   7.928  17.377  0.00  0.00    +0.000 A 
ATOM      7  C   UNL     1       3.716   6.861  18.167  0.00  0.00    +0.000 A 
ATOM      8  C   UNL     1       3.199   6.639  19.457  0.00  0.00    +0.000 A 
ATOM      9  C   UNL     1       2.201   7.484  19.889  0.00  0.00    +0.000 A 
ATOM     10  N   UNL     1       1.519   7.505  21.101  0.00  0.00    +0.000 N 
ATOM     11  H   UNL     1       0.177   9.975  19.540  0.00  0.00    +0.000 HD
ATOM     12  H   UNL     1       1.645   6.890  21.889  0.00  0.00    +0.000 HD
ENDROOT
BRANCH   7  13
ATOM     13  C   UNL     1       4.777   6.017  17.622  0.00  0.00    +0.000 A 
ATOM     14  C   UNL     1       5.618   5.234  18.391  0.00  0.00    +0.000 A 
ATOM     15  S   UNL     1       6.719   4.387  17.388  0.00  0.00    +0.000 S 
ATOM     16  C   UNL     1       6.006   5.113  16.006  0.00  0.00    +0.000 A 
ATOM     17  N   UNL     1       4.996   5.928  16.253  0.00  0.00    +0.000 NA
BRANCH  16  18
ATOM     18  C   UNL     1       6.479   4.846  14.674  0.00  0.00    +0.000 A 
ATOM     19  C   UNL     1       5.992   3.920  13.764  0.00  0.00    +0.000 A 
ATOM     20  C   UNL     1       6.777   4.020  12.590  0.00  0.00    +0.000 A 
ATOM     21  C   UNL     1       7.703   5.001  12.840  0.00  0.00    +0.000 A 
ATOM     22  O   UNL     1       7.534   5.508  14.087  0.00  0.00    +0.000 OA
ENDBRANCH  16  18
ENDBRANCH   7  13
TORSDOF 2
ENDMDL
