MODEL 1
REMARK VINA RESULT:      -6.3      0.000      0.000
REMARK  Name = 
REMARK  5 active torsions:
REMARK  status: ('A' for Active; 'I' for Inactive)
REMARK    1  A    between atoms: C_1  and  N_2
REMARK    2  A    between atoms: N_2  and  C_3
REMARK    3  A    between atoms: N_2  and  C_4
REMARK    4  A    between atoms: C_7  and  C_8
REMARK    5  A    between atoms: N_9  and  C_10
REMARK                            x       y       z     vdW  Elec       q    Type
REMARK                         _______ _______ _______ _____ _____    ______ ____
ROOT
ATOM      1  C   UNL     1       2.784   3.781  19.236  0.00  0.00    +0.000 A 
ATOM      2  C   UNL     1       2.793   5.091  18.724  0.00  0.00    +0.000 A 
ATOM      3  C   UNL     1       3.580   5.459  17.625  0.00  0.00    +0.000 A 
ATOM      4  C   UNL     1       4.375   4.510  16.991  0.00  0.00    +0.000 A 
ATOM      5  C   UNL     1       4.373   3.196  17.446  0.00  0.00    +0.000 A 
ATOM      6  C   UNL     1       3.585   2.844  18.554  0.00  0.00    +0.000 A 
ENDROOT
BRANCH   1   8
ATOM      7  C   UNL     1       2.621   2.737  21.474  0.00  0.00    +0.000 C 
ATOM      8  N   UNL     1       2.009   3.423  20.340  0.00  0.00    +0.000 N 
ATOM      9  C   UNL     1       0.562   3.298  20.194  0.00  0.00    +0.000 C 
ENDBRANCH   1   8
BRANCH   4  10
ATOM     10  C   UNL     1       5.235   4.886  15.850  0.00  0.00    +0.000 C 
ATOM     11  N   UNL     1       6.124   4.070  15.380  0.00  0.00    +0.000 NA
BRANCH  11  12
ATOM     12  C   UNL     1       6.811   4.528  14.311  0.00  0.00    +0.000 A 
ATOM     13  N   UNL     1       7.725   5.466  14.158  0.00  0.00    +0.000 NA
ATOM     14  N   UNL     1       8.060   5.537  12.822  0.00  0.00    +0.000 NA
ATOM     15  C   UNL     1       7.343   4.640  12.190  0.00  0.00    +0.000 A 
ATOM     16  N   UNL     1       6.560   3.979  13.082  0.00  0.00    +0.000 N 
ATOM     17  H   UNL     1       5.902   3.239  12.906  0.00  0.00    +0.000 HD
ENDBRANCH  11  12
ENDBRANCH   4  10
TORSDOF 3
ENDMDL
MODEL 2
REMARK VINA RESULT:      -6.2      0.709      1.108
REMARK  Name = 
REMARK  5 active torsions:
REMARK  status: ('A' for Active; 'I' for Inactive)
REMARK    1  A    between atoms: C_1  and  N_2
REMARK    2  A    between atoms: N_2  and  C_3
REMARK    3  A    between atoms: N_2  and  C_4
REMARK    4  A    between atoms: C_7  and  C_8
REMARK    5  A    between atoms: N_9  and  C_10
REMARK                            x       y       z     vdW  Elec       q    Type
REMARK                         _______ _______ _______ _____ _____    ______ ____
ROOT
ATOM      1  C   UNL     1       2.775   3.828  19.364  0.00  0.00    +0.000 A 
ATOM      2  C   UNL     1       2.766   3.214  18.099  0.00  0.00    +0.000 A 
ATOM      3  C   UNL     1       3.707   3.526  17.110  0.00  0.00    +0.000 A 
ATOM      4  C   UNL     1       4.705   4.460  17.370  0.00  0.00    +0.000 A 
ATOM      5  C   UNL     1       4.768   5.069  18.618  0.00  0.00    +0.000 A 
ATOM      6  C   UNL     1       3.812   4.751  19.597  0.00  0.00    +0.000 A 
ENDROOT
BRANCH   1   8
ATOM      7  C   UNL     1       2.250   3.168  21.691  0.00  0.00    +0.000 C 
ATOM      8  N   UNL     1       1.825   3.524  20.340  0.00  0.00    +0.000 N 
ATOM      9  C   UNL     1       0.487   3.104  19.937  0.00  0.00    +0.000 C 
ENDBRANCH   1   8
BRANCH   4  10
ATOM     10  C   UNL     1       5.687   4.825  16.328  0.00  0.00    +0.000 C 
ATOM     11  N   UNL     1       5.782   4.149  15.228  0.00  0.00    +0.000 NA
BRANCH  11  12
ATOM     12  C   UNL     1       6.693   4.618  14.347  0.00  0.00    +0.000 A 
ATOM     13  N   UNL     1       7.699   5.465  14.451  0.00  0.00    +0.000 NA
ATOM     14  N   UNL     1       8.281   5.608  13.209  0.00  0.00    +0.000 NA
ATOM     15  C   UNL     1       7.619   4.843  12.375  0.00  0.00    +0.000 A 
ATOM     16  N   UNL     1       6.629   4.197  13.046  0.00  0.00    +0.000 N 
ATOM     17  H   UNL     1       5.953   3.546  12.684  0.00  0.00    +0.000 HD
ENDBRANCH  11  12
ENDBRANCH   4  10
TORSDOF 3
ENDMDL
MODEL 3
REMARK VINA RESULT:      -6.2      0.823      1.246
REMARK  Name = 
REMARK  5 active torsions:
REMARK  status: ('A' for Active; 'I' for Inactive)
REMARK    1  A    between atoms: C_1  and  N_2
REMARK    2  A    between atoms: N_2  and  C_3
REMARK    3  A    between atoms: N_2  and  C_4
REMARK    4  A    between atoms: C_7  and  C_8
REMARK    5  A    between atoms: N_9  and  C_10
REMARK                            x       y       z     vdW  Elec       q    Type
REMARK                         _______ _______ _______ _____ _____    ______ ____
ROOT
ATOM      1  C   UNL     1       2.835   3.214  19.222  0.00  0.00    +0.000 A 
ATOM      2  C   UNL     1       2.250   3.323  17.947  0.00  0.00    +0.000 A 
ATOM      3  C   UNL     1       2.984   3.710  16.819  0.00  0.00    +0.000 A 
ATOM      4  C   UNL     1       4.343   3.984  16.934  0.00  0.00    +0.000 A 
ATOM      5  C   UNL     1       4.967   3.859  18.170  0.00  0.00    +0.000 A 
ATOM      6  C   UNL     1       4.216   3.478  19.293  0.00  0.00    +0.000 A 
ENDROOT
BRANCH   1   8
ATOM      7  C   UNL     1       0.697   3.241  20.467  0.00  0.00    +0.000 C 
ATOM      8  N   UNL     1       2.095   2.842  20.345  0.00  0.00    +0.000 N 
ATOM      9  C   UNL     1       2.789   2.483  21.578  0.00  0.00    +0.000 C 
ENDBRANCH   1   8
BRANCH   4  10
ATOM     10  C   UNL     1       5.127   4.423  15.761  0.00  0.00    +0.000 C 
ATOM     11  N   UNL     1       6.397   4.187  15.674  0.00  0.00    +0.000 NA
BRANCH  11  12
ATOM     12  C   UNL     1       6.979   4.608  14.530  0.00  0.00    +0.000 A 
ATOM     13  N   UNL     1       7.895   5.518  14.263  0.00  0.00    +0.000 NA
ATOM     14  N   UNL     1       8.090   5.557  12.899  0.00  0.00    +0.000 NA
ATOM     15  C   UNL     1       7.288   4.669  12.363  0.00  0.00    +0.000 A 
ATOM     16  N   UNL     1       6.587   4.044  13.345  0.00  0.00    +0.000 N 
ATOM     17  H   UNL     1       5.896   3.319  13.254  0.00  0.00    +0.000 HD
ENDBRANCH  11  12
ENDBRANCH   4  10
TORSDOF 3
ENDMDL
MODEL 4
REMARK VINA RESULT:      -6.2      0.643      1.061
REMARK  Name = 
REMARK  5 active torsions:
REMARK  status: ('A' for Active; 'I' for Inactive)
REMARK    1  A    between atoms: C_1  and  N_2
REMARK    2  A    between atoms: N_2  and  C_3
REMARK    3  A    between atoms: N_2  and  C_4
REMARK    4  A    between atoms: C_7  and  C_8
REMARK    5  A    between atoms: N_9  and  C_10
REMARK                            x       y       z     vdW  Elec       q    Type
REMARK                         _______ _______ _______ _____ _____    ______ ____
ROOT
ATOM      1  C   UNL     1       2.929   3.865  19.329  0.00  0.00    +0.000 A 
ATOM      2  C   UNL     1       3.732   5.014  19.438  0.00  0.00    +0.000 A 
ATOM      3  C   UNL     1       4.648   5.383  18.444  0.00  0.00    +0.000 A 
ATOM      4  C   UNL     1       4.772   4.612  17.293  0.00  0.00    +0.000 A 
ATOM      5  C   UNL     1       3.975   3.484  17.132  0.00  0.00    +0.000 A 
ATOM      6  C   UNL     1       3.068   3.123  18.141  0.00  0.00    +0.000 A 
ENDROOT
BRANCH   1   8
ATOM      7  C   UNL     1       0.766   4.209  20.482  0.00  0.00    +0.000 C 
ATOM      8  N   UNL     1       2.029   3.494  20.330  0.00  0.00    +0.000 N 
ATOM      9  C   UNL     1       2.509   2.747  21.488  0.00  0.00    +0.000 C 
ENDBRANCH   1   8
BRANCH   4  10
ATOM     10  C   UNL     1       5.754   4.968  16.248  0.00  0.00    +0.000 C 
ATOM     11  N   UNL     1       5.897   4.243  15.185  0.00  0.00    +0.000 NA
BRANCH  11  12
ATOM     12  C   UNL     1       6.801   4.708  14.295  0.00  0.00    +0.000 A 
ATOM     13  N   UNL     1       7.835   5.520  14.396  0.00  0.00    +0.000 NA
ATOM     14  N   UNL     1       8.391   5.680  13.144  0.00  0.00    +0.000 NA
ATOM     15  C   UNL     1       7.684   4.960  12.307  0.00  0.00    +0.000 A 
ATOM     16  N   UNL     1       6.691   4.327  12.984  0.00  0.00    +0.000 N 
ATOM     17  H   UNL     1       5.986   3.707  12.622  0.00  0.00    +0.000 HD
ENDBRANCH  11  12
ENDBRANCH   4  10
TORSDOF 3
ENDMDL
MODEL 5
REMARK VINA RESULT:      -6.1      0.282      1.491
REMARK  Name = 
REMARK  5 active torsions:
REMARK  status: ('A' for Active; 'I' for Inactive)
REMARK    1  A    between atoms: C_1  and  N_2
REMARK    2  A    between atoms: N_2  and  C_3
REMARK    3  A    between atoms: N_2  and  C_4
REMARK    4  A    between atoms: C_7  and  C_8
REMARK    5  A    between atoms: N_9  and  C_10
REMARK                            x       y       z     vdW  Elec       q    Type
REMARK                         _______ _______ _______ _____ _____    ______ ____
ROOT
ATOM      1  C   UNL     1       2.852   3.790  19.206  0.00  0.00    +0.000 A 
ATOM      2  C   UNL     1       3.826   2.909  18.700  0.00  0.00    +0.000 A 
ATOM      3  C   UNL     1       4.675   3.261  17.644  0.00  0.00    +0.000 A 
ATOM      4  C   UNL     1       4.585   4.525  17.071  0.00  0.00    +0.000 A 
ATOM      5  C   UNL     1       3.656   5.437  17.560  0.00  0.00    +0.000 A 
ATOM      6  C   UNL     1       2.806   5.066  18.614  0.00  0.00    +0.000 A 
ENDROOT
BRANCH   1   8
ATOM      7  C   UNL     1       0.715   4.104  20.414  0.00  0.00    +0.000 C 
ATOM      8  N   UNL     1       1.998   3.428  20.249  0.00  0.00    +0.000 N 
ATOM      9  C   UNL     1       2.540   2.745  21.419  0.00  0.00    +0.000 C 
ENDBRANCH   1   8
BRANCH   4  10
ATOM     10  C   UNL     1       5.451   4.903  15.935  0.00  0.00    +0.000 C 
ATOM     11  N   UNL     1       5.991   4.005  15.174  0.00  0.00    +0.000 NA
BRANCH  11  12
ATOM     12  C   UNL     1       6.725   4.492  14.150  0.00  0.00    +0.000 A 
ATOM     13  N   UNL     1       7.616   5.460  14.056  0.00  0.00    +0.000 NA
ATOM     14  N   UNL     1       8.028   5.551  12.744  0.00  0.00    +0.000 NA
ATOM     15  C   UNL     1       7.380   4.635  12.065  0.00  0.00    +0.000 A 
ATOM     16  N   UNL     1       6.567   3.943  12.906  0.00  0.00    +0.000 N 
ATOM     17  H   UNL     1       5.945   3.183  12.687  0.00  0.00    +0.000 HD
ENDBRANCH  11  12
ENDBRANCH   4  10
TORSDOF 3
ENDMDL
MODEL 6
REMARK VINA RESULT:      -6.0      3.528      4.535
REMARK  Name = 
REMARK  5 active torsions:
REMARK  status: ('A' for Active; 'I' for Inactive)
REMARK    1  A    between atoms: C_1  and  N_2
REMARK    2  A    between atoms: N_2  and  C_3
REMARK    3  A    between atoms: N_2  and  C_4
REMARK    4  A    between atoms: C_7  and  C_8
REMARK    5  A    between atoms: N_9  and  C_10
REMARK                            x       y       z     vdW  Elec       q    Type
REMARK                         _______ _______ _______ _____ _____    ______ ____
ROOT
ATOM      1  C   UNL     1       1.263   8.743  19.779  0.00  0.00    +0.000 A 
ATOM      2  C   UNL     1       1.857   7.560  20.257  0.00  0.00    +0.000 A 
ATOM      3  C   UNL     1       2.751   6.808  19.485  0.00  0.00    +0.000 A 
ATOM      4  C   UNL     1       3.092   7.232  18.205  0.00  0.00    +0.000 A 
ATOM      5  C   UNL     1       2.550   8.412  17.705  0.00  0.00    +0.000 A 
ATOM      6  C   UNL     1       1.650   9.151  18.488  0.00  0.00    +0.000 A 
ENDROOT
BRANCH   1   8
ATOM      7  C   UNL     1       0.382  10.939  20.501  0.00  0.00    +0.000 C 
ATOM      8  N   UNL     1       0.362   9.481  20.547  0.00  0.00    +0.000 N 
ATOM      9  C   UNL     1      -0.261   8.865  21.715  0.00  0.00    +0.000 C 
ENDBRANCH   1   8
BRANCH   4  10
ATOM     10  C   UNL     1       4.008   6.435  17.364  0.00  0.00    +0.000 C 
ATOM     11  N   UNL     1       5.237   6.798  17.178  0.00  0.00    +0.000 NA
BRANCH  11  12
ATOM     12  C   UNL     1       5.973   5.955  16.422  0.00  0.00    +0.000 A 
ATOM     13  N   UNL     1       7.251   5.913  16.096  0.00  0.00    +0.000 NA
ATOM     14  N   UNL     1       7.454   4.839  15.256  0.00  0.00    +0.000 NA
ATOM     15  C   UNL     1       6.296   4.248  15.089  0.00  0.00    +0.000 A 
ATOM     16  N   UNL     1       5.348   4.903  15.809  0.00  0.00    +0.000 N 
ATOM     17  H   UNL     1       4.366   4.693  15.885  0.00  0.00    +0.000 HD
ENDBRANCH  11  12
ENDBRANCH   4  10
TORSDOF 3
ENDMDL
MODEL 7
REMARK VINA RESULT:      -6.0      7.394      9.069
REMARK  Name = 
REMARK  5 active torsions:
REMARK  status: ('A' for Active; 'I' for Inactive)
REMARK    1  A    between atoms: C_1  and  N_2
REMARK    2  A    between atoms: N_2  and  C_3
REMARK    3  A    between atoms: N_2  and  C_4
REMARK    4  A    between atoms: C_7  and  C_8
REMARK    5  A    between atoms: N_9  and  C_10
REMARK                            x       y       z     vdW  Elec       q    Type
REMARK                         _______ _______ _______ _____ _____    ______ ____
ROOT
ATOM      1  C   UNL     1       9.720  12.678  18.965  0.00  0.00    +0.000 A 
ATOM      2  C   UNL     1      10.033  11.694  19.920  0.00  0.00    +0.000 A 
ATOM      3  C   UNL     1       9.623  10.362  19.784  0.00  0.00    +0.000 A 
ATOM      4  C   UNL     1       8.895   9.970  18.665  0.00  0.00    +0.000 A 
ATOM      5  C   UNL     1       8.590  10.905  17.682  0.00  0.00    +0.000 A 
ATOM      6  C   UNL     1       9.001  12.238  17.837  0.00  0.00    +0.000 A 
ENDROOT
BRANCH   1   8
ATOM      7  C   UNL     1       9.720  15.007  18.128  0.00  0.00    +0.000 C 
ATOM      8  N   UNL     1      10.118  14.007  19.114  0.00  0.00    +0.000 N 
ATOM      9  C   UNL     1      11.277  14.323  19.944  0.00  0.00    +0.000 C 
ENDBRANCH   1   8
BRANCH   4  10
ATOM     10  C   UNL     1       8.428   8.576  18.519  0.00  0.00    +0.000 C 
ATOM     11  N   UNL     1       7.826   8.178  17.443  0.00  0.00    +0.000 NA
BRANCH  11  12
ATOM     12  C   UNL     1       7.490   6.869  17.428  0.00  0.00    +0.000 A 
ATOM     13  N   UNL     1       7.239   5.990  18.378  0.00  0.00    +0.000 NA
ATOM     14  N   UNL     1       6.981   4.770  17.789  0.00  0.00    +0.000 NA
ATOM     15  C   UNL     1       7.079   4.934  16.491  0.00  0.00    +0.000 A 
ATOM     16  N   UNL     1       7.382   6.231  16.223  0.00  0.00    +0.000 N 
ATOM     17  H   UNL     1       7.523   6.666  15.326  0.00  0.00    +0.000 HD
ENDBRANCH  11  12
ENDBRANCH   4  10
TORSDOF 3
ENDMDL
MODEL 8
REMARK VINA RESULT:      -5.9      4.533      8.195
REMARK  Name = 
REMARK  5 active torsions:
REMARK  status: ('A' for Active; 'I' for Inactive)
REMARK    1  A    between atoms: C_1  and  N_2
REMARK    2  A    between atoms: N_2  and  C_3
REMARK    3  A    between atoms: N_2  and  C_4
REMARK    4  A    between atoms: C_7  and  C_8
REMARK    5  A    between atoms: N_9  and  C_10
REMARK                            x       y       z     vdW  Elec       q    Type
REMARK                         _______ _______ _______ _____ _____    ______ ____
ROOT
ATOM      1  C   UNL     1       3.210   4.659  18.463  0.00  0.00    +0.000 A 
ATOM      2  C   UNL     1       3.305   5.941  17.893  0.00  0.00    +0.000 A 
ATOM      3  C   UNL     1       2.788   7.080  18.524  0.00  0.00    +0.000 A 
ATOM      4  C   UNL     1       2.171   6.967  19.766  0.00  0.00    +0.000 A 
ATOM      5  C   UNL     1       2.083   5.722  20.379  0.00  0.00    +0.000 A 
ATOM      6  C   UNL     1       2.599   4.588  19.730  0.00  0.00    +0.000 A 
ENDROOT
BRANCH   1   8
ATOM      7  C   UNL     1       3.612   2.217  18.461  0.00  0.00    +0.000 C 
ATOM      8  N   UNL     1       3.714   3.526  17.823  0.00  0.00    +0.000 N 
ATOM      9  C   UNL     1       4.727   3.677  16.784  0.00  0.00    +0.000 C 
ENDBRANCH   1   8
BRANCH   4  10
ATOM     10  C   UNL     1       1.593   8.152  20.432  0.00  0.00    +0.000 C 
ATOM     11  N   UNL     1       0.705   8.031  21.367  0.00  0.00    +0.000 NA
BRANCH  11  12
ATOM     12  C   UNL     1       0.293   9.194  21.916  0.00  0.00    +0.000 A 
ATOM     13  N   UNL     1       0.679  10.447  21.776  0.00  0.00    +0.000 NA
ATOM     14  N   UNL     1      -0.075  11.235  22.620  0.00  0.00    +0.000 NA
ATOM     15  C   UNL     1      -0.905  10.445  23.256  0.00  0.00    +0.000 A 
ATOM     16  N   UNL     1      -0.719   9.166  22.838  0.00  0.00    +0.000 N 
ATOM     17  H   UNL     1      -1.201   8.335  23.138  0.00  0.00    +0.000 HD
ENDBRANCH  11  12
ENDBRANCH   4  10
TORSDOF 3
ENDMDL
MODEL 9
REMARK VINA RESULT:      -5.9      4.506      8.131
REMARK  Name = 
REMARK  5 active torsions:
REMARK  status: ('A' for Active; 'I' for Inactive)
REMARK    1  A    between atoms: C_1  and  N_2
REMARK    2  A    between atoms: N_2  and  C_3
REMARK    3  A    between atoms: N_2  and  C_4
REMARK    4  A    between atoms: C_7  and  C_8
REMARK    5  A    between atoms: N_9  and  C_10
REMARK                            x       y       z     vdW  Elec       q    Type
REMARK                         _______ _______ _______ _____ _____    ______ ____
ROOT
ATOM      1  C   UNL     1       3.126   4.278  18.847  0.00  0.00    +0.000 A 
ATOM      2  C   UNL     1       2.186   3.992  19.853  0.00  0.00    +0.000 A 
ATOM      3  C   UNL     1       1.558   4.999  20.598  0.00  0.00    +0.000 A 
ATOM      4  C   UNL     1       1.845   6.335  20.340  0.00  0.00    +0.000 A 
ATOM      5  C   UNL     1       2.746   6.663  19.333  0.00  0.00    +0.000 A 
ATOM      6  C   UNL     1       3.373   5.642  18.601  0.00  0.00    +0.000 A 
ENDROOT
BRANCH   1   8
ATOM      7  C   UNL     1       4.540   3.603  16.931  0.00  0.00    +0.000 C 
ATOM      8  N   UNL     1       3.759   3.270  18.119  0.00  0.00    +0.000 N 
ATOM      9  C   UNL     1       3.288   1.894  18.234  0.00  0.00    +0.000 C 
ENDBRANCH   1   8
BRANCH   4  10
ATOM     10  C   UNL     1       1.216   7.409  21.136  0.00  0.00    +0.000 C 
ATOM     11  N   UNL     1       1.315   8.652  20.785  0.00  0.00    +0.000 NA
BRANCH  11  12
ATOM     12  C   UNL     1       0.658   9.524  21.580  0.00  0.00    +0.000 A 
ATOM     13  N   UNL     1       0.775  10.820  21.793  0.00  0.00    +0.000 NA
ATOM     14  N   UNL     1      -0.144  11.192  22.751  0.00  0.00    +0.000 NA
ATOM     15  C   UNL     1      -0.804  10.114  23.101  0.00  0.00    +0.000 A 
ATOM     16  N   UNL     1      -0.345   9.054  22.385  0.00  0.00    +0.000 N 
ATOM     17  H   UNL     1      -0.648   8.095  22.427  0.00  0.00    +0.000 HD
ENDBRANCH  11  12
ENDBRANCH   4  10
TORSDOF 3
ENDMDL
