MODEL 1
REMARK VINA RESULT:      -8.9      0.000      0.000
REMARK  Name = 
REMARK  8 active torsions:
REMARK  status: ('A' for Active; 'I' for Inactive)
REMARK    1  A    between atoms: C_1  and  O_2
REMARK    2  A    between atoms: O_2  and  C_3
REMARK    3  A    between atoms: C_5  and  C_6
REMARK    4  A    between atoms: C_8  and  C_9
REMARK    5  A    between atoms: C_9  and  C_11
REMARK    6  A    between atoms: N_18  and  C_19
REMARK    7  A    between atoms: C_23  and  N_24
REMARK    8  A    between atoms: C_27  and  C_28
REMARK                            x       y       z     vdW  Elec       q    Type
REMARK                         _______ _______ _______ _____ _____    ______ ____
ROOT
ATOM      1  C   UNL     1       2.279   6.449  19.809  0.00  0.00    +0.000 A 
ATOM      2  N   UNL     1       3.341   5.926  19.120  0.00  0.00    +0.000 NA
ATOM      3  C   UNL     1       3.514   4.725  19.640  0.00  0.00    +0.000 A 
ATOM      4  N   UNL     1       2.562   4.532  20.600  0.00  0.00    +0.000 N 
ATOM      5  C   UNL     1       2.292   3.379  21.416  0.00  0.00    +0.000 C 
ATOM      6  N   UNL     1       1.748   5.599  20.700  0.00  0.00    +0.000 NA
ENDROOT
BRANCH   1   9
ATOM      7  C   UNL     1       1.020   9.912  20.589  0.00  0.00    +0.000 A 
ATOM      8  C   UNL     1       1.328   8.550  20.705  0.00  0.00    +0.000 A 
ATOM      9  C   UNL     1       1.840   7.822  19.625  0.00  0.00    +0.000 A 
ATOM     10  C   UNL     1       1.978   8.451  18.387  0.00  0.00    +0.000 A 
ATOM     11  C   UNL     1       1.613   9.789  18.235  0.00  0.00    +0.000 A 
ATOM     12  C   UNL     1       1.137  10.533  19.333  0.00  0.00    +0.000 A 
BRANCH  12  13
ATOM     13  N   UNL     1       0.801  11.899  19.111  0.00  0.00    +0.000 N 
ATOM     14  C   UNL     1      -0.403  12.437  18.714  0.00  0.00    +0.000 A 
ATOM     15  N   UNL     1      -0.359  13.748  18.595  0.00  0.00    +0.000 NA
ATOM     16  C   UNL     1       0.924  14.096  18.918  0.00  0.00    +0.000 A 
ATOM     17  C   UNL     1       1.386  15.498  18.837  0.00  0.00    +0.000 C 
ATOM     18  C   UNL     1       1.644  12.980  19.277  0.00  0.00    +0.000 A 
ENDBRANCH  12  13
BRANCH   7  20
ATOM     19  C   UNL     1      -0.080   9.843  22.687  0.00  0.00    +0.000 C 
ATOM     20  O   UNL     1       0.530  10.621  21.656  0.00  0.00    +0.000 OA
ENDBRANCH   7  20
ENDBRANCH   1   9
BRANCH   3  21
ATOM     21  C   UNL     1       4.576   3.828  19.241  0.00  0.00    +0.000 C 
ATOM     22  O   UNL     1       4.903   2.831  19.883  0.00  0.00    +0.000 OA
BRANCH  21  23
ATOM     23  C   UNL     1       5.324   4.136  17.986  0.00  0.00    +0.000 A 
ATOM     24  C   UNL     1       4.772   3.859  16.723  0.00  0.00    +0.000 A 
ATOM     25  C   UNL     1       5.492   4.146  15.566  0.00  0.00    +0.000 A 
ATOM     26  C   UNL     1       6.763   4.704  15.668  0.00  0.00    +0.000 A 
ATOM     27  F   UNL     1       7.451   4.982  14.556  0.00  0.00    +0.000 F 
ATOM     28  C   UNL     1       7.328   4.969  16.911  0.00  0.00    +0.000 A 
ATOM     29  C   UNL     1       6.613   4.679  18.076  0.00  0.00    +0.000 A 
ENDBRANCH  21  23
ENDBRANCH   3  21
TORSDOF 5
ENDMDL
MODEL 2
REMARK VINA RESULT:      -8.7      6.555      7.664
REMARK  Name = 
REMARK  8 active torsions:
REMARK  status: ('A' for Active; 'I' for Inactive)
REMARK    1  A    between atoms: C_1  and  O_2
REMARK    2  A    between atoms: O_2  and  C_3
REMARK    3  A    between atoms: C_5  and  C_6
REMARK    4  A    between atoms: C_8  and  C_9
REMARK    5  A    between atoms: C_9  and  C_11
REMARK    6  A    between atoms: N_18  and  C_19
REMARK    7  A    between atoms: C_23  and  N_24
REMARK    8  A    between atoms: C_27  and  C_28
REMARK                            x       y       z     vdW  Elec       q    Type
REMARK                         _______ _______ _______ _____ _____    ______ ____
ROOT
ATOM      1  C   UNL     1       7.941   8.564  18.074  0.00  0.00    +0.000 A 
ATOM      2  N   UNL     1       6.964   8.277  17.157  0.00  0.00    +0.000 NA
ATOM      3  C   UNL     1       6.856   6.962  17.189  0.00  0.00    +0.000 A 
ATOM      4  N   UNL     1       7.732   6.482  18.120  0.00  0.00    +0.000 N 
ATOM      5  C   UNL     1       7.961   5.133  18.567  0.00  0.00    +0.000 C 
ATOM      6  N   UNL     1       8.405   7.483  18.717  0.00  0.00    +0.000 NA
ENDROOT
BRANCH   1   9
ATOM      7  C   UNL     1      10.030  11.426  19.351  0.00  0.00    +0.000 A 
ATOM      8  C   UNL     1       9.419  10.170  19.239  0.00  0.00    +0.000 A 
ATOM      9  C   UNL     1       8.456   9.910  18.256  0.00  0.00    +0.000 A 
ATOM     10  C   UNL     1       8.045  10.947  17.420  0.00  0.00    +0.000 A 
ATOM     11  C   UNL     1       8.592  12.223  17.561  0.00  0.00    +0.000 A 
ATOM     12  C   UNL     1       9.592  12.473  18.522  0.00  0.00    +0.000 A 
BRANCH  12  13
ATOM     13  N   UNL     1      10.121  13.793  18.599  0.00  0.00    +0.000 N 
ATOM     14  C   UNL     1       9.973  14.723  19.604  0.00  0.00    +0.000 A 
ATOM     15  N   UNL     1      10.591  15.857  19.342  0.00  0.00    +0.000 NA
ATOM     16  C   UNL     1      11.167  15.678  18.114  0.00  0.00    +0.000 A 
ATOM     17  C   UNL     1      11.905  16.768  17.442  0.00  0.00    +0.000 C 
ATOM     18  C   UNL     1      10.924  14.403  17.655  0.00  0.00    +0.000 A 
ENDBRANCH  12  13
BRANCH   7  20
ATOM     19  C   UNL     1      12.327  11.750  19.835  0.00  0.00    +0.000 C 
ATOM     20  O   UNL     1      10.982  11.668  20.309  0.00  0.00    +0.000 OA
ENDBRANCH   7  20
ENDBRANCH   1   9
BRANCH   3  21
ATOM     21  C   UNL     1       5.966   6.213  16.329  0.00  0.00    +0.000 C 
ATOM     22  O   UNL     1       6.200   5.980  15.144  0.00  0.00    +0.000 OA
BRANCH  21  23
ATOM     23  C   UNL     1       4.689   5.703  16.911  0.00  0.00    +0.000 A 
ATOM     24  C   UNL     1       3.785   6.567  17.553  0.00  0.00    +0.000 A 
ATOM     25  C   UNL     1       2.604   6.068  18.096  0.00  0.00    +0.000 A 
ATOM     26  C   UNL     1       2.327   4.707  18.004  0.00  0.00    +0.000 A 
ATOM     27  F   UNL     1       1.190   4.230  18.523  0.00  0.00    +0.000 F 
ATOM     28  C   UNL     1       3.219   3.838  17.385  0.00  0.00    +0.000 A 
ATOM     29  C   UNL     1       4.408   4.332  16.841  0.00  0.00    +0.000 A 
ENDBRANCH  21  23
ENDBRANCH   3  21
TORSDOF 5
ENDMDL
MODEL 3
REMARK VINA RESULT:      -8.7      1.485      1.885
REMARK  Name = 
REMARK  8 active torsions:
REMARK  status: ('A' for Active; 'I' for Inactive)
REMARK    1  A    between atoms: C_1  and  O_2
REMARK    2  A    between atoms: O_2  and  C_3
REMARK    3  A    between atoms: C_5  and  C_6
REMARK    4  A    between atoms: C_8  and  C_9
REMARK    5  A    between atoms: C_9  and  C_11
REMARK    6  A    between atoms: N_18  and  C_19
REMARK    7  A    between atoms: C_23  and  N_24
REMARK    8  A    between atoms: C_27  and  C_28
REMARK                            x       y       z     vdW  Elec       q    Type
REMARK                         _______ _______ _______ _____ _____    ______ ____
ROOT
ATOM      1  C   UNL     1       3.294   6.266  18.747  0.00  0.00    +0.000 A 
ATOM      2  N   UNL     1       4.427   6.258  17.978  0.00  0.00    +0.000 NA
ATOM      3  C   UNL     1       4.990   5.091  18.230  0.00  0.00    +0.000 A 
ATOM      4  N   UNL     1       4.197   4.414  19.112  0.00  0.00    +0.000 N 
ATOM      5  C   UNL     1       4.340   3.090  19.658  0.00  0.00    +0.000 C 
ATOM      6  N   UNL     1       3.100   5.127  19.427  0.00  0.00    +0.000 NA
ENDROOT
BRANCH   1   9
ATOM      7  C   UNL     1       1.183   8.998  20.253  0.00  0.00    +0.000 A 
ATOM      8  C   UNL     1       1.896   7.803  20.092  0.00  0.00    +0.000 A 
ATOM      9  C   UNL     1       2.444   7.440  18.856  0.00  0.00    +0.000 A 
ATOM     10  C   UNL     1       2.210   8.251  17.745  0.00  0.00    +0.000 A 
ATOM     11  C   UNL     1       1.444   9.411  17.872  0.00  0.00    +0.000 A 
ATOM     12  C   UNL     1       0.929   9.798  19.125  0.00  0.00    +0.000 A 
BRANCH  12  13
ATOM     13  N   UNL     1       0.172  11.003  19.187  0.00  0.00    +0.000 N 
ATOM     14  C   UNL     1      -1.194  11.166  19.139  0.00  0.00    +0.000 A 
ATOM     15  N   UNL     1      -1.559  12.430  19.210  0.00  0.00    +0.000 NA
ATOM     16  C   UNL     1      -0.391  13.137  19.302  0.00  0.00    +0.000 A 
ATOM     17  C   UNL     1      -0.383  14.614  19.335  0.00  0.00    +0.000 C 
ATOM     18  C   UNL     1       0.685  12.277  19.329  0.00  0.00    +0.000 A 
ENDBRANCH  12  13
BRANCH   7  20
ATOM     19  C   UNL     1      -0.473   8.597  21.900  0.00  0.00    +0.000 C 
ATOM     20  O   UNL     1       0.661   9.352  21.471  0.00  0.00    +0.000 OA
ENDBRANCH   7  20
ENDBRANCH   1   9
BRANCH   3  21
ATOM     21  C   UNL     1       6.255   4.675  17.665  0.00  0.00    +0.000 C 
ATOM     22  O   UNL     1       7.262   4.456  18.336  0.00  0.00    +0.000 OA
BRANCH  21  23
ATOM     23  C   UNL     1       6.344   4.514  16.183  0.00  0.00    +0.000 A 
ATOM     24  C   UNL     1       5.419   3.724  15.479  0.00  0.00    +0.000 A 
ATOM     25  C   UNL     1       5.528   3.580  14.098  0.00  0.00    +0.000 A 
ATOM     26  C   UNL     1       6.562   4.220  13.420  0.00  0.00    +0.000 A 
ATOM     27  F   UNL     1       6.663   4.083  12.094  0.00  0.00    +0.000 F 
ATOM     28  C   UNL     1       7.494   4.992  14.106  0.00  0.00    +0.000 A 
ATOM     29  C   UNL     1       7.393   5.137  15.492  0.00  0.00    +0.000 A 
ENDBRANCH  21  23
ENDBRANCH   3  21
TORSDOF 5
ENDMDL
MODEL 4
REMARK VINA RESULT:      -8.7      1.266      1.731
REMARK  Name = 
REMARK  8 active torsions:
REMARK  status: ('A' for Active; 'I' for Inactive)
REMARK    1  A    between atoms: C_1  and  O_2
REMARK    2  A    between atoms: O_2  and  C_3
REMARK    3  A    between atoms: C_5  and  C_6
REMARK    4  A    between atoms: C_8  and  C_9
REMARK    5  A    between atoms: C_9  and  C_11
REMARK    6  A    between atoms: N_18  and  C_19
REMARK    7  A    between atoms: C_23  and  N_24
REMARK    8  A    between atoms: C_27  and  C_28
REMARK                            x       y       z     vdW  Elec       q    Type
REMARK                         _______ _______ _______ _____ _____    ______ ____
ROOT
ATOM      1  C   UNL     1       2.989   6.411  18.953  0.00  0.00    +0.000 A 
ATOM      2  N   UNL     1       4.182   6.351  18.282  0.00  0.00    +0.000 NA
ATOM      3  C   UNL     1       4.649   5.144  18.545  0.00  0.00    +0.000 A 
ATOM      4  N   UNL     1       3.743   4.497  19.335  0.00  0.00    +0.000 N 
ATOM      5  C   UNL     1       3.758   3.153  19.850  0.00  0.00    +0.000 C 
ATOM      6  N   UNL     1       2.668   5.269  19.578  0.00  0.00    +0.000 NA
ENDROOT
BRANCH   1   9
ATOM      7  C   UNL     1       1.061   9.317  20.376  0.00  0.00    +0.000 A 
ATOM      8  C   UNL     1       1.706   8.079  20.254  0.00  0.00    +0.000 A 
ATOM      9  C   UNL     1       2.205   7.632  19.025  0.00  0.00    +0.000 A 
ATOM     10  C   UNL     1       1.988   8.405  17.884  0.00  0.00    +0.000 A 
ATOM     11  C   UNL     1       1.289   9.609  17.974  0.00  0.00    +0.000 A 
ATOM     12  C   UNL     1       0.824  10.079  19.218  0.00  0.00    +0.000 A 
BRANCH  12  13
ATOM     13  N   UNL     1       0.134  11.325  19.240  0.00  0.00    +0.000 N 
ATOM     14  C   UNL     1      -1.214  11.561  19.392  0.00  0.00    +0.000 A 
ATOM     15  N   UNL     1      -1.513  12.842  19.353  0.00  0.00    +0.000 NA
ATOM     16  C   UNL     1      -0.321  13.485  19.161  0.00  0.00    +0.000 A 
ATOM     17  C   UNL     1      -0.253  14.952  18.995  0.00  0.00    +0.000 C 
ATOM     18  C   UNL     1       0.711  12.574  19.127  0.00  0.00    +0.000 A 
ENDBRANCH  12  13
BRANCH   7  20
ATOM     19  C   UNL     1      -0.398   8.921  22.200  0.00  0.00    +0.000 C 
ATOM     20  O   UNL     1       0.587   9.753  21.587  0.00  0.00    +0.000 OA
ENDBRANCH   7  20
ENDBRANCH   1   9
BRANCH   3  21
ATOM     21  C   UNL     1       5.930   4.665  18.076  0.00  0.00    +0.000 C 
ATOM     22  O   UNL     1       6.862   4.372  18.822  0.00  0.00    +0.000 OA
BRANCH  21  23
ATOM     23  C   UNL     1       6.135   4.529  16.603  0.00  0.00    +0.000 A 
ATOM     24  C   UNL     1       7.262   5.080  15.970  0.00  0.00    +0.000 A 
ATOM     25  C   UNL     1       7.428   4.949  14.593  0.00  0.00    +0.000 A 
ATOM     26  C   UNL     1       6.465   4.274  13.847  0.00  0.00    +0.000 A 
ATOM     27  F   UNL     1       6.628   4.146  12.526  0.00  0.00    +0.000 F 
ATOM     28  C   UNL     1       5.336   3.738  14.458  0.00  0.00    +0.000 A 
ATOM     29  C   UNL     1       5.163   3.869  15.838  0.00  0.00    +0.000 A 
ENDBRANCH  21  23
ENDBRANCH   3  21
TORSDOF 5
ENDMDL
MODEL 5
REMARK VINA RESULT:      -8.6      1.724      2.511
REMARK  Name = 
REMARK  8 active torsions:
REMARK  status: ('A' for Active; 'I' for Inactive)
REMARK    1  A    between atoms: C_1  and  O_2
REMARK    2  A    between atoms: O_2  and  C_3
REMARK    3  A    between atoms: C_5  and  C_6
REMARK    4  A    between atoms: C_8  and  C_9
REMARK    5  A    between atoms: C_9  and  C_11
REMARK    6  A    between atoms: N_18  and  C_19
REMARK    7  A    between atoms: C_23  and  N_24
REMARK    8  A    between atoms: C_27  and  C_28
REMARK                            x       y       z     vdW  Elec       q    Type
REMARK                         _______ _______ _______ _____ _____    ______ ____
ROOT
ATOM      1  C   UNL     1       3.398   6.123  18.624  0.00  0.00    +0.000 A 
ATOM      2  N   UNL     1       4.543   6.200  17.877  0.00  0.00    +0.000 NA
ATOM      3  C   UNL     1       5.109   5.015  18.016  0.00  0.00    +0.000 A 
ATOM      4  N   UNL     1       4.306   4.247  18.810  0.00  0.00    +0.000 N 
ATOM      5  C   UNL     1       4.448   2.874  19.218  0.00  0.00    +0.000 C 
ATOM      6  N   UNL     1       3.200   4.918  19.179  0.00  0.00    +0.000 NA
ENDROOT
BRANCH   1   9
ATOM      7  C   UNL     1       1.144   8.604  20.344  0.00  0.00    +0.000 A 
ATOM      8  C   UNL     1       1.873   7.441  20.060  0.00  0.00    +0.000 A 
ATOM      9  C   UNL     1       2.538   7.275  18.839  0.00  0.00    +0.000 A 
ATOM     10  C   UNL     1       2.411   8.259  17.858  0.00  0.00    +0.000 A 
ATOM     11  C   UNL     1       1.635   9.393  18.098  0.00  0.00    +0.000 A 
ATOM     12  C   UNL     1       0.999   9.579  19.342  0.00  0.00    +0.000 A 
BRANCH  12  13
ATOM     13  N   UNL     1       0.238  10.769  19.525  0.00  0.00    +0.000 N 
ATOM     14  C   UNL     1       0.684  12.052  19.748  0.00  0.00    +0.000 A 
ATOM     15  N   UNL     1      -0.300  12.916  19.885  0.00  0.00    +0.000 NA
ATOM     16  C   UNL     1      -1.446  12.180  19.755  0.00  0.00    +0.000 A 
ATOM     17  C   UNL     1      -2.781  12.794  19.917  0.00  0.00    +0.000 C 
ATOM     18  C   UNL     1      -1.139  10.863  19.495  0.00  0.00    +0.000 A 
ENDBRANCH  12  13
BRANCH   7  20
ATOM     19  C   UNL     1       1.308   9.285  22.607  0.00  0.00    +0.000 C 
ATOM     20  O   UNL     1       0.506   8.763  21.547  0.00  0.00    +0.000 OA
ENDBRANCH   7  20
ENDBRANCH   1   9
BRANCH   3  21
ATOM     21  C   UNL     1       6.385   4.667  17.432  0.00  0.00    +0.000 C 
ATOM     22  O   UNL     1       7.414   4.510  18.086  0.00  0.00    +0.000 OA
BRANCH  21  23
ATOM     23  C   UNL     1       6.458   4.497  15.950  0.00  0.00    +0.000 A 
ATOM     24  C   UNL     1       7.468   5.118  15.195  0.00  0.00    +0.000 A 
ATOM     25  C   UNL     1       7.510   4.954  13.812  0.00  0.00    +0.000 A 
ATOM     26  C   UNL     1       6.543   4.175  13.183  0.00  0.00    +0.000 A 
ATOM     27  F   UNL     1       6.588   4.016  11.856  0.00  0.00    +0.000 F 
ATOM     28  C   UNL     1       5.529   3.568  13.916  0.00  0.00    +0.000 A 
ATOM     29  C   UNL     1       5.478   3.732  15.302  0.00  0.00    +0.000 A 
ENDBRANCH  21  23
ENDBRANCH   3  21
TORSDOF 5
ENDMDL
MODEL 6
REMARK VINA RESULT:      -8.6      0.847      1.054
REMARK  Name = 
REMARK  8 active torsions:
REMARK  status: ('A' for Active; 'I' for Inactive)
REMARK    1  A    between atoms: C_1  and  O_2
REMARK    2  A    between atoms: O_2  and  C_3
REMARK    3  A    between atoms: C_5  and  C_6
REMARK    4  A    between atoms: C_8  and  C_9
REMARK    5  A    between atoms: C_9  and  C_11
REMARK    6  A    between atoms: N_18  and  C_19
REMARK    7  A    between atoms: C_23  and  N_24
REMARK    8  A    between atoms: C_27  and  C_28
REMARK                            x       y       z     vdW  Elec       q    Type
REMARK                         _______ _______ _______ _____ _____    ______ ____
ROOT
ATOM      1  C   UNL     1       2.227   6.302  20.042  0.00  0.00    +0.000 A 
ATOM      2  N   UNL     1       3.336   5.888  19.355  0.00  0.00    +0.000 NA
ATOM      3  C   UNL     1       3.497   4.628  19.715  0.00  0.00    +0.000 A 
ATOM      4  N   UNL     1       2.493   4.297  20.579  0.00  0.00    +0.000 N 
ATOM      5  C   UNL     1       2.193   3.040  21.212  0.00  0.00    +0.000 C 
ATOM      6  N   UNL     1       1.657   5.333  20.774  0.00  0.00    +0.000 NA
ENDROOT
BRANCH   1   9
ATOM      7  C   UNL     1       1.070   9.681  21.239  0.00  0.00    +0.000 A 
ATOM      8  C   UNL     1       1.382   8.316  21.206  0.00  0.00    +0.000 A 
ATOM      9  C   UNL     1       1.777   7.683  20.021  0.00  0.00    +0.000 A 
ATOM     10  C   UNL     1       1.789   8.416  18.834  0.00  0.00    +0.000 A 
ATOM     11  C   UNL     1       1.417   9.760  18.834  0.00  0.00    +0.000 A 
ATOM     12  C   UNL     1       1.060  10.407  20.034  0.00  0.00    +0.000 A 
BRANCH  12  13
ATOM     13  N   UNL     1       0.708  11.785  19.965  0.00  0.00    +0.000 N 
ATOM     14  C   UNL     1       1.513  12.867  19.686  0.00  0.00    +0.000 A 
ATOM     15  N   UNL     1       0.860  14.009  19.717  0.00  0.00    +0.000 NA
ATOM     16  C   UNL     1      -0.429  13.678  20.035  0.00  0.00    +0.000 A 
ATOM     17  C   UNL     1      -1.467  14.712  20.231  0.00  0.00    +0.000 C 
ATOM     18  C   UNL     1      -0.554  12.312  20.154  0.00  0.00    +0.000 A 
ENDBRANCH  12  13
BRANCH   7  20
ATOM     19  C   UNL     1      -0.353   9.653  23.133  0.00  0.00    +0.000 C 
ATOM     20  O   UNL     1       0.696  10.295  22.407  0.00  0.00    +0.000 OA
ENDBRANCH   7  20
ENDBRANCH   1   9
BRANCH   3  21
ATOM     21  C   UNL     1       4.596   3.803  19.264  0.00  0.00    +0.000 C 
ATOM     22  O   UNL     1       5.011   2.823  19.881  0.00  0.00    +0.000 OA
BRANCH  21  23
ATOM     23  C   UNL     1       5.271   4.168  17.983  0.00  0.00    +0.000 A 
ATOM     24  C   UNL     1       4.660   3.919  16.741  0.00  0.00    +0.000 A 
ATOM     25  C   UNL     1       5.312   4.259  15.559  0.00  0.00    +0.000 A 
ATOM     26  C   UNL     1       6.575   4.842  15.614  0.00  0.00    +0.000 A 
ATOM     27  F   UNL     1       7.198   5.172  14.477  0.00  0.00    +0.000 F 
ATOM     28  C   UNL     1       7.198   5.080  16.834  0.00  0.00    +0.000 A 
ATOM     29  C   UNL     1       6.551   4.737  18.024  0.00  0.00    +0.000 A 
ENDBRANCH  21  23
ENDBRANCH   3  21
TORSDOF 5
ENDMDL
MODEL 7
REMARK VINA RESULT:      -8.5      6.278      7.446
REMARK  Name = 
REMARK  8 active torsions:
REMARK  status: ('A' for Active; 'I' for Inactive)
REMARK    1  A    between atoms: C_1  and  O_2
REMARK    2  A    between atoms: O_2  and  C_3
REMARK    3  A    between atoms: C_5  and  C_6
REMARK    4  A    between atoms: C_8  and  C_9
REMARK    5  A    between atoms: C_9  and  C_11
REMARK    6  A    between atoms: N_18  and  C_19
REMARK    7  A    between atoms: C_23  and  N_24
REMARK    8  A    between atoms: C_27  and  C_28
REMARK                            x       y       z     vdW  Elec       q    Type
REMARK                         _______ _______ _______ _____ _____    ______ ____
ROOT
ATOM      1  C   UNL     1       7.914   8.332  18.064  0.00  0.00    +0.000 A 
ATOM      2  N   UNL     1       6.867   8.181  17.194  0.00  0.00    +0.000 NA
ATOM      3  C   UNL     1       6.664   6.877  17.143  0.00  0.00    +0.000 A 
ATOM      4  N   UNL     1       7.557   6.271  17.980  0.00  0.00    +0.000 N 
ATOM      5  C   UNL     1       7.714   4.881  18.317  0.00  0.00    +0.000 C 
ATOM      6  N   UNL     1       8.336   7.177  18.599  0.00  0.00    +0.000 NA
ENDROOT
BRANCH   1   9
ATOM      7  C   UNL     1       8.646  12.020  17.845  0.00  0.00    +0.000 A 
ATOM      8  C   UNL     1       8.161  10.739  17.549  0.00  0.00    +0.000 A 
ATOM      9  C   UNL     1       8.537   9.622  18.305  0.00  0.00    +0.000 A 
ATOM     10  C   UNL     1       9.471   9.779  19.329  0.00  0.00    +0.000 A 
ATOM     11  C   UNL     1      10.016  11.036  19.595  0.00  0.00    +0.000 A 
ATOM     12  C   UNL     1       9.607  12.167  18.862  0.00  0.00    +0.000 A 
BRANCH  12  13
ATOM     13  N   UNL     1      10.190  13.422  19.199  0.00  0.00    +0.000 N 
ATOM     14  C   UNL     1      11.172  14.122  18.535  0.00  0.00    +0.000 A 
ATOM     15  N   UNL     1      11.486  15.251  19.135  0.00  0.00    +0.000 NA
ATOM     16  C   UNL     1      10.687  15.304  20.245  0.00  0.00    +0.000 A 
ATOM     17  C   UNL     1      10.794  16.407  21.222  0.00  0.00    +0.000 C 
ATOM     18  C   UNL     1       9.854  14.208  20.284  0.00  0.00    +0.000 A 
ENDBRANCH  12  13
BRANCH   7  20
ATOM     19  C   UNL     1       7.146  13.840  17.617  0.00  0.00    +0.000 C 
ATOM     20  O   UNL     1       8.263  13.111  17.107  0.00  0.00    +0.000 OA
ENDBRANCH   7  20
ENDBRANCH   1   9
BRANCH   3  21
ATOM     21  C   UNL     1       5.673   6.256  16.293  0.00  0.00    +0.000 C 
ATOM     22  O   UNL     1       5.782   6.168  15.071  0.00  0.00    +0.000 OA
BRANCH  21  23
ATOM     23  C   UNL     1       4.445   5.700  16.934  0.00  0.00    +0.000 A 
ATOM     24  C   UNL     1       3.560   6.524  17.651  0.00  0.00    +0.000 A 
ATOM     25  C   UNL     1       2.426   5.981  18.250  0.00  0.00    +0.000 A 
ATOM     26  C   UNL     1       2.176   4.616  18.138  0.00  0.00    +0.000 A 
ATOM     27  F   UNL     1       1.084   4.098  18.709  0.00  0.00    +0.000 F 
ATOM     28  C   UNL     1       3.051   3.786  17.445  0.00  0.00    +0.000 A 
ATOM     29  C   UNL     1       4.193   4.324  16.846  0.00  0.00    +0.000 A 
ENDBRANCH  21  23
ENDBRANCH   3  21
TORSDOF 5
ENDMDL
MODEL 8
REMARK VINA RESULT:      -8.5      6.361      7.485
REMARK  Name = 
REMARK  8 active torsions:
REMARK  status: ('A' for Active; 'I' for Inactive)
REMARK    1  A    between atoms: C_1  and  O_2
REMARK    2  A    between atoms: O_2  and  C_3
REMARK    3  A    between atoms: C_5  and  C_6
REMARK    4  A    between atoms: C_8  and  C_9
REMARK    5  A    between atoms: C_9  and  C_11
REMARK    6  A    between atoms: N_18  and  C_19
REMARK    7  A    between atoms: C_23  and  N_24
REMARK    8  A    between atoms: C_27  and  C_28
REMARK                            x       y       z     vdW  Elec       q    Type
REMARK                         _______ _______ _______ _____ _____    ______ ____
ROOT
ATOM      1  C   UNL     1       7.927   8.395  18.098  0.00  0.00    +0.000 A 
ATOM      2  N   UNL     1       6.878   8.245  17.230  0.00  0.00    +0.000 NA
ATOM      3  C   UNL     1       6.680   6.941  17.173  0.00  0.00    +0.000 A 
ATOM      4  N   UNL     1       7.577   6.334  18.005  0.00  0.00    +0.000 N 
ATOM      5  C   UNL     1       7.739   4.943  18.335  0.00  0.00    +0.000 C 
ATOM      6  N   UNL     1       8.354   7.240  18.627  0.00  0.00    +0.000 NA
ENDROOT
BRANCH   1   9
ATOM      7  C   UNL     1       8.662  12.083  17.878  0.00  0.00    +0.000 A 
ATOM      8  C   UNL     1       8.182  10.801  17.579  0.00  0.00    +0.000 A 
ATOM      9  C   UNL     1       8.545   9.687  18.345  0.00  0.00    +0.000 A 
ATOM     10  C   UNL     1       9.462   9.848  19.383  0.00  0.00    +0.000 A 
ATOM     11  C   UNL     1      10.003  11.105  19.654  0.00  0.00    +0.000 A 
ATOM     12  C   UNL     1       9.606  12.234  18.909  0.00  0.00    +0.000 A 
BRANCH  12  13
ATOM     13  N   UNL     1      10.184  13.490  19.251  0.00  0.00    +0.000 N 
ATOM     14  C   UNL     1       9.935  14.282  20.349  0.00  0.00    +0.000 A 
ATOM     15  N   UNL     1      10.642  15.394  20.344  0.00  0.00    +0.000 NA
ATOM     16  C   UNL     1      11.386  15.343  19.197  0.00  0.00    +0.000 A 
ATOM     17  C   UNL     1      12.270  16.459  18.800  0.00  0.00    +0.000 C 
ATOM     18  C   UNL     1      11.149  14.163  18.528  0.00  0.00    +0.000 A 
ENDBRANCH  12  13
BRANCH   7  20
ATOM     19  C   UNL     1       7.134  13.870  17.587  0.00  0.00    +0.000 C 
ATOM     20  O   UNL     1       8.292  13.171  17.129  0.00  0.00    +0.000 OA
ENDBRANCH   7  20
ENDBRANCH   1   9
BRANCH   3  21
ATOM     21  C   UNL     1       5.688   6.321  16.322  0.00  0.00    +0.000 C 
ATOM     22  O   UNL     1       5.784   6.259  15.098  0.00  0.00    +0.000 OA
BRANCH  21  23
ATOM     23  C   UNL     1       4.476   5.733  16.966  0.00  0.00    +0.000 A 
ATOM     24  C   UNL     1       4.197   4.358  16.874  0.00  0.00    +0.000 A 
ATOM     25  C   UNL     1       3.055   3.833  17.475  0.00  0.00    +0.000 A 
ATOM     26  C   UNL     1       2.190   4.679  18.162  0.00  0.00    +0.000 A 
ATOM     27  F   UNL     1       1.097   4.172  18.742  0.00  0.00    +0.000 F 
ATOM     28  C   UNL     1       2.446   6.044  18.249  0.00  0.00    +0.000 A 
ATOM     29  C   UNL     1       3.587   6.577  17.645  0.00  0.00    +0.000 A 
ENDBRANCH  21  23
ENDBRANCH   3  21
TORSDOF 5
ENDMDL
MODEL 9
REMARK VINA RESULT:      -8.5      6.425      7.535
REMARK  Name = 
REMARK  8 active torsions:
REMARK  status: ('A' for Active; 'I' for Inactive)
REMARK    1  A    between atoms: C_1  and  O_2
REMARK    2  A    between atoms: O_2  and  C_3
REMARK    3  A    between atoms: C_5  and  C_6
REMARK    4  A    between atoms: C_8  and  C_9
REMARK    5  A    between atoms: C_9  and  C_11
REMARK    6  A    between atoms: N_18  and  C_19
REMARK    7  A    between atoms: C_23  and  N_24
REMARK    8  A    between atoms: C_27  and  C_28
REMARK                            x       y       z     vdW  Elec       q    Type
REMARK                         _______ _______ _______ _____ _____    ______ ____
ROOT
ATOM      1  C   UNL     1       8.189   8.739  18.144  0.00  0.00    +0.000 A 
ATOM      2  N   UNL     1       7.327   8.346  17.154  0.00  0.00    +0.000 NA
ATOM      3  C   UNL     1       7.160   7.052  17.355  0.00  0.00    +0.000 A 
ATOM      4  N   UNL     1       7.890   6.690  18.451  0.00  0.00    +0.000 N 
ATOM      5  C   UNL     1       8.004   5.415  19.107  0.00  0.00    +0.000 C 
ATOM      6  N   UNL     1       8.522   7.750  18.986  0.00  0.00    +0.000 NA
ENDROOT
BRANCH   1   9
ATOM      7  C   UNL     1       8.517  12.462  17.681  0.00  0.00    +0.000 A 
ATOM      8  C   UNL     1       8.093  11.135  17.535  0.00  0.00    +0.000 A 
ATOM      9  C   UNL     1       8.732  10.085  18.205  0.00  0.00    +0.000 A 
ATOM     10  C   UNL     1       9.861  10.361  18.977  0.00  0.00    +0.000 A 
ATOM     11  C   UNL     1      10.338  11.667  19.081  0.00  0.00    +0.000 A 
ATOM     12  C   UNL     1       9.670  12.730  18.441  0.00  0.00    +0.000 A 
BRANCH  12  13
ATOM     13  N   UNL     1      10.201  14.041  18.604  0.00  0.00    +0.000 N 
ATOM     14  C   UNL     1      10.077  14.893  19.678  0.00  0.00    +0.000 A 
ATOM     15  N   UNL     1      10.689  16.044  19.489  0.00  0.00    +0.000 NA
ATOM     16  C   UNL     1      11.237  15.958  18.238  0.00  0.00    +0.000 A 
ATOM     17  C   UNL     1      11.959  17.096  17.632  0.00  0.00    +0.000 C 
ATOM     18  C   UNL     1      10.982  14.720  17.691  0.00  0.00    +0.000 A 
ENDBRANCH  12  13
BRANCH   7  20
ATOM     19  C   UNL     1       6.852  14.146  17.775  0.00  0.00    +0.000 C 
ATOM     20  O   UNL     1       7.877  13.486  17.031  0.00  0.00    +0.000 OA
ENDBRANCH   7  20
ENDBRANCH   1   9
BRANCH   3  21
ATOM     21  C   UNL     1       6.358   6.208  16.497  0.00  0.00    +0.000 C 
ATOM     22  O   UNL     1       6.715   5.836  15.380  0.00  0.00    +0.000 OA
BRANCH  21  23
ATOM     23  C   UNL     1       5.018   5.774  16.991  0.00  0.00    +0.000 A 
ATOM     24  C   UNL     1       4.144   6.679  17.619  0.00  0.00    +0.000 A 
ATOM     25  C   UNL     1       2.903   6.249  18.080  0.00  0.00    +0.000 A 
ATOM     26  C   UNL     1       2.534   4.916  17.921  0.00  0.00    +0.000 A 
ATOM     27  F   UNL     1       1.340   4.506  18.362  0.00  0.00    +0.000 F 
ATOM     28  C   UNL     1       3.395   4.006  17.316  0.00  0.00    +0.000 A 
ATOM     29  C   UNL     1       4.644   4.430  16.854  0.00  0.00    +0.000 A 
ENDBRANCH  21  23
ENDBRANCH   3  21
TORSDOF 5
ENDMDL
