MODEL 1
REMARK VINA RESULT:      -7.5      0.000      0.000
REMARK  Name = 
REMARK  6 active torsions:
REMARK  status: ('A' for Active; 'I' for Inactive)
REMARK    1  A    between atoms: C_1  and  N_2
REMARK    2  A    between atoms: N_2  and  C_3
REMARK    3  A    between atoms: N_2  and  C_4
REMARK    4  A    between atoms: C_4  and  C_5
REMARK    5  A    between atoms: C_5  and  N_6
REMARK    6  A    between atoms: C_21  and  N_22
REMARK                            x       y       z     vdW  Elec       q    Type
REMARK                         _______ _______ _______ _____ _____    ______ ____
ROOT
ATOM      1  N   UNL     1       4.431   4.759  17.045  0.00  0.00    +0.000 N 
ATOM      2  C   UNL     1       4.306   4.148  18.279  0.00  0.00    +0.000 C 
ATOM      3  O   UNL     1       4.824   3.073  18.570  0.00  0.00    +0.000 OA
ATOM      4  C   UNL     1       3.450   4.854  19.257  0.00  0.00    +0.000 A 
ATOM      5  C   UNL     1       3.003   4.140  20.366  0.00  0.00    +0.000 A 
ATOM      6  C   UNL     1       2.061   4.716  21.191  0.00  0.00    +0.000 A 
ATOM      7  C   UNL     1       1.594   6.009  20.915  0.00  0.00    +0.000 A 
ATOM      8  C   UNL     1       2.080   6.818  19.851  0.00  0.00    +0.000 A 
ATOM      9  C   UNL     1       3.027   6.173  19.001  0.00  0.00    +0.000 A 
ATOM     10  C   UNL     1       3.533   6.844  17.892  0.00  0.00    +0.000 A 
ATOM     11  C   UNL     1       3.189   8.166  17.633  0.00  0.00    +0.000 A 
ATOM     12  C   UNL     1       2.269   8.837  18.432  0.00  0.00    +0.000 A 
ATOM     13  C   UNL     1       1.948  10.145  18.040  0.00  0.00    +0.000 A 
ATOM     14  C   UNL     1       0.988  10.878  18.714  0.00  0.00    +0.000 A 
ATOM     15  C   UNL     1       0.351  10.311  19.800  0.00  0.00    +0.000 A 
ATOM     16  C   UNL     1       0.695   9.022  20.261  0.00  0.00    +0.000 A 
ATOM     17  C   UNL     1       1.663   8.200  19.556  0.00  0.00    +0.000 A 
ATOM     18  C   UNL     1       4.362   6.130  16.889  0.00  0.00    +0.000 C 
ATOM     19  O   UNL     1       4.913   6.756  15.987  0.00  0.00    +0.000 OA
ENDROOT
BRANCH  16  20
ATOM     20  N   UNL     1      -0.047   8.560  21.375  0.00  0.00    +0.000 N 
ATOM     21  H   UNL     1       0.158   9.066  22.231  0.00  0.00    +0.000 HD
ATOM     22  H   UNL     1       0.095   7.567  21.526  0.00  0.00    +0.000 HD
ENDBRANCH  16  20
BRANCH   1  23
ATOM     23  C   UNL     1       4.820   3.930  15.911  0.00  0.00    +0.000 C 
BRANCH  23  24
ATOM     24  C   UNL     1       6.347   4.023  15.643  0.00  0.00    +0.000 C 
BRANCH  24  26
ATOM     25  C   UNL     1       5.569   3.816  13.340  0.00  0.00    +0.000 C 
ATOM     26  N   UNL     1       6.734   3.976  14.212  0.00  0.00    +0.000 NA
ATOM     27  C   UNL     1       7.459   5.196  13.841  0.00  0.00    +0.000 C 
ENDBRANCH  24  26
ENDBRANCH  23  24
ENDBRANCH   1  23
TORSDOF 4
ENDMDL
MODEL 2
REMARK VINA RESULT:      -7.5      2.686      7.023
REMARK  Name = 
REMARK  6 active torsions:
REMARK  status: ('A' for Active; 'I' for Inactive)
REMARK    1  A    between atoms: C_1  and  N_2
REMARK    2  A    between atoms: N_2  and  C_3
REMARK    3  A    between atoms: N_2  and  C_4
REMARK    4  A    between atoms: C_4  and  C_5
REMARK    5  A    between atoms: C_5  and  N_6
REMARK    6  A    between atoms: C_21  and  N_22
REMARK                            x       y       z     vdW  Elec       q    Type
REMARK                         _______ _______ _______ _____ _____    ______ ____
ROOT
ATOM      1  N   UNL     1       1.159   9.223  19.015  0.00  0.00    +0.000 N 
ATOM      2  C   UNL     1       2.231   9.302  18.145  0.00  0.00    +0.000 C 
ATOM      3  O   UNL     1       2.532  10.310  17.511  0.00  0.00    +0.000 OA
ATOM      4  C   UNL     1       3.005   8.053  17.973  0.00  0.00    +0.000 A 
ATOM      5  C   UNL     1       3.857   7.962  16.875  0.00  0.00    +0.000 A 
ATOM      6  C   UNL     1       4.447   6.748  16.591  0.00  0.00    +0.000 A 
ATOM      7  C   UNL     1       4.200   5.645  17.421  0.00  0.00    +0.000 A 
ATOM      8  C   UNL     1       3.414   5.703  18.604  0.00  0.00    +0.000 A 
ATOM      9  C   UNL     1       2.794   6.966  18.843  0.00  0.00    +0.000 A 
ATOM     10  C   UNL     1       1.954   7.129  19.940  0.00  0.00    +0.000 A 
ATOM     11  C   UNL     1       1.761   6.103  20.857  0.00  0.00    +0.000 A 
ATOM     12  C   UNL     1       2.342   4.853  20.667  0.00  0.00    +0.000 A 
ATOM     13  C   UNL     1       2.027   3.874  21.620  0.00  0.00    +0.000 A 
ATOM     14  C   UNL     1       2.485   2.575  21.489  0.00  0.00    +0.000 A 
ATOM     15  C   UNL     1       3.279   2.251  20.407  0.00  0.00    +0.000 A 
ATOM     16  C   UNL     1       3.668   3.225  19.464  0.00  0.00    +0.000 A 
ATOM     17  C   UNL     1       3.173   4.588  19.538  0.00  0.00    +0.000 A 
ATOM     18  C   UNL     1       1.147   8.365  20.098  0.00  0.00    +0.000 C 
ATOM     19  O   UNL     1       0.512   8.560  21.131  0.00  0.00    +0.000 OA
ENDROOT
BRANCH  16  20
ATOM     20  N   UNL     1       4.471   2.750  18.398  0.00  0.00    +0.000 N 
ATOM     21  H   UNL     1       4.913   3.494  17.868  0.00  0.00    +0.000 HD
ATOM     22  H   UNL     1       3.936   2.158  17.771  0.00  0.00    +0.000 HD
ENDBRANCH  16  20
BRANCH   1  23
ATOM     23  C   UNL     1       0.092  10.206  18.870  0.00  0.00    +0.000 C 
BRANCH  23  24
ATOM     24  C   UNL     1      -0.942   9.762  17.799  0.00  0.00    +0.000 C 
BRANCH  24  26
ATOM     25  C   UNL     1      -2.558  10.415  16.092  0.00  0.00    +0.000 C 
ATOM     26  N   UNL     1      -1.787  10.854  17.256  0.00  0.00    +0.000 NA
ATOM     27  C   UNL     1      -2.700  11.351  18.290  0.00  0.00    +0.000 C 
ENDBRANCH  24  26
ENDBRANCH  23  24
ENDBRANCH   1  23
TORSDOF 4
ENDMDL
MODEL 3
REMARK VINA RESULT:      -7.3      2.361      6.706
REMARK  Name = 
REMARK  6 active torsions:
REMARK  status: ('A' for Active; 'I' for Inactive)
REMARK    1  A    between atoms: C_1  and  N_2
REMARK    2  A    between atoms: N_2  and  C_3
REMARK    3  A    between atoms: N_2  and  C_4
REMARK    4  A    between atoms: C_4  and  C_5
REMARK    5  A    between atoms: C_5  and  N_6
REMARK    6  A    between atoms: C_21  and  N_22
REMARK                            x       y       z     vdW  Elec       q    Type
REMARK                         _______ _______ _______ _____ _____    ______ ____
ROOT
ATOM      1  N   UNL     1       1.386   9.373  19.575  0.00  0.00    +0.000 N 
ATOM      2  C   UNL     1       0.892   8.335  20.342  0.00  0.00    +0.000 C 
ATOM      3  O   UNL     1      -0.041   8.446  21.133  0.00  0.00    +0.000 OA
ATOM      4  C   UNL     1       1.596   7.042  20.194  0.00  0.00    +0.000 A 
ATOM      5  C   UNL     1       1.387   6.072  21.172  0.00  0.00    +0.000 A 
ATOM      6  C   UNL     1       2.167   4.935  21.156  0.00  0.00    +0.000 A 
ATOM      7  C   UNL     1       3.129   4.767  20.150  0.00  0.00    +0.000 A 
ATOM      8  C   UNL     1       3.323   5.679  19.077  0.00  0.00    +0.000 A 
ATOM      9  C   UNL     1       2.522   6.858  19.149  0.00  0.00    +0.000 A 
ATOM     10  C   UNL     1       2.663   7.852  18.186  0.00  0.00    +0.000 A 
ATOM     11  C   UNL     1       3.521   7.689  17.105  0.00  0.00    +0.000 A 
ATOM     12  C   UNL     1       4.325   6.558  16.991  0.00  0.00    +0.000 A 
ATOM     13  C   UNL     1       5.199   6.530  15.896  0.00  0.00    +0.000 A 
ATOM     14  C   UNL     1       6.099   5.492  15.726  0.00  0.00    +0.000 A 
ATOM     15  C   UNL     1       6.117   4.464  16.647  0.00  0.00    +0.000 A 
ATOM     16  C   UNL     1       5.207   4.428  17.725  0.00  0.00    +0.000 A 
ATOM     17  C   UNL     1       4.279   5.518  17.967  0.00  0.00    +0.000 A 
ATOM     18  C   UNL     1       1.989   9.164  18.349  0.00  0.00    +0.000 C 
ATOM     19  O   UNL     1       2.009   9.985  17.436  0.00  0.00    +0.000 OA
ENDROOT
BRANCH  16  20
ATOM     20  N   UNL     1       5.348   3.323  18.599  0.00  0.00    +0.000 N 
ATOM     21  H   UNL     1       4.536   2.713  18.607  0.00  0.00    +0.000 HD
ATOM     22  H   UNL     1       5.553   3.626  19.546  0.00  0.00    +0.000 HD
ENDBRANCH  16  20
BRANCH   1  23
ATOM     23  C   UNL     1       1.097  10.735  20.006  0.00  0.00    +0.000 C 
BRANCH  23  24
ATOM     24  C   UNL     1       0.056  11.413  19.073  0.00  0.00    +0.000 C 
BRANCH  24  26
ATOM     25  C   UNL     1      -2.244  12.118  19.480  0.00  0.00    +0.000 C 
ATOM     26  N   UNL     1      -1.347  10.978  19.284  0.00  0.00    +0.000 NA
ATOM     27  C   UNL     1      -1.808  10.182  18.141  0.00  0.00    +0.000 C 
ENDBRANCH  24  26
ENDBRANCH  23  24
ENDBRANCH   1  23
TORSDOF 4
ENDMDL
MODEL 4
REMARK VINA RESULT:      -7.2      2.664      7.294
REMARK  Name = 
REMARK  6 active torsions:
REMARK  status: ('A' for Active; 'I' for Inactive)
REMARK    1  A    between atoms: C_1  and  N_2
REMARK    2  A    between atoms: N_2  and  C_3
REMARK    3  A    between atoms: N_2  and  C_4
REMARK    4  A    between atoms: C_4  and  C_5
REMARK    5  A    between atoms: C_5  and  N_6
REMARK    6  A    between atoms: C_21  and  N_22
REMARK                            x       y       z     vdW  Elec       q    Type
REMARK                         _______ _______ _______ _____ _____    ______ ____
ROOT
ATOM      1  N   UNL     1       1.183   9.127  18.989  0.00  0.00    +0.000 N 
ATOM      2  C   UNL     1       2.258   9.204  18.123  0.00  0.00    +0.000 C 
ATOM      3  O   UNL     1       2.556  10.208  17.482  0.00  0.00    +0.000 OA
ATOM      4  C   UNL     1       3.040   7.958  17.965  0.00  0.00    +0.000 A 
ATOM      5  C   UNL     1       3.897   7.863  16.871  0.00  0.00    +0.000 A 
ATOM      6  C   UNL     1       4.495   6.650  16.601  0.00  0.00    +0.000 A 
ATOM      7  C   UNL     1       4.251   5.553  17.439  0.00  0.00    +0.000 A 
ATOM      8  C   UNL     1       3.459   5.616  18.619  0.00  0.00    +0.000 A 
ATOM      9  C   UNL     1       2.831   6.878  18.844  0.00  0.00    +0.000 A 
ATOM     10  C   UNL     1       1.986   7.046  19.936  0.00  0.00    +0.000 A 
ATOM     11  C   UNL     1       1.795   6.026  20.861  0.00  0.00    +0.000 A 
ATOM     12  C   UNL     1       2.384   4.778  20.684  0.00  0.00    +0.000 A 
ATOM     13  C   UNL     1       2.071   3.805  21.645  0.00  0.00    +0.000 A 
ATOM     14  C   UNL     1       2.537   2.508  21.527  0.00  0.00    +0.000 A 
ATOM     15  C   UNL     1       3.337   2.179  20.451  0.00  0.00    +0.000 A 
ATOM     16  C   UNL     1       3.725   3.147  19.501  0.00  0.00    +0.000 A 
ATOM     17  C   UNL     1       3.221   4.508  19.561  0.00  0.00    +0.000 A 
ATOM     18  C   UNL     1       1.171   8.278  20.079  0.00  0.00    +0.000 C 
ATOM     19  O   UNL     1       0.531   8.478  21.108  0.00  0.00    +0.000 OA
ENDROOT
BRANCH  16  20
ATOM     20  N   UNL     1       4.534   2.668  18.443  0.00  0.00    +0.000 N 
ATOM     21  H   UNL     1       5.524   2.660  18.668  0.00  0.00    +0.000 HD
ATOM     22  H   UNL     1       4.384   3.202  17.593  0.00  0.00    +0.000 HD
ENDBRANCH  16  20
BRANCH   1  23
ATOM     23  C   UNL     1       0.111  10.102  18.831  0.00  0.00    +0.000 C 
BRANCH  23  24
ATOM     24  C   UNL     1       0.397  11.391  19.649  0.00  0.00    +0.000 C 
BRANCH  24  26
ATOM     25  C   UNL     1      -1.988  11.814  19.360  0.00  0.00    +0.000 C 
ATOM     26  N   UNL     1      -0.807  12.070  20.186  0.00  0.00    +0.000 NA
ATOM     27  C   UNL     1      -1.066  11.631  21.561  0.00  0.00    +0.000 C 
ENDBRANCH  24  26
ENDBRANCH  23  24
ENDBRANCH   1  23
TORSDOF 4
ENDMDL
MODEL 5
REMARK VINA RESULT:      -7.1      2.653      7.080
REMARK  Name = 
REMARK  6 active torsions:
REMARK  status: ('A' for Active; 'I' for Inactive)
REMARK    1  A    between atoms: C_1  and  N_2
REMARK    2  A    between atoms: N_2  and  C_3
REMARK    3  A    between atoms: N_2  and  C_4
REMARK    4  A    between atoms: C_4  and  C_5
REMARK    5  A    between atoms: C_5  and  N_6
REMARK    6  A    between atoms: C_21  and  N_22
REMARK                            x       y       z     vdW  Elec       q    Type
REMARK                         _______ _______ _______ _____ _____    ______ ____
ROOT
ATOM      1  N   UNL     1       1.220   9.114  18.963  0.00  0.00    +0.000 N 
ATOM      2  C   UNL     1       2.297   9.179  18.098  0.00  0.00    +0.000 C 
ATOM      3  O   UNL     1       2.602  10.178  17.452  0.00  0.00    +0.000 OA
ATOM      4  C   UNL     1       3.070   7.927  17.948  0.00  0.00    +0.000 A 
ATOM      5  C   UNL     1       3.928   7.819  16.856  0.00  0.00    +0.000 A 
ATOM      6  C   UNL     1       4.518   6.601  16.593  0.00  0.00    +0.000 A 
ATOM      7  C   UNL     1       4.265   5.510  17.437  0.00  0.00    +0.000 A 
ATOM      8  C   UNL     1       3.472   5.586  18.616  0.00  0.00    +0.000 A 
ATOM      9  C   UNL     1       2.853   6.853  18.832  0.00  0.00    +0.000 A 
ATOM     10  C   UNL     1       2.007   7.033  19.922  0.00  0.00    +0.000 A 
ATOM     11  C   UNL     1       1.808   6.020  20.853  0.00  0.00    +0.000 A 
ATOM     12  C   UNL     1       2.389   4.767  20.684  0.00  0.00    +0.000 A 
ATOM     13  C   UNL     1       2.067   3.802  21.650  0.00  0.00    +0.000 A 
ATOM     14  C   UNL     1       2.524   2.501  21.540  0.00  0.00    +0.000 A 
ATOM     15  C   UNL     1       3.323   2.160  20.467  0.00  0.00    +0.000 A 
ATOM     16  C   UNL     1       3.719   3.120  19.512  0.00  0.00    +0.000 A 
ATOM     17  C   UNL     1       3.225   4.485  19.563  0.00  0.00    +0.000 A 
ATOM     18  C   UNL     1       1.201   8.272  20.058  0.00  0.00    +0.000 C 
ATOM     19  O   UNL     1       0.561   8.482  21.085  0.00  0.00    +0.000 OA
ENDROOT
BRANCH  16  20
ATOM     20  N   UNL     1       4.527   2.629  18.457  0.00  0.00    +0.000 N 
ATOM     21  H   UNL     1       3.999   2.409  17.619  0.00  0.00    +0.000 HD
ATOM     22  H   UNL     1       5.057   1.814  18.749  0.00  0.00    +0.000 HD
ENDBRANCH  16  20
BRANCH   1  23
ATOM     23  C   UNL     1       0.155  10.096  18.798  0.00  0.00    +0.000 C 
BRANCH  23  24
ATOM     24  C   UNL     1       0.444  11.383  19.618  0.00  0.00    +0.000 C 
BRANCH  24  26
ATOM     25  C   UNL     1      -0.367  13.435  18.576  0.00  0.00    +0.000 C 
ATOM     26  N   UNL     1       0.795  12.575  18.808  0.00  0.00    +0.000 NA
ATOM     27  C   UNL     1       1.852  13.347  19.470  0.00  0.00    +0.000 C 
ENDBRANCH  24  26
ENDBRANCH  23  24
ENDBRANCH   1  23
TORSDOF 4
ENDMDL
MODEL 6
REMARK VINA RESULT:      -7.0      4.715      8.782
REMARK  Name = 
REMARK  6 active torsions:
REMARK  status: ('A' for Active; 'I' for Inactive)
REMARK    1  A    between atoms: C_1  and  N_2
REMARK    2  A    between atoms: N_2  and  C_3
REMARK    3  A    between atoms: N_2  and  C_4
REMARK    4  A    between atoms: C_4  and  C_5
REMARK    5  A    between atoms: C_5  and  N_6
REMARK    6  A    between atoms: C_21  and  N_22
REMARK                            x       y       z     vdW  Elec       q    Type
REMARK                         _______ _______ _______ _____ _____    ______ ____
ROOT
ATOM      1  N   UNL     1      -0.866  13.770  20.487  0.00  0.00    +0.000 N 
ATOM      2  C   UNL     1      -1.441  13.125  21.567  0.00  0.00    +0.000 C 
ATOM      3  O   UNL     1      -2.237  13.651  22.340  0.00  0.00    +0.000 OA
ATOM      4  C   UNL     1      -1.000  11.729  21.784  0.00  0.00    +0.000 A 
ATOM      5  C   UNL     1      -1.259  11.151  23.025  0.00  0.00    +0.000 A 
ATOM      6  C   UNL     1      -0.701   9.924  23.314  0.00  0.00    +0.000 A 
ATOM      7  C   UNL     1       0.088   9.276  22.353  0.00  0.00    +0.000 A 
ATOM      8  C   UNL     1       0.310   9.775  21.040  0.00  0.00    +0.000 A 
ATOM      9  C   UNL     1      -0.255  11.063  20.793  0.00  0.00    +0.000 A 
ATOM     10  C   UNL     1      -0.056  11.681  19.563  0.00  0.00    +0.000 A 
ATOM     11  C   UNL     1       0.623  11.038  18.536  0.00  0.00    +0.000 A 
ATOM     12  C   UNL     1       1.193   9.783  18.729  0.00  0.00    +0.000 A 
ATOM     13  C   UNL     1       1.911   9.257  17.645  0.00  0.00    +0.000 A 
ATOM     14  C   UNL     1       2.585   8.053  17.750  0.00  0.00    +0.000 A 
ATOM     15  C   UNL     1       2.531   7.357  18.941  0.00  0.00    +0.000 A 
ATOM     16  C   UNL     1       1.766   7.825  20.031  0.00  0.00    +0.000 A 
ATOM     17  C   UNL     1       1.082   9.105  19.979  0.00  0.00    +0.000 A 
ATOM     18  C   UNL     1      -0.462  13.093  19.352  0.00  0.00    +0.000 C 
ATOM     19  O   UNL     1      -0.407  13.590  18.230  0.00  0.00    +0.000 OA
ENDROOT
BRANCH  16  20
ATOM     20  N   UNL     1       1.812   7.019  21.194  0.00  0.00    +0.000 N 
ATOM     21  H   UNL     1       2.345   7.437  21.950  0.00  0.00    +0.000 HD
ATOM     22  H   UNL     1       2.183   6.097  20.988  0.00  0.00    +0.000 HD
ENDBRANCH  16  20
BRANCH   1  23
ATOM     23  C   UNL     1      -0.855  15.227  20.492  0.00  0.00    +0.000 C 
BRANCH  23  24
ATOM     24  C   UNL     1       0.555  15.778  20.842  0.00  0.00    +0.000 C 
BRANCH  24  26
ATOM     25  C   UNL     1       2.182  15.717  19.025  0.00  0.00    +0.000 C 
ATOM     26  N   UNL     1       1.215  16.540  19.754  0.00  0.00    +0.000 NA
ATOM     27  C   UNL     1       0.213  17.062  18.819  0.00  0.00    +0.000 C 
ENDBRANCH  24  26
ENDBRANCH  23  24
ENDBRANCH   1  23
TORSDOF 4
ENDMDL
MODEL 7
REMARK VINA RESULT:      -7.0      3.146      7.195
REMARK  Name = 
REMARK  6 active torsions:
REMARK  status: ('A' for Active; 'I' for Inactive)
REMARK    1  A    between atoms: C_1  and  N_2
REMARK    2  A    between atoms: N_2  and  C_3
REMARK    3  A    between atoms: N_2  and  C_4
REMARK    4  A    between atoms: C_4  and  C_5
REMARK    5  A    between atoms: C_5  and  N_6
REMARK    6  A    between atoms: C_21  and  N_22
REMARK                            x       y       z     vdW  Elec       q    Type
REMARK                         _______ _______ _______ _____ _____    ______ ____
ROOT
ATOM      1  N   UNL     1       3.219   4.708  18.182  0.00  0.00    +0.000 N 
ATOM      2  C   UNL     1       4.322   5.218  18.843  0.00  0.00    +0.000 C 
ATOM      3  O   UNL     1       4.339   5.500  20.038  0.00  0.00    +0.000 OA
ATOM      4  C   UNL     1       5.514   5.460  18.001  0.00  0.00    +0.000 A 
ATOM      5  C   UNL     1       6.515   6.282  18.513  0.00  0.00    +0.000 A 
ATOM      6  C   UNL     1       7.545   6.669  17.681  0.00  0.00    +0.000 A 
ATOM      7  C   UNL     1       7.578   6.211  16.356  0.00  0.00    +0.000 A 
ATOM      8  C   UNL     1       6.634   5.299  15.808  0.00  0.00    +0.000 A 
ATOM      9  C   UNL     1       5.567   4.951  16.689  0.00  0.00    +0.000 A 
ATOM     10  C   UNL     1       4.550   4.110  16.247  0.00  0.00    +0.000 A 
ATOM     11  C   UNL     1       4.590   3.538  14.981  0.00  0.00    +0.000 A 
ATOM     12  C   UNL     1       5.609   3.848  14.086  0.00  0.00    +0.000 A 
ATOM     13  C   UNL     1       5.513   3.264  12.814  0.00  0.00    +0.000 A 
ATOM     14  C   UNL     1       6.428   3.563  11.820  0.00  0.00    +0.000 A 
ATOM     15  C   UNL     1       7.458   4.439  12.098  0.00  0.00    +0.000 A 
ATOM     16  C   UNL     1       7.621   4.995  13.384  0.00  0.00    +0.000 A 
ATOM     17  C   UNL     1       6.659   4.745  14.443  0.00  0.00    +0.000 A 
ATOM     18  C   UNL     1       3.335   3.893  17.071  0.00  0.00    +0.000 C 
ATOM     19  O   UNL     1       2.506   3.051  16.739  0.00  0.00    +0.000 OA
ENDROOT
BRANCH  16  20
ATOM     20  N   UNL     1       8.711   5.888  13.524  0.00  0.00    +0.000 N 
ATOM     21  H   UNL     1       8.903   6.420  12.681  0.00  0.00    +0.000 HD
ATOM     22  H   UNL     1       9.552   5.400  13.815  0.00  0.00    +0.000 HD
ENDBRANCH  16  20
BRANCH   1  23
ATOM     23  C   UNL     1       1.910   4.901  18.793  0.00  0.00    +0.000 C 
BRANCH  23  24
ATOM     24  C   UNL     1       1.937   4.555  20.306  0.00  0.00    +0.000 C 
BRANCH  24  26
ATOM     25  C   UNL     1       0.708   2.600  19.519  0.00  0.00    +0.000 C 
ATOM     26  N   UNL     1       1.132   3.369  20.690  0.00  0.00    +0.000 NA
ATOM     27  C   UNL     1       1.900   2.504  21.592  0.00  0.00    +0.000 C 
ENDBRANCH  24  26
ENDBRANCH  23  24
ENDBRANCH   1  23
TORSDOF 4
ENDMDL
MODEL 8
REMARK VINA RESULT:      -6.9      2.376      6.966
REMARK  Name = 
REMARK  6 active torsions:
REMARK  status: ('A' for Active; 'I' for Inactive)
REMARK    1  A    between atoms: C_1  and  N_2
REMARK    2  A    between atoms: N_2  and  C_3
REMARK    3  A    between atoms: N_2  and  C_4
REMARK    4  A    between atoms: C_4  and  C_5
REMARK    5  A    between atoms: C_5  and  N_6
REMARK    6  A    between atoms: C_21  and  N_22
REMARK                            x       y       z     vdW  Elec       q    Type
REMARK                         _______ _______ _______ _____ _____    ______ ____
ROOT
ATOM      1  N   UNL     1       1.285   9.166  19.595  0.00  0.00    +0.000 N 
ATOM      2  C   UNL     1       0.820   8.096  20.337  0.00  0.00    +0.000 C 
ATOM      3  O   UNL     1      -0.143   8.151  21.097  0.00  0.00    +0.000 OA
ATOM      4  C   UNL     1       1.594   6.842  20.202  0.00  0.00    +0.000 A 
ATOM      5  C   UNL     1       1.403   5.853  21.165  0.00  0.00    +0.000 A 
ATOM      6  C   UNL     1       2.240   4.758  21.166  0.00  0.00    +0.000 A 
ATOM      7  C   UNL     1       3.243   4.649  20.191  0.00  0.00    +0.000 A 
ATOM      8  C   UNL     1       3.425   5.581  19.133  0.00  0.00    +0.000 A 
ATOM      9  C   UNL     1       2.562   6.716  19.188  0.00  0.00    +0.000 A 
ATOM     10  C   UNL     1       2.684   7.725  18.238  0.00  0.00    +0.000 A 
ATOM     11  C   UNL     1       3.584   7.617  17.185  0.00  0.00    +0.000 A 
ATOM     12  C   UNL     1       4.448   6.530  17.089  0.00  0.00    +0.000 A 
ATOM     13  C   UNL     1       5.359   6.557  16.023  0.00  0.00    +0.000 A 
ATOM     14  C   UNL     1       6.316   5.569  15.875  0.00  0.00    +0.000 A 
ATOM     15  C   UNL     1       6.356   4.533  16.788  0.00  0.00    +0.000 A 
ATOM     16  C   UNL     1       5.415   4.441  17.835  0.00  0.00    +0.000 A 
ATOM     17  C   UNL     1       4.424   5.480  18.054  0.00  0.00    +0.000 A 
ATOM     18  C   UNL     1       1.938   9.000  18.388  0.00  0.00    +0.000 C 
ATOM     19  O   UNL     1       1.946   9.830  17.483  0.00  0.00    +0.000 OA
ENDROOT
BRANCH  16  20
ATOM     20  N   UNL     1       5.583   3.336  18.704  0.00  0.00    +0.000 N 
ATOM     21  H   UNL     1       5.330   3.541  19.666  0.00  0.00    +0.000 HD
ATOM     22  H   UNL     1       6.534   2.983  18.672  0.00  0.00    +0.000 HD
ENDBRANCH  16  20
BRANCH   1  23
ATOM     23  C   UNL     1       0.913  10.507  20.027  0.00  0.00    +0.000 C 
BRANCH  23  24
ATOM     24  C   UNL     1       0.925  10.624  21.576  0.00  0.00    +0.000 C 
BRANCH  24  26
ATOM     25  C   UNL     1      -0.936  12.126  21.096  0.00  0.00    +0.000 C 
ATOM     26  N   UNL     1      -0.109  11.523  22.143  0.00  0.00    +0.000 NA
ATOM     27  C   UNL     1      -0.965  10.786  23.079  0.00  0.00    +0.000 C 
ENDBRANCH  24  26
ENDBRANCH  23  24
ENDBRANCH   1  23
TORSDOF 4
ENDMDL
MODEL 9
REMARK VINA RESULT:      -6.7      4.628      9.130
REMARK  Name = 
REMARK  6 active torsions:
REMARK  status: ('A' for Active; 'I' for Inactive)
REMARK    1  A    between atoms: C_1  and  N_2
REMARK    2  A    between atoms: N_2  and  C_3
REMARK    3  A    between atoms: N_2  and  C_4
REMARK    4  A    between atoms: C_4  and  C_5
REMARK    5  A    between atoms: C_5  and  N_6
REMARK    6  A    between atoms: C_21  and  N_22
REMARK                            x       y       z     vdW  Elec       q    Type
REMARK                         _______ _______ _______ _____ _____    ______ ____
ROOT
ATOM      1  N   UNL     1      -0.812  13.600  20.550  0.00  0.00    +0.000 N 
ATOM      2  C   UNL     1      -1.381  12.936  21.621  0.00  0.00    +0.000 C 
ATOM      3  O   UNL     1      -2.174  13.447  22.407  0.00  0.00    +0.000 OA
ATOM      4  C   UNL     1      -0.938  11.537  21.811  0.00  0.00    +0.000 A 
ATOM      5  C   UNL     1      -1.190  10.936  23.042  0.00  0.00    +0.000 A 
ATOM      6  C   UNL     1      -0.629   9.705  23.307  0.00  0.00    +0.000 A 
ATOM      7  C   UNL     1       0.156   9.075  22.331  0.00  0.00    +0.000 A 
ATOM      8  C   UNL     1       0.372   9.598  21.026  0.00  0.00    +0.000 A 
ATOM      9  C   UNL     1      -0.196  10.889  20.805  0.00  0.00    +0.000 A 
ATOM     10  C   UNL     1      -0.004  11.530  19.585  0.00  0.00    +0.000 A 
ATOM     11  C   UNL     1       0.671  10.905  18.543  0.00  0.00    +0.000 A 
ATOM     12  C   UNL     1       1.244   9.648  18.711  0.00  0.00    +0.000 A 
ATOM     13  C   UNL     1       1.957   9.143  17.614  0.00  0.00    +0.000 A 
ATOM     14  C   UNL     1       2.633   7.938  17.695  0.00  0.00    +0.000 A 
ATOM     15  C   UNL     1       2.585   7.221  18.874  0.00  0.00    +0.000 A 
ATOM     16  C   UNL     1       1.825   7.668  19.975  0.00  0.00    +0.000 A 
ATOM     17  C   UNL     1       1.139   8.948  19.949  0.00  0.00    +0.000 A 
ATOM     18  C   UNL     1      -0.413  12.945  19.401  0.00  0.00    +0.000 C 
ATOM     19  O   UNL     1      -0.363  13.462  18.288  0.00  0.00    +0.000 OA
ENDROOT
BRANCH  16  20
ATOM     20  N   UNL     1       1.878   6.841  21.123  0.00  0.00    +0.000 N 
ATOM     21  H   UNL     1       1.020   6.856  21.667  0.00  0.00    +0.000 HD
ATOM     22  H   UNL     1       2.661   7.088  21.719  0.00  0.00    +0.000 HD
ENDBRANCH  16  20
BRANCH   1  23
ATOM     23  C   UNL     1      -0.802  15.058  20.581  0.00  0.00    +0.000 C 
BRANCH  23  24
ATOM     24  C   UNL     1       0.598  15.603  20.972  0.00  0.00    +0.000 C 
BRANCH  24  26
ATOM     25  C   UNL     1       1.448  17.540  22.189  0.00  0.00    +0.000 C 
ATOM     26  N   UNL     1       0.651  16.315  22.273  0.00  0.00    +0.000 NA
ATOM     27  C   UNL     1      -0.704  16.643  22.727  0.00  0.00    +0.000 C 
ENDBRANCH  24  26
ENDBRANCH  23  24
ENDBRANCH   1  23
TORSDOF 4
ENDMDL
