MODEL 1
REMARK VINA RESULT:      -7.6      0.000      0.000
REMARK  Name = 
REMARK  12 active torsions:
REMARK  status: ('A' for Active; 'I' for Inactive)
REMARK    1  A    between atoms: C_8  and  C_9
REMARK    2  A    between atoms: C_10  and  C_11
REMARK    3  A    between atoms: C_11  and  C_12
REMARK    4  A    between atoms: C_11  and  C_13
REMARK    5  A    between atoms: C_13  and  C_14
REMARK    6  A    between atoms: C_14  and  C_15
REMARK    7  A    between atoms: C_15  and  O_16
REMARK    8  A    between atoms: O_16  and  C_17
REMARK    9  A    between atoms: C_17  and  C_18
REMARK   10  A    between atoms: C_20  and  O_21
REMARK   11  A    between atoms: O_21  and  C_22
REMARK   12  A    between atoms: C_22  and  C_24
REMARK                            x       y       z     vdW  Elec       q    Type
REMARK                         _______ _______ _______ _____ _____    ______ ____
ROOT
ATOM      1  C   UNL     1       1.058   3.909  17.193  0.00  0.00    +0.000 C 
ATOM      2  C   UNL     1       1.627   3.714  18.388  0.00  0.00    +0.000 C 
ATOM      3  C   UNL     1       0.997   2.861  19.429  0.00  0.00    +0.000 C 
ATOM      4  O   UNL     1       0.029   2.136  19.294  0.00  0.00    +0.000 OA
ATOM      5  O   UNL     1       1.712   3.036  20.579  0.00  0.00    +0.000 OA
ATOM      6  C   UNL     1       2.535   4.210  20.441  0.00  0.00    +0.000 C 
ATOM      7  C   UNL     1       1.726   5.411  20.929  0.00  0.00    +0.000 C 
ATOM      8  C   UNL     1       1.892   6.731  20.196  0.00  0.00    +0.000 C 
ATOM      9  C   UNL     1       1.101   7.795  20.923  0.00  0.00    +0.000 C 
ATOM     10  C   UNL     1       2.651   6.857  19.072  0.00  0.00    +0.000 C 
ATOM     11  C   UNL     1       3.411   5.625  18.531  0.00  0.00    +0.000 C 
ATOM     12  C   UNL     1       2.893   4.253  18.975  0.00  0.00    +0.000 C 
ENDROOT
BRANCH  10  13
ATOM     13  C   UNL     1       2.955   8.126  18.224  0.00  0.00    +0.000 C 
ATOM     14  C   UNL     1       3.801   7.781  16.978  0.00  0.00    +0.000 C 
BRANCH  13  15
ATOM     15  C   UNL     1       1.824   9.047  17.737  0.00  0.00    +0.000 C 
BRANCH  15  16
ATOM     16  C   UNL     1       1.890  10.479  18.272  0.00  0.00    +0.000 C 
BRANCH  16  17
ATOM     17  C   UNL     1       0.511  10.904  18.778  0.00  0.00    +0.000 C 
BRANCH  17  18
ATOM     18  O   UNL     1      -0.500  10.084  18.171  0.00  0.00    +0.000 OA
BRANCH  18  19
ATOM     19  C   UNL     1      -1.639  10.748  17.833  0.00  0.00    +0.000 C 
ATOM     20  C   UNL     1      -2.725   9.788  17.464  0.00  0.00    +0.000 C 
ATOM     21  O   UNL     1      -1.767  11.964  17.791  0.00  0.00    +0.000 OA
ENDBRANCH  18  19
ENDBRANCH  17  18
ENDBRANCH  16  17
ENDBRANCH  15  16
ENDBRANCH  13  15
ENDBRANCH  10  13
BRANCH  11  22
ATOM     22  O   UNL     1       4.779   5.771  18.987  0.00  0.00    +0.000 OA
BRANCH  22  23
ATOM     23  C   UNL     1       5.624   4.739  18.720  0.00  0.00    +0.000 C 
ATOM     24  O   UNL     1       5.901   3.809  19.456  0.00  0.00    +0.000 OA
BRANCH  23  25
ATOM     25  C   UNL     1       5.986   4.771  17.291  0.00  0.00    +0.000 A 
ATOM     26  C   UNL     1       6.895   5.734  16.838  0.00  0.00    +0.000 A 
ATOM     27  C   UNL     1       7.257   5.763  15.488  0.00  0.00    +0.000 A 
ATOM     28  C   UNL     1       6.705   4.840  14.596  0.00  0.00    +0.000 A 
ATOM     29  C   UNL     1       5.798   3.884  15.051  0.00  0.00    +0.000 A 
ATOM     30  C   UNL     1       5.441   3.851  16.398  0.00  0.00    +0.000 A 
ATOM     31  F   UNL     1       4.561   2.933  16.807  0.00  0.00    +0.000 F 
ENDBRANCH  23  25
ENDBRANCH  22  23
ENDBRANCH  11  22
TORSDOF 9
ENDMDL
MODEL 2
REMARK VINA RESULT:      -7.6      1.028      1.353
REMARK  Name = 
REMARK  12 active torsions:
REMARK  status: ('A' for Active; 'I' for Inactive)
REMARK    1  A    between atoms: C_8  and  C_9
REMARK    2  A    between atoms: C_10  and  C_11
REMARK    3  A    between atoms: C_11  and  C_12
REMARK    4  A    between atoms: C_11  and  C_13
REMARK    5  A    between atoms: C_13  and  C_14
REMARK    6  A    between atoms: C_14  and  C_15
REMARK    7  A    between atoms: C_15  and  O_16
REMARK    8  A    between atoms: O_16  and  C_17
REMARK    9  A    between atoms: C_17  and  C_18
REMARK   10  A    between atoms: C_20  and  O_21
REMARK   11  A    between atoms: O_21  and  C_22
REMARK   12  A    between atoms: C_22  and  C_24
REMARK                            x       y       z     vdW  Elec       q    Type
REMARK                         _______ _______ _______ _____ _____    ______ ____
ROOT
ATOM      1  C   UNL     1       1.008   3.932  17.200  0.00  0.00    +0.000 C 
ATOM      2  C   UNL     1       1.605   3.713  18.378  0.00  0.00    +0.000 C 
ATOM      3  C   UNL     1       1.006   2.828  19.411  0.00  0.00    +0.000 C 
ATOM      4  O   UNL     1       0.043   2.096  19.278  0.00  0.00    +0.000 OA
ATOM      5  O   UNL     1       1.744   2.982  20.550  0.00  0.00    +0.000 OA
ATOM      6  C   UNL     1       2.551   4.168  20.423  0.00  0.00    +0.000 C 
ATOM      7  C   UNL     1       1.741   5.348  20.958  0.00  0.00    +0.000 C 
ATOM      8  C   UNL     1       1.877   6.687  20.255  0.00  0.00    +0.000 C 
ATOM      9  C   UNL     1       1.090   7.724  21.025  0.00  0.00    +0.000 C 
ATOM     10  C   UNL     1       2.610   6.849  19.119  0.00  0.00    +0.000 C 
ATOM     11  C   UNL     1       3.371   5.639  18.531  0.00  0.00    +0.000 C 
ATOM     12  C   UNL     1       2.878   4.251  18.951  0.00  0.00    +0.000 C 
ENDROOT
BRANCH  10  13
ATOM     13  C   UNL     1       2.882   8.142  18.297  0.00  0.00    +0.000 C 
ATOM     14  C   UNL     1       3.781   7.853  17.073  0.00  0.00    +0.000 C 
BRANCH  13  15
ATOM     15  C   UNL     1       1.726   9.018  17.785  0.00  0.00    +0.000 C 
BRANCH  15  16
ATOM     16  C   UNL     1       1.491  10.299  18.589  0.00  0.00    +0.000 C 
BRANCH  16  17
ATOM     17  C   UNL     1       0.035  10.742  18.437  0.00  0.00    +0.000 C 
BRANCH  17  18
ATOM     18  O   UNL     1      -0.691   9.764  17.676  0.00  0.00    +0.000 OA
BRANCH  18  19
ATOM     19  C   UNL     1      -1.891  10.194  17.200  0.00  0.00    +0.000 C 
ATOM     20  C   UNL     1      -2.652  10.926  18.259  0.00  0.00    +0.000 C 
ATOM     21  O   UNL     1      -2.326   9.986  16.075  0.00  0.00    +0.000 OA
ENDBRANCH  18  19
ENDBRANCH  17  18
ENDBRANCH  16  17
ENDBRANCH  15  16
ENDBRANCH  13  15
ENDBRANCH  10  13
BRANCH  11  22
ATOM     22  O   UNL     1       4.747   5.790  18.961  0.00  0.00    +0.000 OA
BRANCH  22  23
ATOM     23  C   UNL     1       5.591   4.762  18.672  0.00  0.00    +0.000 C 
ATOM     24  O   UNL     1       5.888   3.831  19.398  0.00  0.00    +0.000 OA
BRANCH  23  25
ATOM     25  C   UNL     1       5.924   4.802  17.236  0.00  0.00    +0.000 A 
ATOM     26  C   UNL     1       5.262   3.937  16.357  0.00  0.00    +0.000 A 
ATOM     27  C   UNL     1       5.560   3.978  14.991  0.00  0.00    +0.000 A 
ATOM     28  C   UNL     1       6.521   4.872  14.511  0.00  0.00    +0.000 A 
ATOM     29  C   UNL     1       7.180   5.728  15.391  0.00  0.00    +0.000 A 
ATOM     30  C   UNL     1       6.879   5.693  16.752  0.00  0.00    +0.000 A 
ATOM     31  F   UNL     1       7.533   6.516  17.577  0.00  0.00    +0.000 F 
ENDBRANCH  23  25
ENDBRANCH  22  23
ENDBRANCH  11  22
TORSDOF 9
ENDMDL
MODEL 3
REMARK VINA RESULT:      -7.1      3.490      6.597
REMARK  Name = 
REMARK  12 active torsions:
REMARK  status: ('A' for Active; 'I' for Inactive)
REMARK    1  A    between atoms: C_8  and  C_9
REMARK    2  A    between atoms: C_10  and  C_11
REMARK    3  A    between atoms: C_11  and  C_12
REMARK    4  A    between atoms: C_11  and  C_13
REMARK    5  A    between atoms: C_13  and  C_14
REMARK    6  A    between atoms: C_14  and  C_15
REMARK    7  A    between atoms: C_15  and  O_16
REMARK    8  A    between atoms: O_16  and  C_17
REMARK    9  A    between atoms: C_17  and  C_18
REMARK   10  A    between atoms: C_20  and  O_21
REMARK   11  A    between atoms: O_21  and  C_22
REMARK   12  A    between atoms: C_22  and  C_24
REMARK                            x       y       z     vdW  Elec       q    Type
REMARK                         _______ _______ _______ _____ _____    ______ ____
ROOT
ATOM      1  C   UNL     1       4.871   2.421  20.254  0.00  0.00    +0.000 C 
ATOM      2  C   UNL     1       4.055   2.751  19.246  0.00  0.00    +0.000 C 
ATOM      3  C   UNL     1       3.454   1.726  18.353  0.00  0.00    +0.000 C 
ATOM      4  O   UNL     1       3.479   0.520  18.503  0.00  0.00    +0.000 OA
ATOM      5  O   UNL     1       2.854   2.392  17.323  0.00  0.00    +0.000 OA
ATOM      6  C   UNL     1       3.336   3.750  17.305  0.00  0.00    +0.000 C 
ATOM      7  C   UNL     1       4.582   3.795  16.421  0.00  0.00    +0.000 C 
ATOM      8  C   UNL     1       5.719   4.713  16.833  0.00  0.00    +0.000 C 
ATOM      9  C   UNL     1       6.780   4.688  15.756  0.00  0.00    +0.000 C 
ATOM     10  C   UNL     1       5.709   5.416  17.999  0.00  0.00    +0.000 C 
ATOM     11  C   UNL     1       4.483   5.315  18.934  0.00  0.00    +0.000 C 
ATOM     12  C   UNL     1       3.587   4.085  18.755  0.00  0.00    +0.000 C 
ENDROOT
BRANCH  10  13
ATOM     13  C   UNL     1       6.762   6.419  18.555  0.00  0.00    +0.000 C 
ATOM     14  C   UNL     1       7.861   5.692  19.363  0.00  0.00    +0.000 C 
BRANCH  13  15
ATOM     15  C   UNL     1       7.489   7.405  17.626  0.00  0.00    +0.000 C 
BRANCH  15  16
ATOM     16  C   UNL     1       8.447   8.364  18.336  0.00  0.00    +0.000 C 
BRANCH  16  17
ATOM     17  C   UNL     1       8.106   9.807  17.957  0.00  0.00    +0.000 C 
BRANCH  17  18
ATOM     18  O   UNL     1       9.306  10.594  17.926  0.00  0.00    +0.000 OA
BRANCH  18  19
ATOM     19  C   UNL     1       9.357  11.584  18.858  0.00  0.00    +0.000 C 
ATOM     20  C   UNL     1       9.196  12.927  18.218  0.00  0.00    +0.000 C 
ATOM     21  O   UNL     1       9.550  11.424  20.056  0.00  0.00    +0.000 OA
ENDBRANCH  18  19
ENDBRANCH  17  18
ENDBRANCH  16  17
ENDBRANCH  15  16
ENDBRANCH  13  15
ENDBRANCH  10  13
BRANCH  11  22
ATOM     22  O   UNL     1       3.691   6.502  18.678  0.00  0.00    +0.000 OA
BRANCH  22  23
ATOM     23  C   UNL     1       2.594   6.683  19.463  0.00  0.00    +0.000 C 
ATOM     24  O   UNL     1       2.200   5.951  20.352  0.00  0.00    +0.000 OA
BRANCH  23  25
ATOM     25  C   UNL     1       2.064   8.041  19.244  0.00  0.00    +0.000 A 
ATOM     26  C   UNL     1       2.229   8.647  17.993  0.00  0.00    +0.000 A 
ATOM     27  C   UNL     1       1.716   9.928  17.771  0.00  0.00    +0.000 A 
ATOM     28  C   UNL     1       1.052  10.604  18.798  0.00  0.00    +0.000 A 
ATOM     29  C   UNL     1       0.893   9.999  20.044  0.00  0.00    +0.000 A 
ATOM     30  C   UNL     1       1.398   8.718  20.264  0.00  0.00    +0.000 A 
ATOM     31  F   UNL     1       1.243   8.164  21.470  0.00  0.00    +0.000 F 
ENDBRANCH  23  25
ENDBRANCH  22  23
ENDBRANCH  11  22
TORSDOF 9
ENDMDL
MODEL 4
REMARK VINA RESULT:      -7.1      2.301      5.141
REMARK  Name = 
REMARK  12 active torsions:
REMARK  status: ('A' for Active; 'I' for Inactive)
REMARK    1  A    between atoms: C_8  and  C_9
REMARK    2  A    between atoms: C_10  and  C_11
REMARK    3  A    between atoms: C_11  and  C_12
REMARK    4  A    between atoms: C_11  and  C_13
REMARK    5  A    between atoms: C_13  and  C_14
REMARK    6  A    between atoms: C_14  and  C_15
REMARK    7  A    between atoms: C_15  and  O_16
REMARK    8  A    between atoms: O_16  and  C_17
REMARK    9  A    between atoms: C_17  and  C_18
REMARK   10  A    between atoms: C_20  and  O_21
REMARK   11  A    between atoms: O_21  and  C_22
REMARK   12  A    between atoms: C_22  and  C_24
REMARK                            x       y       z     vdW  Elec       q    Type
REMARK                         _______ _______ _______ _____ _____    ______ ____
ROOT
ATOM      1  C   UNL     1       6.352   5.678  19.234  0.00  0.00    +0.000 C 
ATOM      2  C   UNL     1       5.895   5.736  17.978  0.00  0.00    +0.000 C 
ATOM      3  C   UNL     1       6.713   6.292  16.868  0.00  0.00    +0.000 C 
ATOM      4  O   UNL     1       7.890   6.595  16.907  0.00  0.00    +0.000 OA
ATOM      5  O   UNL     1       5.895   6.396  15.779  0.00  0.00    +0.000 OA
ATOM      6  C   UNL     1       4.527   6.284  16.214  0.00  0.00    +0.000 C 
ATOM      7  C   UNL     1       4.023   7.686  16.551  0.00  0.00    +0.000 C 
ATOM      8  C   UNL     1       3.078   7.844  17.729  0.00  0.00    +0.000 C 
ATOM      9  C   UNL     1       2.617   9.282  17.795  0.00  0.00    +0.000 C 
ATOM     10  C   UNL     1       2.745   6.808  18.547  0.00  0.00    +0.000 C 
ATOM     11  C   UNL     1       3.314   5.400  18.255  0.00  0.00    +0.000 C 
ATOM     12  C   UNL     1       4.577   5.339  17.391  0.00  0.00    +0.000 C 
ENDROOT
BRANCH  10  13
ATOM     13  C   UNL     1       1.777   6.784  19.765  0.00  0.00    +0.000 C 
ATOM     14  C   UNL     1       2.430   6.108  20.992  0.00  0.00    +0.000 C 
BRANCH  13  15
ATOM     15  C   UNL     1       1.118   8.074  20.283  0.00  0.00    +0.000 C 
BRANCH  15  16
ATOM     16  C   UNL     1       1.372   8.372  21.762  0.00  0.00    +0.000 C 
BRANCH  16  17
ATOM     17  C   UNL     1       0.531   9.573  22.197  0.00  0.00    +0.000 C 
BRANCH  17  18
ATOM     18  O   UNL     1       1.170  10.788  21.776  0.00  0.00    +0.000 OA
BRANCH  18  19
ATOM     19  C   UNL     1       0.314  11.791  21.439  0.00  0.00    +0.000 C 
ATOM     20  C   UNL     1      -0.828  11.266  20.629  0.00  0.00    +0.000 C 
ATOM     21  O   UNL     1       0.461  12.974  21.716  0.00  0.00    +0.000 OA
ENDBRANCH  18  19
ENDBRANCH  17  18
ENDBRANCH  16  17
ENDBRANCH  15  16
ENDBRANCH  13  15
ENDBRANCH  10  13
BRANCH  11  22
ATOM     22  O   UNL     1       2.255   4.679  17.576  0.00  0.00    +0.000 OA
BRANCH  22  23
ATOM     23  C   UNL     1       2.236   3.329  17.741  0.00  0.00    +0.000 C 
ATOM     24  O   UNL     1       2.421   2.482  16.885  0.00  0.00    +0.000 OA
BRANCH  23  25
ATOM     25  C   UNL     1       2.195   3.020  19.182  0.00  0.00    +0.000 A 
ATOM     26  C   UNL     1       0.980   3.119  19.868  0.00  0.00    +0.000 A 
ATOM     27  C   UNL     1       0.927   2.814  21.232  0.00  0.00    +0.000 A 
ATOM     28  C   UNL     1       2.087   2.421  21.906  0.00  0.00    +0.000 A 
ATOM     29  C   UNL     1       3.297   2.328  21.219  0.00  0.00    +0.000 A 
ATOM     30  C   UNL     1       3.348   2.626  19.858  0.00  0.00    +0.000 A 
ATOM     31  F   UNL     1       4.522   2.540  19.225  0.00  0.00    +0.000 F 
ENDBRANCH  23  25
ENDBRANCH  22  23
ENDBRANCH  11  22
TORSDOF 9
ENDMDL
MODEL 5
REMARK VINA RESULT:      -7.1      3.032      6.419
REMARK  Name = 
REMARK  12 active torsions:
REMARK  status: ('A' for Active; 'I' for Inactive)
REMARK    1  A    between atoms: C_8  and  C_9
REMARK    2  A    between atoms: C_10  and  C_11
REMARK    3  A    between atoms: C_11  and  C_12
REMARK    4  A    between atoms: C_11  and  C_13
REMARK    5  A    between atoms: C_13  and  C_14
REMARK    6  A    between atoms: C_14  and  C_15
REMARK    7  A    between atoms: C_15  and  O_16
REMARK    8  A    between atoms: O_16  and  C_17
REMARK    9  A    between atoms: C_17  and  C_18
REMARK   10  A    between atoms: C_20  and  O_21
REMARK   11  A    between atoms: O_21  and  C_22
REMARK   12  A    between atoms: C_22  and  C_24
REMARK                            x       y       z     vdW  Elec       q    Type
REMARK                         _______ _______ _______ _____ _____    ______ ____
ROOT
ATOM      1  C   UNL     1       3.787   2.457  20.435  0.00  0.00    +0.000 C 
ATOM      2  C   UNL     1       2.886   3.017  19.619  0.00  0.00    +0.000 C 
ATOM      3  C   UNL     1       1.873   2.207  18.892  0.00  0.00    +0.000 C 
ATOM      4  O   UNL     1       1.628   1.026  19.053  0.00  0.00    +0.000 OA
ATOM      5  O   UNL     1       1.256   3.039  18.003  0.00  0.00    +0.000 OA
ATOM      6  C   UNL     1       2.047   4.235  17.860  0.00  0.00    +0.000 C 
ATOM      7  C   UNL     1       3.050   4.003  16.730  0.00  0.00    +0.000 C 
ATOM      8  C   UNL     1       4.440   4.596  16.875  0.00  0.00    +0.000 C 
ATOM      9  C   UNL     1       5.210   4.350  15.597  0.00  0.00    +0.000 C 
ATOM     10  C   UNL     1       4.852   5.235  18.005  0.00  0.00    +0.000 C 
ATOM     11  C   UNL     1       3.864   5.405  19.181  0.00  0.00    +0.000 C 
ATOM     12  C   UNL     1       2.673   4.442  19.217  0.00  0.00    +0.000 C 
ENDROOT
BRANCH  10  13
ATOM     13  C   UNL     1       6.214   5.924  18.307  0.00  0.00    +0.000 C 
ATOM     14  C   UNL     1       7.389   4.927  18.189  0.00  0.00    +0.000 C 
BRANCH  13  15
ATOM     15  C   UNL     1       6.647   7.194  17.554  0.00  0.00    +0.000 C 
BRANCH  15  16
ATOM     16  C   UNL     1       8.073   7.660  17.855  0.00  0.00    +0.000 C 
BRANCH  16  17
ATOM     17  C   UNL     1       8.097   9.182  18.005  0.00  0.00    +0.000 C 
BRANCH  17  18
ATOM     18  O   UNL     1       9.073   9.555  18.989  0.00  0.00    +0.000 OA
BRANCH  18  19
ATOM     19  C   UNL     1       9.307  10.893  19.075  0.00  0.00    +0.000 C 
ATOM     20  C   UNL     1       9.710  11.275  20.463  0.00  0.00    +0.000 C 
ATOM     21  O   UNL     1       9.173  11.698  18.163  0.00  0.00    +0.000 OA
ENDBRANCH  18  19
ENDBRANCH  17  18
ENDBRANCH  16  17
ENDBRANCH  15  16
ENDBRANCH  13  15
ENDBRANCH  10  13
BRANCH  11  22
ATOM     22  O   UNL     1       3.358   6.760  19.080  0.00  0.00    +0.000 OA
BRANCH  22  23
ATOM     23  C   UNL     1       2.267   7.060  19.835  0.00  0.00    +0.000 C 
ATOM     24  O   UNL     1       1.859   6.453  20.809  0.00  0.00    +0.000 OA
BRANCH  23  25
ATOM     25  C   UNL     1       1.764   8.390  19.448  0.00  0.00    +0.000 A 
ATOM     26  C   UNL     1       1.069   9.159  20.388  0.00  0.00    +0.000 A 
ATOM     27  C   UNL     1       0.601  10.429  20.035  0.00  0.00    +0.000 A 
ATOM     28  C   UNL     1       0.819  10.921  18.746  0.00  0.00    +0.000 A 
ATOM     29  C   UNL     1       1.509  10.150  17.811  0.00  0.00    +0.000 A 
ATOM     30  C   UNL     1       1.981   8.887  18.164  0.00  0.00    +0.000 A 
ATOM     31  F   UNL     1       2.629   8.163  17.247  0.00  0.00    +0.000 F 
ENDBRANCH  23  25
ENDBRANCH  22  23
ENDBRANCH  11  22
TORSDOF 9
ENDMDL
MODEL 6
REMARK VINA RESULT:      -7.0      1.708      2.333
REMARK  Name = 
REMARK  12 active torsions:
REMARK  status: ('A' for Active; 'I' for Inactive)
REMARK    1  A    between atoms: C_8  and  C_9
REMARK    2  A    between atoms: C_10  and  C_11
REMARK    3  A    between atoms: C_11  and  C_12
REMARK    4  A    between atoms: C_11  and  C_13
REMARK    5  A    between atoms: C_13  and  C_14
REMARK    6  A    between atoms: C_14  and  C_15
REMARK    7  A    between atoms: C_15  and  O_16
REMARK    8  A    between atoms: O_16  and  C_17
REMARK    9  A    between atoms: C_17  and  C_18
REMARK   10  A    between atoms: C_20  and  O_21
REMARK   11  A    between atoms: O_21  and  C_22
REMARK   12  A    between atoms: C_22  and  C_24
REMARK                            x       y       z     vdW  Elec       q    Type
REMARK                         _______ _______ _______ _____ _____    ______ ____
ROOT
ATOM      1  C   UNL     1       1.005   3.951  17.185  0.00  0.00    +0.000 C 
ATOM      2  C   UNL     1       1.611   3.729  18.357  0.00  0.00    +0.000 C 
ATOM      3  C   UNL     1       1.021   2.838  19.391  0.00  0.00    +0.000 C 
ATOM      4  O   UNL     1       0.060   2.104  19.261  0.00  0.00    +0.000 OA
ATOM      5  O   UNL     1       1.767   2.988  20.525  0.00  0.00    +0.000 OA
ATOM      6  C   UNL     1       2.570   4.177  20.398  0.00  0.00    +0.000 C 
ATOM      7  C   UNL     1       1.760   5.353  20.944  0.00  0.00    +0.000 C 
ATOM      8  C   UNL     1       1.888   6.695  20.246  0.00  0.00    +0.000 C 
ATOM      9  C   UNL     1       1.104   7.726  21.026  0.00  0.00    +0.000 C 
ATOM     10  C   UNL     1       2.613   6.864  19.105  0.00  0.00    +0.000 C 
ATOM     11  C   UNL     1       3.373   5.659  18.507  0.00  0.00    +0.000 C 
ATOM     12  C   UNL     1       2.886   4.268  18.925  0.00  0.00    +0.000 C 
ENDROOT
BRANCH  10  13
ATOM     13  C   UNL     1       2.876   8.161  18.287  0.00  0.00    +0.000 C 
ATOM     14  C   UNL     1       3.864   7.905  17.127  0.00  0.00    +0.000 C 
BRANCH  13  15
ATOM     15  C   UNL     1       1.715   8.977  17.693  0.00  0.00    +0.000 C 
BRANCH  15  16
ATOM     16  C   UNL     1       1.259  10.158  18.551  0.00  0.00    +0.000 C 
BRANCH  16  17
ATOM     17  C   UNL     1       2.121  11.383  18.242  0.00  0.00    +0.000 C 
BRANCH  17  18
ATOM     18  O   UNL     1       2.001  12.339  19.306  0.00  0.00    +0.000 OA
BRANCH  18  19
ATOM     19  C   UNL     1       2.445  13.588  18.998  0.00  0.00    +0.000 C 
ATOM     20  C   UNL     1       2.395  14.482  20.196  0.00  0.00    +0.000 C 
ATOM     21  O   UNL     1       2.803  13.961  17.889  0.00  0.00    +0.000 OA
ENDBRANCH  18  19
ENDBRANCH  17  18
ENDBRANCH  16  17
ENDBRANCH  15  16
ENDBRANCH  13  15
ENDBRANCH  10  13
BRANCH  11  22
ATOM     22  O   UNL     1       4.752   5.811  18.928  0.00  0.00    +0.000 OA
BRANCH  22  23
ATOM     23  C   UNL     1       5.590   4.776  18.653  0.00  0.00    +0.000 C 
ATOM     24  O   UNL     1       5.877   3.849  19.389  0.00  0.00    +0.000 OA
BRANCH  23  25
ATOM     25  C   UNL     1       5.930   4.800  17.219  0.00  0.00    +0.000 A 
ATOM     26  C   UNL     1       5.225   3.975  16.335  0.00  0.00    +0.000 A 
ATOM     27  C   UNL     1       5.530   4.001  14.970  0.00  0.00    +0.000 A 
ATOM     28  C   UNL     1       6.541   4.841  14.496  0.00  0.00    +0.000 A 
ATOM     29  C   UNL     1       7.243   5.659  15.380  0.00  0.00    +0.000 A 
ATOM     30  C   UNL     1       6.935   5.637  16.740  0.00  0.00    +0.000 A 
ATOM     31  F   UNL     1       7.631   6.422  17.569  0.00  0.00    +0.000 F 
ENDBRANCH  23  25
ENDBRANCH  22  23
ENDBRANCH  11  22
TORSDOF 9
ENDMDL
MODEL 7
REMARK VINA RESULT:      -6.9      2.625      6.813
REMARK  Name = 
REMARK  12 active torsions:
REMARK  status: ('A' for Active; 'I' for Inactive)
REMARK    1  A    between atoms: C_8  and  C_9
REMARK    2  A    between atoms: C_10  and  C_11
REMARK    3  A    between atoms: C_11  and  C_12
REMARK    4  A    between atoms: C_11  and  C_13
REMARK    5  A    between atoms: C_13  and  C_14
REMARK    6  A    between atoms: C_14  and  C_15
REMARK    7  A    between atoms: C_15  and  O_16
REMARK    8  A    between atoms: O_16  and  C_17
REMARK    9  A    between atoms: C_17  and  C_18
REMARK   10  A    between atoms: C_20  and  O_21
REMARK   11  A    between atoms: O_21  and  C_22
REMARK   12  A    between atoms: C_22  and  C_24
REMARK                            x       y       z     vdW  Elec       q    Type
REMARK                         _______ _______ _______ _____ _____    ______ ____
ROOT
ATOM      1  C   UNL     1       3.108   4.155  21.860  0.00  0.00    +0.000 C 
ATOM      2  C   UNL     1       2.104   4.025  20.986  0.00  0.00    +0.000 C 
ATOM      3  C   UNL     1       1.085   2.949  21.112  0.00  0.00    +0.000 C 
ATOM      4  O   UNL     1       0.933   2.193  22.052  0.00  0.00    +0.000 OA
ATOM      5  O   UNL     1       0.338   2.968  19.969  0.00  0.00    +0.000 OA
ATOM      6  C   UNL     1       1.033   3.741  18.972  0.00  0.00    +0.000 C 
ATOM      7  C   UNL     1       1.945   2.794  18.192  0.00  0.00    +0.000 C 
ATOM      8  C   UNL     1       3.301   3.311  17.746  0.00  0.00    +0.000 C 
ATOM      9  C   UNL     1       3.968   2.256  16.894  0.00  0.00    +0.000 C 
ATOM     10  C   UNL     1       3.769   4.541  18.096  0.00  0.00    +0.000 C 
ATOM     11  C   UNL     1       2.881   5.474  18.949  0.00  0.00    +0.000 C 
ATOM     12  C   UNL     1       1.763   4.805  19.756  0.00  0.00    +0.000 C 
ENDROOT
BRANCH  10  13
ATOM     13  C   UNL     1       5.105   5.236  17.703  0.00  0.00    +0.000 C 
ATOM     14  C   UNL     1       6.029   5.414  18.928  0.00  0.00    +0.000 C 
BRANCH  13  15
ATOM     15  C   UNL     1       5.987   4.682  16.572  0.00  0.00    +0.000 C 
BRANCH  15  16
ATOM     16  C   UNL     1       5.935   5.482  15.269  0.00  0.00    +0.000 C 
BRANCH  16  17
ATOM     17  C   UNL     1       6.695   4.733  14.174  0.00  0.00    +0.000 C 
BRANCH  17  18
ATOM     18  O   UNL     1       5.911   3.622  13.715  0.00  0.00    +0.000 OA
BRANCH  18  19
ATOM     19  C   UNL     1       6.008   3.372  12.381  0.00  0.00    +0.000 C 
ATOM     20  C   UNL     1       4.654   3.327  11.748  0.00  0.00    +0.000 C 
ATOM     21  O   UNL     1       7.049   3.167  11.770  0.00  0.00    +0.000 OA
ENDBRANCH  18  19
ENDBRANCH  17  18
ENDBRANCH  16  17
ENDBRANCH  15  16
ENDBRANCH  13  15
ENDBRANCH  10  13
BRANCH  11  22
ATOM     22  O   UNL     1       2.280   6.410  18.018  0.00  0.00    +0.000 OA
BRANCH  22  23
ATOM     23  C   UNL     1       2.725   7.695  18.075  0.00  0.00    +0.000 C 
ATOM     24  O   UNL     1       3.742   8.142  17.577  0.00  0.00    +0.000 OA
BRANCH  23  25
ATOM     25  C   UNL     1       1.661   8.548  18.637  0.00  0.00    +0.000 A 
ATOM     26  C   UNL     1       0.889   9.335  17.774  0.00  0.00    +0.000 A 
ATOM     27  C   UNL     1      -0.132  10.135  18.295  0.00  0.00    +0.000 A 
ATOM     28  C   UNL     1      -0.372  10.155  19.672  0.00  0.00    +0.000 A 
ATOM     29  C   UNL     1       0.402   9.372  20.527  0.00  0.00    +0.000 A 
ATOM     30  C   UNL     1       1.415   8.569  20.008  0.00  0.00    +0.000 A 
ATOM     31  F   UNL     1       2.150   7.836  20.850  0.00  0.00    +0.000 F 
ENDBRANCH  23  25
ENDBRANCH  22  23
ENDBRANCH  11  22
TORSDOF 9
ENDMDL
MODEL 8
REMARK VINA RESULT:      -6.9      2.687      6.880
REMARK  Name = 
REMARK  12 active torsions:
REMARK  status: ('A' for Active; 'I' for Inactive)
REMARK    1  A    between atoms: C_8  and  C_9
REMARK    2  A    between atoms: C_10  and  C_11
REMARK    3  A    between atoms: C_11  and  C_12
REMARK    4  A    between atoms: C_11  and  C_13
REMARK    5  A    between atoms: C_13  and  C_14
REMARK    6  A    between atoms: C_14  and  C_15
REMARK    7  A    between atoms: C_15  and  O_16
REMARK    8  A    between atoms: O_16  and  C_17
REMARK    9  A    between atoms: C_17  and  C_18
REMARK   10  A    between atoms: C_20  and  O_21
REMARK   11  A    between atoms: O_21  and  C_22
REMARK   12  A    between atoms: C_22  and  C_24
REMARK                            x       y       z     vdW  Elec       q    Type
REMARK                         _______ _______ _______ _____ _____    ______ ____
ROOT
ATOM      1  C   UNL     1       3.064   4.256  21.857  0.00  0.00    +0.000 C 
ATOM      2  C   UNL     1       2.079   4.094  20.966  0.00  0.00    +0.000 C 
ATOM      3  C   UNL     1       1.146   2.938  21.027  0.00  0.00    +0.000 C 
ATOM      4  O   UNL     1       1.045   2.126  21.927  0.00  0.00    +0.000 OA
ATOM      5  O   UNL     1       0.407   2.955  19.879  0.00  0.00    +0.000 OA
ATOM      6  C   UNL     1       1.048   3.829  18.929  0.00  0.00    +0.000 C 
ATOM      7  C   UNL     1       2.035   2.994  18.114  0.00  0.00    +0.000 C 
ATOM      8  C   UNL     1       3.351   3.636  17.708  0.00  0.00    +0.000 C 
ATOM      9  C   UNL     1       4.104   2.679  16.813  0.00  0.00    +0.000 C 
ATOM     10  C   UNL     1       3.720   4.879  18.124  0.00  0.00    +0.000 C 
ATOM     11  C   UNL     1       2.756   5.698  19.012  0.00  0.00    +0.000 C 
ATOM     12  C   UNL     1       1.688   4.905  19.772  0.00  0.00    +0.000 C 
ENDROOT
BRANCH  10  13
ATOM     13  C   UNL     1       5.001   5.693  17.780  0.00  0.00    +0.000 C 
ATOM     14  C   UNL     1       6.217   5.201  18.596  0.00  0.00    +0.000 C 
BRANCH  13  15
ATOM     15  C   UNL     1       5.485   5.839  16.327  0.00  0.00    +0.000 C 
BRANCH  15  16
ATOM     16  C   UNL     1       6.720   5.006  15.979  0.00  0.00    +0.000 C 
BRANCH  16  17
ATOM     17  C   UNL     1       6.832   4.859  14.461  0.00  0.00    +0.000 C 
BRANCH  17  18
ATOM     18  O   UNL     1       5.738   4.068  13.971  0.00  0.00    +0.000 OA
BRANCH  18  19
ATOM     19  C   UNL     1       5.871   3.657  12.680  0.00  0.00    +0.000 C 
ATOM     20  C   UNL     1       7.191   4.082  12.120  0.00  0.00    +0.000 C 
ATOM     21  O   UNL     1       5.023   3.056  12.034  0.00  0.00    +0.000 OA
ENDBRANCH  18  19
ENDBRANCH  17  18
ENDBRANCH  16  17
ENDBRANCH  15  16
ENDBRANCH  13  15
ENDBRANCH  10  13
BRANCH  11  22
ATOM     22  O   UNL     1       2.092   6.630  18.122  0.00  0.00    +0.000 OA
BRANCH  22  23
ATOM     23  C   UNL     1       2.425   7.942  18.256  0.00  0.00    +0.000 C 
ATOM     24  O   UNL     1       3.205   8.575  17.568  0.00  0.00    +0.000 OA
BRANCH  23  25
ATOM     25  C   UNL     1       1.512   8.574  19.226  0.00  0.00    +0.000 A 
ATOM     26  C   UNL     1       1.626   8.249  20.583  0.00  0.00    +0.000 A 
ATOM     27  C   UNL     1       0.775   8.855  21.513  0.00  0.00    +0.000 A 
ATOM     28  C   UNL     1      -0.189   9.771  21.086  0.00  0.00    +0.000 A 
ATOM     29  C   UNL     1      -0.301  10.088  19.733  0.00  0.00    +0.000 A 
ATOM     30  C   UNL     1       0.551   9.490  18.806  0.00  0.00    +0.000 A 
ATOM     31  F   UNL     1       0.416   9.802  17.514  0.00  0.00    +0.000 F 
ENDBRANCH  23  25
ENDBRANCH  22  23
ENDBRANCH  11  22
TORSDOF 9
ENDMDL
MODEL 9
REMARK VINA RESULT:      -6.8      2.143      4.983
REMARK  Name = 
REMARK  12 active torsions:
REMARK  status: ('A' for Active; 'I' for Inactive)
REMARK    1  A    between atoms: C_8  and  C_9
REMARK    2  A    between atoms: C_10  and  C_11
REMARK    3  A    between atoms: C_11  and  C_12
REMARK    4  A    between atoms: C_11  and  C_13
REMARK    5  A    between atoms: C_13  and  C_14
REMARK    6  A    between atoms: C_14  and  C_15
REMARK    7  A    between atoms: C_15  and  O_16
REMARK    8  A    between atoms: O_16  and  C_17
REMARK    9  A    between atoms: C_17  and  C_18
REMARK   10  A    between atoms: C_20  and  O_21
REMARK   11  A    between atoms: O_21  and  C_22
REMARK   12  A    between atoms: C_22  and  C_24
REMARK                            x       y       z     vdW  Elec       q    Type
REMARK                         _______ _______ _______ _____ _____    ______ ____
ROOT
ATOM      1  C   UNL     1       6.334   5.728  19.227  0.00  0.00    +0.000 C 
ATOM      2  C   UNL     1       5.824   5.775  17.990  0.00  0.00    +0.000 C 
ATOM      3  C   UNL     1       6.605   6.295  16.837  0.00  0.00    +0.000 C 
ATOM      4  O   UNL     1       7.789   6.574  16.822  0.00  0.00    +0.000 OA
ATOM      5  O   UNL     1       5.745   6.399  15.782  0.00  0.00    +0.000 OA
ATOM      6  C   UNL     1       4.394   6.322  16.277  0.00  0.00    +0.000 C 
ATOM      7  C   UNL     1       3.933   7.740  16.610  0.00  0.00    +0.000 C 
ATOM      8  C   UNL     1       3.043   7.937  17.824  0.00  0.00    +0.000 C 
ATOM      9  C   UNL     1       2.614   9.385  17.885  0.00  0.00    +0.000 C 
ATOM     10  C   UNL     1       2.724   6.921  18.673  0.00  0.00    +0.000 C 
ATOM     11  C   UNL     1       3.251   5.498  18.382  0.00  0.00    +0.000 C 
ATOM     12  C   UNL     1       4.475   5.396  17.466  0.00  0.00    +0.000 C 
ENDROOT
BRANCH  10  13
ATOM     13  C   UNL     1       1.808   6.938  19.931  0.00  0.00    +0.000 C 
ATOM     14  C   UNL     1       2.256   5.884  20.969  0.00  0.00    +0.000 C 
BRANCH  13  15
ATOM     15  C   UNL     1       1.557   8.237  20.716  0.00  0.00    +0.000 C 
BRANCH  15  16
ATOM     16  C   UNL     1       0.175   8.335  21.364  0.00  0.00    +0.000 C 
BRANCH  16  17
ATOM     17  C   UNL     1      -0.403   9.733  21.135  0.00  0.00    +0.000 C 
BRANCH  17  18
ATOM     18  O   UNL     1      -0.357  10.051  19.736  0.00  0.00    +0.000 OA
BRANCH  18  19
ATOM     19  C   UNL     1      -0.093  11.357  19.461  0.00  0.00    +0.000 C 
ATOM     20  C   UNL     1       0.776  11.958  20.519  0.00  0.00    +0.000 C 
ATOM     21  O   UNL     1      -0.530  11.986  18.506  0.00  0.00    +0.000 OA
ENDBRANCH  18  19
ENDBRANCH  17  18
ENDBRANCH  16  17
ENDBRANCH  15  16
ENDBRANCH  13  15
ENDBRANCH  10  13
BRANCH  11  22
ATOM     22  O   UNL     1       2.150   4.787  17.761  0.00  0.00    +0.000 OA
BRANCH  22  23
ATOM     23  C   UNL     1       2.210   3.429  17.787  0.00  0.00    +0.000 C 
ATOM     24  O   UNL     1       2.330   2.681  16.834  0.00  0.00    +0.000 OA
BRANCH  23  25
ATOM     25  C   UNL     1       2.353   2.980  19.185  0.00  0.00    +0.000 A 
ATOM     26  C   UNL     1       3.623   2.646  19.669  0.00  0.00    +0.000 A 
ATOM     27  C   UNL     1       3.770   2.235  20.997  0.00  0.00    +0.000 A 
ATOM     28  C   UNL     1       2.653   2.149  21.832  0.00  0.00    +0.000 A 
ATOM     29  C   UNL     1       1.389   2.479  21.343  0.00  0.00    +0.000 A 
ATOM     30  C   UNL     1       1.242   2.895  20.021  0.00  0.00    +0.000 A 
ATOM     31  F   UNL     1       0.019   3.195  19.574  0.00  0.00    +0.000 F 
ENDBRANCH  23  25
ENDBRANCH  22  23
ENDBRANCH  11  22
TORSDOF 9
ENDMDL
