MODEL 1
REMARK VINA RESULT:      -6.8      0.000      0.000
REMARK  Name = 
REMARK  6 active torsions:
REMARK  status: ('A' for Active; 'I' for Inactive)
REMARK    1  A    between atoms: C_1  and  C_2
REMARK    2  A    between atoms: N_8  and  C_9
REMARK    3  A    between atoms: C_11  and  O_12
REMARK    4  A    between atoms: O_12  and  C_13
REMARK    5  A    between atoms: C_13  and  C_14
REMARK    6  A    between atoms: C_13  and  C_15
REMARK                            x       y       z     vdW  Elec       q    Type
REMARK                         _______ _______ _______ _____ _____    ______ ____
ROOT
ATOM      1  C   UNL     1       0.689   1.716  19.067  0.00  0.00    +0.000 C 
ATOM      2  C   UNL     1       2.043   2.252  18.871  0.00  0.00    +0.000 A 
ATOM      3  C   UNL     1       3.151   2.443  19.664  0.00  0.00    +0.000 A 
ATOM      4  C   UNL     1       4.086   3.081  18.816  0.00  0.00    +0.000 A 
ATOM      5  N   UNL     1       5.342   3.527  19.186  0.00  0.00    +0.000 N 
ATOM      6  C   UNL     1       6.177   4.325  18.448  0.00  0.00    +0.000 C 
ATOM      7  O   UNL     1       7.288   4.624  18.874  0.00  0.00    +0.000 OA
ATOM      8  N   UNL     1       5.672   4.793  17.270  0.00  0.00    +0.000 N 
ATOM      9  N   UNL     1       3.578   3.215  17.583  0.00  0.00    +0.000 NA
ATOM     10  O   UNL     1       2.310   2.697  17.618  0.00  0.00    +0.000 OA
ATOM     11  H   UNL     1       5.690   3.286  20.099  0.00  0.00    +0.000 HD
ATOM     12  H   UNL     1       4.739   4.455  17.045  0.00  0.00    +0.000 HD
ENDROOT
BRANCH   8  13
ATOM     13  C   UNL     1       6.323   5.707  16.334  0.00  0.00    +0.000 C 
ATOM     14  C   UNL     1       7.380   4.979  15.471  0.00  0.00    +0.000 C 
ATOM     15  C   UNL     1       6.404   4.995  14.278  0.00  0.00    +0.000 C 
ATOM     16  C   UNL     1       5.523   5.997  15.051  0.00  0.00    +0.000 C 
BRANCH  15  17
ATOM     17  O   UNL     1       5.816   3.719  13.930  0.00  0.00    +0.000 OA
BRANCH  17  18
ATOM     18  C   UNL     1       6.011   3.242  12.592  0.00  0.00    +0.000 C 
ATOM     19  C   UNL     1       4.707   3.285  11.803  0.00  0.00    +0.000 C 
ATOM     20  C   UNL     1       7.051   4.136  11.925  0.00  0.00    +0.000 C 
ENDBRANCH  17  18
ENDBRANCH  15  17
ENDBRANCH   8  13
TORSDOF 3
ENDMDL
MODEL 2
REMARK VINA RESULT:      -6.7      1.678      5.822
REMARK  Name = 
REMARK  6 active torsions:
REMARK  status: ('A' for Active; 'I' for Inactive)
REMARK    1  A    between atoms: C_1  and  C_2
REMARK    2  A    between atoms: N_8  and  C_9
REMARK    3  A    between atoms: C_11  and  O_12
REMARK    4  A    between atoms: O_12  and  C_13
REMARK    5  A    between atoms: C_13  and  C_14
REMARK    6  A    between atoms: C_13  and  C_15
REMARK                            x       y       z     vdW  Elec       q    Type
REMARK                         _______ _______ _______ _____ _____    ______ ____
ROOT
ATOM      1  C   UNL     1       5.592   2.618  11.615  0.00  0.00    +0.000 C 
ATOM      2  C   UNL     1       5.909   3.508  12.742  0.00  0.00    +0.000 A 
ATOM      3  C   UNL     1       7.059   4.019  13.298  0.00  0.00    +0.000 A 
ATOM      4  C   UNL     1       6.610   4.754  14.420  0.00  0.00    +0.000 A 
ATOM      5  N   UNL     1       7.417   5.409  15.334  0.00  0.00    +0.000 N 
ATOM      6  C   UNL     1       7.025   5.947  16.533  0.00  0.00    +0.000 C 
ATOM      7  O   UNL     1       7.833   6.538  17.242  0.00  0.00    +0.000 OA
ATOM      8  N   UNL     1       5.726   5.732  16.890  0.00  0.00    +0.000 N 
ATOM      9  N   UNL     1       5.273   4.719  14.494  0.00  0.00    +0.000 NA
ATOM     10  O   UNL     1       4.839   3.946  13.448  0.00  0.00    +0.000 OA
ATOM     11  H   UNL     1       8.402   5.482  15.143  0.00  0.00    +0.000 HD
ATOM     12  H   UNL     1       5.173   5.231  16.197  0.00  0.00    +0.000 HD
ENDROOT
BRANCH   8  13
ATOM     13  C   UNL     1       5.076   6.137  18.135  0.00  0.00    +0.000 C 
ATOM     14  C   UNL     1       3.553   5.878  18.091  0.00  0.00    +0.000 C 
ATOM     15  C   UNL     1       3.745   4.642  18.990  0.00  0.00    +0.000 C 
ATOM     16  C   UNL     1       5.183   5.115  19.281  0.00  0.00    +0.000 C 
BRANCH  15  17
ATOM     17  O   UNL     1       3.583   3.359  18.339  0.00  0.00    +0.000 OA
BRANCH  17  18
ATOM     18  C   UNL     1       2.777   2.376  19.002  0.00  0.00    +0.000 C 
ATOM     19  C   UNL     1       2.893   2.508  20.517  0.00  0.00    +0.000 C 
ATOM     20  C   UNL     1       1.329   2.592  18.572  0.00  0.00    +0.000 C 
ENDBRANCH  17  18
ENDBRANCH  15  17
ENDBRANCH   8  13
TORSDOF 3
ENDMDL
MODEL 3
REMARK VINA RESULT:      -6.6      1.517      5.750
REMARK  Name = 
REMARK  6 active torsions:
REMARK  status: ('A' for Active; 'I' for Inactive)
REMARK    1  A    between atoms: C_1  and  C_2
REMARK    2  A    between atoms: N_8  and  C_9
REMARK    3  A    between atoms: C_11  and  O_12
REMARK    4  A    between atoms: O_12  and  C_13
REMARK    5  A    between atoms: C_13  and  C_14
REMARK    6  A    between atoms: C_13  and  C_15
REMARK                            x       y       z     vdW  Elec       q    Type
REMARK                         _______ _______ _______ _____ _____    ______ ____
ROOT
ATOM      1  C   UNL     1       5.341   3.001  11.899  0.00  0.00    +0.000 C 
ATOM      2  C   UNL     1       5.712   3.722  13.126  0.00  0.00    +0.000 A 
ATOM      3  C   UNL     1       6.809   4.431  13.556  0.00  0.00    +0.000 A 
ATOM      4  C   UNL     1       6.496   4.787  14.889  0.00  0.00    +0.000 A 
ATOM      5  N   UNL     1       7.328   5.467  15.761  0.00  0.00    +0.000 N 
ATOM      6  C   UNL     1       7.135   5.640  17.108  0.00  0.00    +0.000 C 
ATOM      7  O   UNL     1       7.931   6.298  17.769  0.00  0.00    +0.000 OA
ATOM      8  N   UNL     1       6.058   4.998  17.646  0.00  0.00    +0.000 N 
ATOM      9  N   UNL     1       5.269   4.355  15.210  0.00  0.00    +0.000 NA
ATOM     10  O   UNL     1       4.782   3.696  14.112  0.00  0.00    +0.000 OA
ATOM     11  H   UNL     1       8.186   5.855  15.406  0.00  0.00    +0.000 HD
ATOM     12  H   UNL     1       5.484   4.496  16.973  0.00  0.00    +0.000 HD
ENDROOT
BRANCH   8  13
ATOM     13  C   UNL     1       5.668   4.963  19.054  0.00  0.00    +0.000 C 
ATOM     14  C   UNL     1       4.388   5.792  19.309  0.00  0.00    +0.000 C 
ATOM     15  C   UNL     1       3.572   4.488  19.402  0.00  0.00    +0.000 C 
ATOM     16  C   UNL     1       4.895   3.701  19.479  0.00  0.00    +0.000 C 
BRANCH  15  17
ATOM     17  O   UNL     1       2.696   4.214  18.283  0.00  0.00    +0.000 OA
BRANCH  17  18
ATOM     18  C   UNL     1       1.468   3.526  18.555  0.00  0.00    +0.000 C 
ATOM     19  C   UNL     1       1.680   2.015  18.561  0.00  0.00    +0.000 C 
ATOM     20  C   UNL     1       0.968   3.985  19.921  0.00  0.00    +0.000 C 
ENDBRANCH  17  18
ENDBRANCH  15  17
ENDBRANCH   8  13
TORSDOF 3
ENDMDL
MODEL 4
REMARK VINA RESULT:      -6.5      5.715      7.477
REMARK  Name = 
REMARK  6 active torsions:
REMARK  status: ('A' for Active; 'I' for Inactive)
REMARK    1  A    between atoms: C_1  and  C_2
REMARK    2  A    between atoms: N_8  and  C_9
REMARK    3  A    between atoms: C_11  and  O_12
REMARK    4  A    between atoms: O_12  and  C_13
REMARK    5  A    between atoms: C_13  and  C_14
REMARK    6  A    between atoms: C_13  and  C_15
REMARK                            x       y       z     vdW  Elec       q    Type
REMARK                         _______ _______ _______ _____ _____    ______ ____
ROOT
ATOM      1  C   UNL     1      -0.934  10.294  23.262  0.00  0.00    +0.000 C 
ATOM      2  C   UNL     1      -0.120   9.966  22.082  0.00  0.00    +0.000 A 
ATOM      3  C   UNL     1      -0.045  10.413  20.783  0.00  0.00    +0.000 A 
ATOM      4  C   UNL     1       0.931   9.584  20.182  0.00  0.00    +0.000 A 
ATOM      5  N   UNL     1       1.314   9.618  18.853  0.00  0.00    +0.000 N 
ATOM      6  C   UNL     1       2.098   8.699  18.204  0.00  0.00    +0.000 C 
ATOM      7  O   UNL     1       2.398   8.860  17.026  0.00  0.00    +0.000 OA
ATOM      8  N   UNL     1       2.458   7.601  18.929  0.00  0.00    +0.000 N 
ATOM      9  N   UNL     1       1.437   8.734  21.085  0.00  0.00    +0.000 NA
ATOM     10  O   UNL     1       0.785   8.974  22.266  0.00  0.00    +0.000 OA
ATOM     11  H   UNL     1       0.968  10.362  18.270  0.00  0.00    +0.000 HD
ATOM     12  H   UNL     1       2.141   7.608  19.896  0.00  0.00    +0.000 HD
ENDROOT
BRANCH   8  13
ATOM     13  C   UNL     1       3.227   6.450  18.461  0.00  0.00    +0.000 C 
ATOM     14  C   UNL     1       3.612   5.511  19.627  0.00  0.00    +0.000 C 
ATOM     15  C   UNL     1       2.512   4.526  19.184  0.00  0.00    +0.000 C 
ATOM     16  C   UNL     1       2.385   5.309  17.863  0.00  0.00    +0.000 C 
BRANCH  15  17
ATOM     17  O   UNL     1       1.345   4.461  20.038  0.00  0.00    +0.000 OA
BRANCH  17  18
ATOM     18  C   UNL     1       0.824   3.163  20.351  0.00  0.00    +0.000 C 
ATOM     19  C   UNL     1       0.964   2.218  19.162  0.00  0.00    +0.000 C 
ATOM     20  C   UNL     1       1.607   2.619  21.542  0.00  0.00    +0.000 C 
ENDBRANCH  17  18
ENDBRANCH  15  17
ENDBRANCH   8  13
TORSDOF 3
ENDMDL
MODEL 5
REMARK VINA RESULT:      -6.5      1.830      5.634
REMARK  Name = 
REMARK  6 active torsions:
REMARK  status: ('A' for Active; 'I' for Inactive)
REMARK    1  A    between atoms: C_1  and  C_2
REMARK    2  A    between atoms: N_8  and  C_9
REMARK    3  A    between atoms: C_11  and  O_12
REMARK    4  A    between atoms: O_12  and  C_13
REMARK    5  A    between atoms: C_13  and  C_14
REMARK    6  A    between atoms: C_13  and  C_15
REMARK                            x       y       z     vdW  Elec       q    Type
REMARK                         _______ _______ _______ _____ _____    ______ ____
ROOT
ATOM      1  C   UNL     1       6.032   2.883  12.059  0.00  0.00    +0.000 C 
ATOM      2  C   UNL     1       6.179   3.802  13.198  0.00  0.00    +0.000 A 
ATOM      3  C   UNL     1       7.234   4.373  13.872  0.00  0.00    +0.000 A 
ATOM      4  C   UNL     1       6.627   5.102  14.921  0.00  0.00    +0.000 A 
ATOM      5  N   UNL     1       7.294   5.805  15.908  0.00  0.00    +0.000 N 
ATOM      6  C   UNL     1       6.744   6.342  17.043  0.00  0.00    +0.000 C 
ATOM      7  O   UNL     1       7.438   6.979  17.829  0.00  0.00    +0.000 OA
ATOM      8  N   UNL     1       5.422   6.074  17.253  0.00  0.00    +0.000 N 
ATOM      9  N   UNL     1       5.293   5.007  14.842  0.00  0.00    +0.000 NA
ATOM     10  O   UNL     1       5.016   4.201  13.768  0.00  0.00    +0.000 OA
ATOM     11  H   UNL     1       8.291   5.921  15.829  0.00  0.00    +0.000 HD
ATOM     12  H   UNL     1       4.976   5.539  16.512  0.00  0.00    +0.000 HD
ENDROOT
BRANCH   8  13
ATOM     13  C   UNL     1       4.617   6.466  18.408  0.00  0.00    +0.000 C 
ATOM     14  C   UNL     1       3.105   6.391  18.097  0.00  0.00    +0.000 C 
ATOM     15  C   UNL     1       3.012   5.083  18.905  0.00  0.00    +0.000 C 
ATOM     16  C   UNL     1       4.421   5.363  19.464  0.00  0.00    +0.000 C 
BRANCH  15  17
ATOM     17  O   UNL     1       2.828   3.875  18.128  0.00  0.00    +0.000 OA
BRANCH  17  18
ATOM     18  C   UNL     1       2.530   2.667  18.839  0.00  0.00    +0.000 C 
ATOM     19  C   UNL     1       1.070   2.269  18.650  0.00  0.00    +0.000 C 
ATOM     20  C   UNL     1       3.441   1.570  18.298  0.00  0.00    +0.000 C 
ENDBRANCH  17  18
ENDBRANCH  15  17
ENDBRANCH   8  13
TORSDOF 3
ENDMDL
MODEL 6
REMARK VINA RESULT:      -6.4      1.377      5.668
REMARK  Name = 
REMARK  6 active torsions:
REMARK  status: ('A' for Active; 'I' for Inactive)
REMARK    1  A    between atoms: C_1  and  C_2
REMARK    2  A    between atoms: N_8  and  C_9
REMARK    3  A    between atoms: C_11  and  O_12
REMARK    4  A    between atoms: O_12  and  C_13
REMARK    5  A    between atoms: C_13  and  C_14
REMARK    6  A    between atoms: C_13  and  C_15
REMARK                            x       y       z     vdW  Elec       q    Type
REMARK                         _______ _______ _______ _____ _____    ______ ____
ROOT
ATOM      1  C   UNL     1       5.585   3.538  12.162  0.00  0.00    +0.000 C 
ATOM      2  C   UNL     1       5.954   3.914  13.535  0.00  0.00    +0.000 A 
ATOM      3  C   UNL     1       7.124   4.224  14.190  0.00  0.00    +0.000 A 
ATOM      4  C   UNL     1       6.733   4.416  15.535  0.00  0.00    +0.000 A 
ATOM      5  N   UNL     1       7.582   4.692  16.592  0.00  0.00    +0.000 N 
ATOM      6  C   UNL     1       7.259   4.678  17.925  0.00  0.00    +0.000 C 
ATOM      7  O   UNL     1       8.097   4.979  18.770  0.00  0.00    +0.000 OA
ATOM      8  N   UNL     1       5.996   4.263  18.231  0.00  0.00    +0.000 N 
ATOM      9  N   UNL     1       5.406   4.277  15.658  0.00  0.00    +0.000 NA
ATOM     10  O   UNL     1       4.924   3.968  14.413  0.00  0.00    +0.000 OA
ATOM     11  H   UNL     1       8.548   4.894  16.396  0.00  0.00    +0.000 HD
ATOM     12  H   UNL     1       5.412   4.053  17.425  0.00  0.00    +0.000 HD
ENDROOT
BRANCH   8  13
ATOM     13  C   UNL     1       5.425   4.093  19.566  0.00  0.00    +0.000 C 
ATOM     14  C   UNL     1       3.985   4.649  19.642  0.00  0.00    +0.000 C 
ATOM     15  C   UNL     1       3.435   3.210  19.594  0.00  0.00    +0.000 C 
ATOM     16  C   UNL     1       4.863   2.689  19.854  0.00  0.00    +0.000 C 
BRANCH  15  17
ATOM     17  O   UNL     1       2.797   2.821  18.354  0.00  0.00    +0.000 OA
BRANCH  17  18
ATOM     18  C   UNL     1       1.382   3.017  18.247  0.00  0.00    +0.000 C 
ATOM     19  C   UNL     1       0.723   2.999  19.623  0.00  0.00    +0.000 C 
ATOM     20  C   UNL     1       1.146   4.367  17.577  0.00  0.00    +0.000 C 
ENDBRANCH  17  18
ENDBRANCH  15  17
ENDBRANCH   8  13
TORSDOF 3
ENDMDL
MODEL 7
REMARK VINA RESULT:      -6.4      3.086      4.589
REMARK  Name = 
REMARK  6 active torsions:
REMARK  status: ('A' for Active; 'I' for Inactive)
REMARK    1  A    between atoms: C_1  and  C_2
REMARK    2  A    between atoms: N_8  and  C_9
REMARK    3  A    between atoms: C_11  and  O_12
REMARK    4  A    between atoms: O_12  and  C_13
REMARK    5  A    between atoms: C_13  and  C_14
REMARK    6  A    between atoms: C_13  and  C_15
REMARK                            x       y       z     vdW  Elec       q    Type
REMARK                         _______ _______ _______ _____ _____    ______ ____
ROOT
ATOM      1  C   UNL     1       1.320   8.225  21.138  0.00  0.00    +0.000 C 
ATOM      2  C   UNL     1       1.749   7.084  20.315  0.00  0.00    +0.000 A 
ATOM      3  C   UNL     1       1.711   5.714  20.437  0.00  0.00    +0.000 A 
ATOM      4  C   UNL     1       2.378   5.241  19.282  0.00  0.00    +0.000 A 
ATOM      5  N   UNL     1       2.641   3.915  18.987  0.00  0.00    +0.000 N 
ATOM      6  C   UNL     1       3.458   3.446  17.990  0.00  0.00    +0.000 C 
ATOM      7  O   UNL     1       3.582   2.240  17.805  0.00  0.00    +0.000 OA
ATOM      8  N   UNL     1       4.142   4.391  17.283  0.00  0.00    +0.000 N 
ATOM      9  N   UNL     1       2.743   6.268  18.503  0.00  0.00    +0.000 NA
ATOM     10  O   UNL     1       2.348   7.412  19.145  0.00  0.00    +0.000 OA
ATOM     11  H   UNL     1       2.233   3.201  19.567  0.00  0.00    +0.000 HD
ATOM     12  H   UNL     1       3.933   5.351  17.545  0.00  0.00    +0.000 HD
ENDROOT
BRANCH   8  13
ATOM     13  C   UNL     1       5.121   4.159  16.222  0.00  0.00    +0.000 C 
ATOM     14  C   UNL     1       5.276   5.399  15.312  0.00  0.00    +0.000 C 
ATOM     15  C   UNL     1       6.613   5.729  16.005  0.00  0.00    +0.000 C 
ATOM     16  C   UNL     1       6.590   4.329  16.649  0.00  0.00    +0.000 C 
BRANCH  15  17
ATOM     17  O   UNL     1       6.595   6.873  16.892  0.00  0.00    +0.000 OA
BRANCH  17  18
ATOM     18  C   UNL     1       7.832   7.254  17.508  0.00  0.00    +0.000 C 
ATOM     19  C   UNL     1       7.884   8.761  17.740  0.00  0.00    +0.000 C 
ATOM     20  C   UNL     1       7.936   6.520  18.841  0.00  0.00    +0.000 C 
ENDBRANCH  17  18
ENDBRANCH  15  17
ENDBRANCH   8  13
TORSDOF 3
ENDMDL
MODEL 8
REMARK VINA RESULT:      -6.1      2.957      6.749
REMARK  Name = 
REMARK  6 active torsions:
REMARK  status: ('A' for Active; 'I' for Inactive)
REMARK    1  A    between atoms: C_1  and  C_2
REMARK    2  A    between atoms: N_8  and  C_9
REMARK    3  A    between atoms: C_11  and  O_12
REMARK    4  A    between atoms: O_12  and  C_13
REMARK    5  A    between atoms: C_13  and  C_14
REMARK    6  A    between atoms: C_13  and  C_15
REMARK                            x       y       z     vdW  Elec       q    Type
REMARK                         _______ _______ _______ _____ _____    ______ ____
ROOT
ATOM      1  C   UNL     1       8.055   7.234  18.290  0.00  0.00    +0.000 C 
ATOM      2  C   UNL     1       7.152   6.073  18.308  0.00  0.00    +0.000 A 
ATOM      3  C   UNL     1       6.608   5.235  17.362  0.00  0.00    +0.000 A 
ATOM      4  C   UNL     1       5.761   4.376  18.100  0.00  0.00    +0.000 A 
ATOM      5  N   UNL     1       4.948   3.390  17.569  0.00  0.00    +0.000 N 
ATOM      6  C   UNL     1       3.972   2.690  18.231  0.00  0.00    +0.000 C 
ATOM      7  O   UNL     1       3.341   1.810  17.655  0.00  0.00    +0.000 OA
ATOM      8  N   UNL     1       3.728   3.074  19.517  0.00  0.00    +0.000 N 
ATOM      9  N   UNL     1       5.837   4.658  19.407  0.00  0.00    +0.000 NA
ATOM     10  O   UNL     1       6.705   5.711  19.535  0.00  0.00    +0.000 OA
ATOM     11  H   UNL     1       5.035   3.167  16.591  0.00  0.00    +0.000 HD
ATOM     12  H   UNL     1       4.336   3.814  19.861  0.00  0.00    +0.000 HD
ENDROOT
BRANCH   8  13
ATOM     13  C   UNL     1       2.704   2.542  20.415  0.00  0.00    +0.000 C 
ATOM     14  C   UNL     1       2.330   3.562  21.516  0.00  0.00    +0.000 C 
ATOM     15  C   UNL     1       1.022   3.879  20.765  0.00  0.00    +0.000 C 
ATOM     16  C   UNL     1       1.263   2.639  19.882  0.00  0.00    +0.000 C 
BRANCH  15  17
ATOM     17  O   UNL     1       0.972   5.168  20.107  0.00  0.00    +0.000 OA
BRANCH  17  18
ATOM     18  C   UNL     1       1.989   6.122  20.439  0.00  0.00    +0.000 C 
ATOM     19  C   UNL     1       2.789   6.519  19.203  0.00  0.00    +0.000 C 
ATOM     20  C   UNL     1       1.302   7.350  21.029  0.00  0.00    +0.000 C 
ENDBRANCH  17  18
ENDBRANCH  15  17
ENDBRANCH   8  13
TORSDOF 3
ENDMDL
MODEL 9
REMARK VINA RESULT:      -6.0      3.907      6.881
REMARK  Name = 
REMARK  6 active torsions:
REMARK  status: ('A' for Active; 'I' for Inactive)
REMARK    1  A    between atoms: C_1  and  C_2
REMARK    2  A    between atoms: N_8  and  C_9
REMARK    3  A    between atoms: C_11  and  O_12
REMARK    4  A    between atoms: O_12  and  C_13
REMARK    5  A    between atoms: C_13  and  C_14
REMARK    6  A    between atoms: C_13  and  C_15
REMARK                            x       y       z     vdW  Elec       q    Type
REMARK                         _______ _______ _______ _____ _____    ______ ____
ROOT
ATOM      1  C   UNL     1       9.406  12.102  18.057  0.00  0.00    +0.000 C 
ATOM      2  C   UNL     1       8.952  10.716  18.242  0.00  0.00    +0.000 A 
ATOM      3  C   UNL     1       9.304   9.666  19.058  0.00  0.00    +0.000 A 
ATOM      4  C   UNL     1       8.482   8.597  18.630  0.00  0.00    +0.000 A 
ATOM      5  N   UNL     1       8.514   7.305  19.122  0.00  0.00    +0.000 N 
ATOM      6  C   UNL     1       7.881   6.211  18.589  0.00  0.00    +0.000 C 
ATOM      7  O   UNL     1       7.958   5.118  19.142  0.00  0.00    +0.000 OA
ATOM      8  N   UNL     1       7.230   6.412  17.407  0.00  0.00    +0.000 N 
ATOM      9  N   UNL     1       7.660   9.005  17.654  0.00  0.00    +0.000 NA
ATOM     10  O   UNL     1       7.952  10.323  17.416  0.00  0.00    +0.000 OA
ATOM     11  H   UNL     1       9.079   7.110  19.932  0.00  0.00    +0.000 HD
ATOM     12  H   UNL     1       7.247   7.373  17.073  0.00  0.00    +0.000 HD
ENDROOT
BRANCH   8  13
ATOM     13  C   UNL     1       6.539   5.408  16.601  0.00  0.00    +0.000 C 
ATOM     14  C   UNL     1       5.666   4.480  17.477  0.00  0.00    +0.000 C 
ATOM     15  C   UNL     1       4.407   5.233  17.004  0.00  0.00    +0.000 C 
ATOM     16  C   UNL     1       5.257   5.906  15.908  0.00  0.00    +0.000 C 
BRANCH  15  17
ATOM     17  O   UNL     1       3.782   6.092  17.987  0.00  0.00    +0.000 OA
BRANCH  17  18
ATOM     18  C   UNL     1       2.421   5.817  18.340  0.00  0.00    +0.000 C 
ATOM     19  C   UNL     1       1.962   4.489  17.746  0.00  0.00    +0.000 C 
ATOM     20  C   UNL     1       2.335   5.761  19.862  0.00  0.00    +0.000 C 
ENDBRANCH  17  18
ENDBRANCH  15  17
ENDBRANCH   8  13
TORSDOF 3
ENDMDL
