MODEL 1
REMARK VINA RESULT:      -8.3      0.000      0.000
REMARK  Name = 
REMARK  9 active torsions:
REMARK  status: ('A' for Active; 'I' for Inactive)
REMARK    1  A    between atoms: C_1  and  C_2
REMARK    2  A    between atoms: C_6  and  C_7
REMARK    3  A    between atoms: C_8  and  C_9
REMARK    4  A    between atoms: C_13  and  C_14
REMARK    5  A    between atoms: C_14  and  O_15
REMARK    6  A    between atoms: O_15  and  C_16
REMARK    7  A    between atoms: C_23  and  C_24
REMARK    8  A    between atoms: C_24  and  C_25
REMARK    9  A    between atoms: C_25  and  O_27
REMARK                            x       y       z     vdW  Elec       q    Type
REMARK                         _______ _______ _______ _____ _____    ______ ____
ROOT
ATOM      1  C   UNL     1       8.418   9.398  18.059  0.00  0.00    +0.000 C 
ENDROOT
BRANCH   1   6
ATOM      2  C   UNL     1       9.837  12.893  18.782  0.00  0.00    +0.000 A 
ATOM      3  C   UNL     1      10.123  12.721  20.149  0.00  0.00    +0.000 A 
ATOM      4  C   UNL     1      10.035  11.474  20.784  0.00  0.00    +0.000 A 
ATOM      5  C   UNL     1       9.537  10.377  20.095  0.00  0.00    +0.000 A 
ATOM      6  C   UNL     1       9.165  10.515  18.757  0.00  0.00    +0.000 A 
ATOM      7  C   UNL     1       9.376  11.747  18.114  0.00  0.00    +0.000 A 
BRANCH   2  15
ATOM      8  C   UNL     1      12.332  13.519  17.054  0.00  0.00    +0.000 C 
ATOM      9  C   UNL     1      11.187  14.484  17.276  0.00  0.00    +0.000 A 
ATOM     10  C   UNL     1      11.356  15.746  16.667  0.00  0.00    +0.000 A 
ATOM     11  C   UNL     1      10.383  16.727  16.759  0.00  0.00    +0.000 A 
ATOM     12  C   UNL     1       9.233  16.471  17.486  0.00  0.00    +0.000 A 
ATOM     13  C   UNL     1       9.044  15.245  18.157  0.00  0.00    +0.000 A 
ATOM     14  C   UNL     1       7.774  15.144  18.971  0.00  0.00    +0.000 C 
ATOM     15  C   UNL     1      10.018  14.200  18.059  0.00  0.00    +0.000 A 
ENDBRANCH   2  15
ENDBRANCH   1   6
BRANCH   1  16
ATOM     16  O   UNL     1       8.547   8.165  18.762  0.00  0.00    +0.000 OA
BRANCH  16  17
ATOM     17  C   UNL     1       7.777   7.135  18.293  0.00  0.00    +0.000 A 
ATOM     18  C   UNL     1       8.033   5.874  18.865  0.00  0.00    +0.000 A 
ATOM     19  C   UNL     1       7.272   4.754  18.499  0.00  0.00    +0.000 A 
ATOM     20  C   UNL     1       6.270   4.928  17.561  0.00  0.00    +0.000 A 
ATOM     21  C   UNL     1       6.100   6.128  16.961  0.00  0.00    +0.000 A 
ATOM     22  C   UNL     1       6.798   7.258  17.309  0.00  0.00    +0.000 A 
ATOM     23  C   UNL     1       5.073   5.622  16.041  0.00  0.00    +0.000 C 
ATOM     24  C   UNL     1       5.215   4.139  16.703  0.00  0.00    +0.000 C 
BRANCH  24  25
ATOM     25  C   UNL     1       3.632   3.974  16.733  0.00  0.00    +0.000 C 
BRANCH  25  26
ATOM     26  C   UNL     1       3.062   2.960  17.698  0.00  0.00    +0.000 C 
ATOM     27  O   UNL     1       3.481   1.825  17.868  0.00  0.00    +0.000 OA
BRANCH  26  28
ATOM     28  O   UNL     1       1.984   3.439  18.364  0.00  0.00    +0.000 OA
ATOM     29  H   UNL     1       2.203   3.870  19.212  0.00  0.00    +0.000 HD
ENDBRANCH  26  28
ENDBRANCH  25  26
ENDBRANCH  24  25
ENDBRANCH  16  17
ENDBRANCH   1  16
TORSDOF 7
ENDMDL
MODEL 2
REMARK VINA RESULT:      -8.2      7.242      9.537
REMARK  Name = 
REMARK  9 active torsions:
REMARK  status: ('A' for Active; 'I' for Inactive)
REMARK    1  A    between atoms: C_1  and  C_2
REMARK    2  A    between atoms: C_6  and  C_7
REMARK    3  A    between atoms: C_8  and  C_9
REMARK    4  A    between atoms: C_13  and  C_14
REMARK    5  A    between atoms: C_14  and  O_15
REMARK    6  A    between atoms: O_15  and  C_16
REMARK    7  A    between atoms: C_23  and  C_24
REMARK    8  A    between atoms: C_24  and  C_25
REMARK    9  A    between atoms: C_25  and  O_27
REMARK                            x       y       z     vdW  Elec       q    Type
REMARK                         _______ _______ _______ _____ _____    ______ ____
ROOT
ATOM      1  C   UNL     1       1.513   9.175  19.020  0.00  0.00    +0.000 C 
ENDROOT
BRANCH   1   6
ATOM      2  C   UNL     1      -1.311  11.694  18.369  0.00  0.00    +0.000 A 
ATOM      3  C   UNL     1      -0.550  12.877  18.423  0.00  0.00    +0.000 A 
ATOM      4  C   UNL     1       0.850  12.866  18.486  0.00  0.00    +0.000 A 
ATOM      5  C   UNL     1       1.531  11.664  18.622  0.00  0.00    +0.000 A 
ATOM      6  C   UNL     1       0.814  10.467  18.652  0.00  0.00    +0.000 A 
ATOM      7  C   UNL     1      -0.578  10.500  18.466  0.00  0.00    +0.000 A 
BRANCH   2  15
ATOM      8  C   UNL     1      -2.697  10.813  15.741  0.00  0.00    +0.000 C 
ATOM      9  C   UNL     1      -3.435  11.288  16.973  0.00  0.00    +0.000 A 
ATOM     10  C   UNL     1      -4.838  11.355  16.829  0.00  0.00    +0.000 A 
ATOM     11  C   UNL     1      -5.652  11.748  17.877  0.00  0.00    +0.000 A 
ATOM     12  C   UNL     1      -5.075  12.108  19.083  0.00  0.00    +0.000 A 
ATOM     13  C   UNL     1      -3.675  12.110  19.257  0.00  0.00    +0.000 A 
ATOM     14  C   UNL     1      -3.194  12.601  20.603  0.00  0.00    +0.000 C 
ATOM     15  C   UNL     1      -2.807  11.683  18.202  0.00  0.00    +0.000 A 
ENDBRANCH   2  15
ENDBRANCH   1   6
BRANCH   1  16
ATOM     16  O   UNL     1       2.536   8.850  18.082  0.00  0.00    +0.000 OA
BRANCH  16  17
ATOM     17  C   UNL     1       2.773   7.513  17.907  0.00  0.00    +0.000 A 
ATOM     18  C   UNL     1       4.071   7.176  17.478  0.00  0.00    +0.000 A 
ATOM     19  C   UNL     1       4.444   5.833  17.313  0.00  0.00    +0.000 A 
ATOM     20  C   UNL     1       3.500   4.859  17.580  0.00  0.00    +0.000 A 
ATOM     21  C   UNL     1       2.234   5.208  17.906  0.00  0.00    +0.000 A 
ATOM     22  C   UNL     1       1.832   6.505  18.110  0.00  0.00    +0.000 A 
ATOM     23  C   UNL     1       1.754   3.820  17.897  0.00  0.00    +0.000 C 
ATOM     24  C   UNL     1       3.250   3.309  17.499  0.00  0.00    +0.000 C 
BRANCH  24  25
ATOM     25  C   UNL     1       3.153   2.125  18.558  0.00  0.00    +0.000 C 
BRANCH  25  26
ATOM     26  C   UNL     1       3.875   2.314  19.873  0.00  0.00    +0.000 C 
ATOM     27  O   UNL     1       3.342   2.481  20.960  0.00  0.00    +0.000 OA
BRANCH  26  28
ATOM     28  O   UNL     1       5.220   2.303  19.724  0.00  0.00    +0.000 OA
ATOM     29  H   UNL     1       5.712   2.248  20.566  0.00  0.00    +0.000 HD
ENDBRANCH  26  28
ENDBRANCH  25  26
ENDBRANCH  24  25
ENDBRANCH  16  17
ENDBRANCH   1  16
TORSDOF 7
ENDMDL
MODEL 3
REMARK VINA RESULT:      -8.1      0.969      2.010
REMARK  Name = 
REMARK  9 active torsions:
REMARK  status: ('A' for Active; 'I' for Inactive)
REMARK    1  A    between atoms: C_1  and  C_2
REMARK    2  A    between atoms: C_6  and  C_7
REMARK    3  A    between atoms: C_8  and  C_9
REMARK    4  A    between atoms: C_13  and  C_14
REMARK    5  A    between atoms: C_14  and  O_15
REMARK    6  A    between atoms: O_15  and  C_16
REMARK    7  A    between atoms: C_23  and  C_24
REMARK    8  A    between atoms: C_24  and  C_25
REMARK    9  A    between atoms: C_25  and  O_27
REMARK                            x       y       z     vdW  Elec       q    Type
REMARK                         _______ _______ _______ _____ _____    ______ ____
ROOT
ATOM      1  C   UNL     1       7.919   9.507  17.737  0.00  0.00    +0.000 C 
ENDROOT
BRANCH   1   6
ATOM      2  C   UNL     1       9.768  12.743  18.660  0.00  0.00    +0.000 A 
ATOM      3  C   UNL     1      10.221  12.366  19.938  0.00  0.00    +0.000 A 
ATOM      4  C   UNL     1      10.096  11.056  20.422  0.00  0.00    +0.000 A 
ATOM      5  C   UNL     1       9.400  10.107  19.687  0.00  0.00    +0.000 A 
ATOM      6  C   UNL     1       8.864  10.454  18.447  0.00  0.00    +0.000 A 
ATOM      7  C   UNL     1       9.108  11.740  17.933  0.00  0.00    +0.000 A 
BRANCH   2  15
ATOM      8  C   UNL     1       7.787  15.080  19.128  0.00  0.00    +0.000 C 
ATOM      9  C   UNL     1       9.044  15.186  18.294  0.00  0.00    +0.000 A 
ATOM     10  C   UNL     1       9.238  16.442  17.681  0.00  0.00    +0.000 A 
ATOM     11  C   UNL     1      10.356  16.702  16.906  0.00  0.00    +0.000 A 
ATOM     12  C   UNL     1      11.288  15.698  16.708  0.00  0.00    +0.000 A 
ATOM     13  C   UNL     1      11.110  14.410  17.255  0.00  0.00    +0.000 A 
ATOM     14  C   UNL     1      12.173  13.401  16.887  0.00  0.00    +0.000 C 
ATOM     15  C   UNL     1       9.979  14.117  18.083  0.00  0.00    +0.000 A 
ENDBRANCH   2  15
ENDBRANCH   1   6
BRANCH   1  16
ATOM     16  O   UNL     1       8.446   8.183  17.690  0.00  0.00    +0.000 OA
BRANCH  16  17
ATOM     17  C   UNL     1       7.524   7.177  17.796  0.00  0.00    +0.000 A 
ATOM     18  C   UNL     1       7.709   6.292  18.876  0.00  0.00    +0.000 A 
ATOM     19  C   UNL     1       6.797   5.253  19.114  0.00  0.00    +0.000 A 
ATOM     20  C   UNL     1       5.719   5.125  18.257  0.00  0.00    +0.000 A 
ATOM     21  C   UNL     1       5.609   5.931  17.176  0.00  0.00    +0.000 A 
ATOM     22  C   UNL     1       6.457   6.980  16.921  0.00  0.00    +0.000 A 
ATOM     23  C   UNL     1       4.437   5.218  16.652  0.00  0.00    +0.000 C 
ATOM     24  C   UNL     1       4.497   4.195  17.921  0.00  0.00    +0.000 C 
BRANCH  24  25
ATOM     25  C   UNL     1       2.919   4.295  18.107  0.00  0.00    +0.000 C 
BRANCH  25  26
ATOM     26  C   UNL     1       2.392   4.340  19.523  0.00  0.00    +0.000 C 
ATOM     27  O   UNL     1       2.913   4.929  20.458  0.00  0.00    +0.000 OA
BRANCH  26  28
ATOM     28  O   UNL     1       1.256   3.617  19.668  0.00  0.00    +0.000 OA
ATOM     29  H   UNL     1       0.466   4.040  19.280  0.00  0.00    +0.000 HD
ENDBRANCH  26  28
ENDBRANCH  25  26
ENDBRANCH  24  25
ENDBRANCH  16  17
ENDBRANCH   1  16
TORSDOF 7
ENDMDL
MODEL 4
REMARK VINA RESULT:      -8.0      2.628     10.498
REMARK  Name = 
REMARK  9 active torsions:
REMARK  status: ('A' for Active; 'I' for Inactive)
REMARK    1  A    between atoms: C_1  and  C_2
REMARK    2  A    between atoms: C_6  and  C_7
REMARK    3  A    between atoms: C_8  and  C_9
REMARK    4  A    between atoms: C_13  and  C_14
REMARK    5  A    between atoms: C_14  and  O_15
REMARK    6  A    between atoms: O_15  and  C_16
REMARK    7  A    between atoms: C_23  and  C_24
REMARK    8  A    between atoms: C_24  and  C_25
REMARK    9  A    between atoms: C_25  and  O_27
REMARK                            x       y       z     vdW  Elec       q    Type
REMARK                         _______ _______ _______ _____ _____    ______ ____
ROOT
ATOM      1  C   UNL     1       7.683   6.939  18.509  0.00  0.00    +0.000 C 
ENDROOT
BRANCH   1   6
ATOM      2  C   UNL     1       4.720   4.497  18.499  0.00  0.00    +0.000 A 
ATOM      3  C   UNL     1       4.881   3.980  17.201  0.00  0.00    +0.000 A 
ATOM      4  C   UNL     1       6.005   4.266  16.413  0.00  0.00    +0.000 A 
ATOM      5  C   UNL     1       6.950   5.183  16.856  0.00  0.00    +0.000 A 
ATOM      6  C   UNL     1       6.793   5.782  18.106  0.00  0.00    +0.000 A 
ATOM      7  C   UNL     1       5.720   5.386  18.924  0.00  0.00    +0.000 A 
BRANCH   2  15
ATOM      8  C   UNL     1       4.689   1.903  20.194  0.00  0.00    +0.000 C 
ATOM      9  C   UNL     1       3.562   2.912  20.164  0.00  0.00    +0.000 A 
ATOM     10  C   UNL     1       2.438   2.562  20.943  0.00  0.00    +0.000 A 
ATOM     11  C   UNL     1       1.337   3.396  21.037  0.00  0.00    +0.000 A 
ATOM     12  C   UNL     1       1.329   4.586  20.330  0.00  0.00    +0.000 A 
ATOM     13  C   UNL     1       2.406   4.953  19.495  0.00  0.00    +0.000 A 
ATOM     14  C   UNL     1       2.217   6.242  18.729  0.00  0.00    +0.000 C 
ATOM     15  C   UNL     1       3.571   4.126  19.397  0.00  0.00    +0.000 A 
ENDBRANCH   2  15
ENDBRANCH   1   6
BRANCH   1  16
ATOM     16  O   UNL     1       7.823   7.883  17.450  0.00  0.00    +0.000 OA
BRANCH  16  17
ATOM     17  C   UNL     1       8.181   9.148  17.831  0.00  0.00    +0.000 A 
ATOM     18  C   UNL     1       9.035   9.228  18.948  0.00  0.00    +0.000 A 
ATOM     19  C   UNL     1       9.508  10.470  19.399  0.00  0.00    +0.000 A 
ATOM     20  C   UNL     1       9.107  11.605  18.717  0.00  0.00    +0.000 A 
ATOM     21  C   UNL     1       8.218  11.511  17.702  0.00  0.00    +0.000 A 
ATOM     22  C   UNL     1       7.753  10.318  17.206  0.00  0.00    +0.000 A 
ATOM     23  C   UNL     1       8.112  12.967  17.542  0.00  0.00    +0.000 C 
ATOM     24  C   UNL     1       9.176  13.175  18.760  0.00  0.00    +0.000 C 
BRANCH  24  25
ATOM     25  C   UNL     1       9.945  14.294  17.930  0.00  0.00    +0.000 C 
BRANCH  25  26
ATOM     26  C   UNL     1      11.329  13.953  17.427  0.00  0.00    +0.000 C 
ATOM     27  O   UNL     1      12.317  13.783  18.125  0.00  0.00    +0.000 OA
BRANCH  26  28
ATOM     28  O   UNL     1      11.377  13.873  16.077  0.00  0.00    +0.000 OA
ATOM     29  H   UNL     1      10.971  14.635  15.620  0.00  0.00    +0.000 HD
ENDBRANCH  26  28
ENDBRANCH  25  26
ENDBRANCH  24  25
ENDBRANCH  16  17
ENDBRANCH   1  16
TORSDOF 7
ENDMDL
MODEL 5
REMARK VINA RESULT:      -8.0      7.866     11.274
REMARK  Name = 
REMARK  9 active torsions:
REMARK  status: ('A' for Active; 'I' for Inactive)
REMARK    1  A    between atoms: C_1  and  C_2
REMARK    2  A    between atoms: C_6  and  C_7
REMARK    3  A    between atoms: C_8  and  C_9
REMARK    4  A    between atoms: C_13  and  C_14
REMARK    5  A    between atoms: C_14  and  O_15
REMARK    6  A    between atoms: O_15  and  C_16
REMARK    7  A    between atoms: C_23  and  C_24
REMARK    8  A    between atoms: C_24  and  C_25
REMARK    9  A    between atoms: C_25  and  O_27
REMARK                            x       y       z     vdW  Elec       q    Type
REMARK                         _______ _______ _______ _____ _____    ______ ____
ROOT
ATOM      1  C   UNL     1       0.484   9.990  17.944  0.00  0.00    +0.000 C 
ENDROOT
BRANCH   1   6
ATOM      2  C   UNL     1       2.513   6.812  18.672  0.00  0.00    +0.000 A 
ATOM      3  C   UNL     1       2.511   6.882  20.077  0.00  0.00    +0.000 A 
ATOM      4  C   UNL     1       1.735   7.814  20.781  0.00  0.00    +0.000 A 
ATOM      5  C   UNL     1       1.028   8.791  20.094  0.00  0.00    +0.000 A 
ATOM      6  C   UNL     1       1.061   8.811  18.699  0.00  0.00    +0.000 A 
ATOM      7  C   UNL     1       1.750   7.792  18.018  0.00  0.00    +0.000 A 
BRANCH   2  15
ATOM      8  C   UNL     1       5.227   7.364  17.282  0.00  0.00    +0.000 C 
ATOM      9  C   UNL     1       4.510   6.033  17.247  0.00  0.00    +0.000 A 
ATOM     10  C   UNL     1       5.150   5.040  16.474  0.00  0.00    +0.000 A 
ATOM     11  C   UNL     1       4.629   3.763  16.366  0.00  0.00    +0.000 A 
ATOM     12  C   UNL     1       3.440   3.462  17.008  0.00  0.00    +0.000 A 
ATOM     13  C   UNL     1       2.735   4.436  17.746  0.00  0.00    +0.000 A 
ATOM     14  C   UNL     1       1.416   3.977  18.324  0.00  0.00    +0.000 C 
ATOM     15  C   UNL     1       3.261   5.758  17.900  0.00  0.00    +0.000 A 
ENDBRANCH   2  15
ENDBRANCH   1   6
BRANCH   1  16
ATOM     16  O   UNL     1      -0.278  10.836  18.801  0.00  0.00    +0.000 OA
BRANCH  16  17
ATOM     17  C   UNL     1      -1.618  10.895  18.533  0.00  0.00    +0.000 A 
ATOM     18  C   UNL     1      -2.123   9.861  17.721  0.00  0.00    +0.000 A 
ATOM     19  C   UNL     1      -3.491   9.790  17.420  0.00  0.00    +0.000 A 
ATOM     20  C   UNL     1      -4.323  10.763  17.942  0.00  0.00    +0.000 A 
ATOM     21  C   UNL     1      -3.805  11.795  18.647  0.00  0.00    +0.000 A 
ATOM     22  C   UNL     1      -2.479  11.890  18.993  0.00  0.00    +0.000 A 
ATOM     23  C   UNL     1      -5.096  12.486  18.756  0.00  0.00    +0.000 C 
ATOM     24  C   UNL     1      -5.805  11.287  17.908  0.00  0.00    +0.000 C 
BRANCH  24  25
ATOM     25  C   UNL     1      -7.033  11.265  18.920  0.00  0.00    +0.000 C 
BRANCH  25  26
ATOM     26  C   UNL     1      -7.217  10.019  19.757  0.00  0.00    +0.000 C 
ATOM     27  O   UNL     1      -7.110   9.956  20.972  0.00  0.00    +0.000 OA
BRANCH  26  28
ATOM     28  O   UNL     1      -7.498   8.933  19.000  0.00  0.00    +0.000 OA
ATOM     29  H   UNL     1      -7.220   8.087  19.402  0.00  0.00    +0.000 HD
ENDBRANCH  26  28
ENDBRANCH  25  26
ENDBRANCH  24  25
ENDBRANCH  16  17
ENDBRANCH   1  16
TORSDOF 7
ENDMDL
MODEL 6
REMARK VINA RESULT:      -7.9      6.643      8.481
REMARK  Name = 
REMARK  9 active torsions:
REMARK  status: ('A' for Active; 'I' for Inactive)
REMARK    1  A    between atoms: C_1  and  C_2
REMARK    2  A    between atoms: C_6  and  C_7
REMARK    3  A    between atoms: C_8  and  C_9
REMARK    4  A    between atoms: C_13  and  C_14
REMARK    5  A    between atoms: C_14  and  O_15
REMARK    6  A    between atoms: O_15  and  C_16
REMARK    7  A    between atoms: C_23  and  C_24
REMARK    8  A    between atoms: C_24  and  C_25
REMARK    9  A    between atoms: C_25  and  O_27
REMARK                            x       y       z     vdW  Elec       q    Type
REMARK                         _______ _______ _______ _____ _____    ______ ____
ROOT
ATOM      1  C   UNL     1       2.571   6.184  19.740  0.00  0.00    +0.000 C 
ENDROOT
BRANCH   1   6
ATOM      2  C   UNL     1       0.859   9.620  19.835  0.00  0.00    +0.000 A 
ATOM      3  C   UNL     1       1.416  10.161  18.662  0.00  0.00    +0.000 A 
ATOM      4  C   UNL     1       2.176   9.393  17.768  0.00  0.00    +0.000 A 
ATOM      5  C   UNL     1       2.507   8.083  18.084  0.00  0.00    +0.000 A 
ATOM      6  C   UNL     1       2.042   7.525  19.275  0.00  0.00    +0.000 A 
ATOM      7  C   UNL     1       1.184   8.279  20.094  0.00  0.00    +0.000 A 
BRANCH   2  15
ATOM      8  C   UNL     1       0.917   9.278  22.914  0.00  0.00    +0.000 C 
ATOM      9  C   UNL     1      -0.014  10.219  22.181  0.00  0.00    +0.000 A 
ATOM     10  C   UNL     1      -0.917  10.916  23.010  0.00  0.00    +0.000 A 
ATOM     11  C   UNL     1      -1.815  11.832  22.489  0.00  0.00    +0.000 A 
ATOM     12  C   UNL     1      -1.844  12.047  21.122  0.00  0.00    +0.000 A 
ATOM     13  C   UNL     1      -0.998  11.333  20.247  0.00  0.00    +0.000 A 
ATOM     14  C   UNL     1      -1.199  11.622  18.777  0.00  0.00    +0.000 C 
ATOM     15  C   UNL     1      -0.039  10.400  20.757  0.00  0.00    +0.000 A 
ENDBRANCH   2  15
ENDBRANCH   1   6
BRANCH   1  16
ATOM     16  O   UNL     1       3.988   6.106  19.605  0.00  0.00    +0.000 OA
BRANCH  16  17
ATOM     17  C   UNL     1       4.439   5.446  18.494  0.00  0.00    +0.000 A 
ATOM     18  C   UNL     1       3.656   4.352  18.077  0.00  0.00    +0.000 A 
ATOM     19  C   UNL     1       3.993   3.630  16.922  0.00  0.00    +0.000 A 
ATOM     20  C   UNL     1       5.113   4.024  16.213  0.00  0.00    +0.000 A 
ATOM     21  C   UNL     1       5.899   5.022  16.680  0.00  0.00    +0.000 A 
ATOM     22  C   UNL     1       5.593   5.775  17.786  0.00  0.00    +0.000 A 
ATOM     23  C   UNL     1       6.910   4.837  15.631  0.00  0.00    +0.000 C 
ATOM     24  C   UNL     1       6.029   3.618  15.002  0.00  0.00    +0.000 C 
BRANCH  24  25
ATOM     25  C   UNL     1       6.266   4.175  13.529  0.00  0.00    +0.000 C 
BRANCH  25  26
ATOM     26  C   UNL     1       5.771   3.325  12.382  0.00  0.00    +0.000 C 
ATOM     27  O   UNL     1       4.654   3.376  11.889  0.00  0.00    +0.000 OA
BRANCH  26  28
ATOM     28  O   UNL     1       6.711   2.452  11.950  0.00  0.00    +0.000 OA
ATOM     29  H   UNL     1       7.443   2.313  12.582  0.00  0.00    +0.000 HD
ENDBRANCH  26  28
ENDBRANCH  25  26
ENDBRANCH  24  25
ENDBRANCH  16  17
ENDBRANCH   1  16
TORSDOF 7
ENDMDL
MODEL 7
REMARK VINA RESULT:      -7.9      0.903      2.267
REMARK  Name = 
REMARK  9 active torsions:
REMARK  status: ('A' for Active; 'I' for Inactive)
REMARK    1  A    between atoms: C_1  and  C_2
REMARK    2  A    between atoms: C_6  and  C_7
REMARK    3  A    between atoms: C_8  and  C_9
REMARK    4  A    between atoms: C_13  and  C_14
REMARK    5  A    between atoms: C_14  and  O_15
REMARK    6  A    between atoms: O_15  and  C_16
REMARK    7  A    between atoms: C_23  and  C_24
REMARK    8  A    between atoms: C_24  and  C_25
REMARK    9  A    between atoms: C_25  and  O_27
REMARK                            x       y       z     vdW  Elec       q    Type
REMARK                         _______ _______ _______ _____ _____    ______ ____
ROOT
ATOM      1  C   UNL     1       7.871   9.474  17.648  0.00  0.00    +0.000 C 
ENDROOT
BRANCH   1   6
ATOM      2  C   UNL     1       9.746  12.675  18.641  0.00  0.00    +0.000 A 
ATOM      3  C   UNL     1      10.201  12.265  19.908  0.00  0.00    +0.000 A 
ATOM      4  C   UNL     1      10.068  10.945  20.362  0.00  0.00    +0.000 A 
ATOM      5  C   UNL     1       9.362  10.018  19.607  0.00  0.00    +0.000 A 
ATOM      6  C   UNL     1       8.825  10.398  18.377  0.00  0.00    +0.000 A 
ATOM      7  C   UNL     1       9.076  11.694  17.893  0.00  0.00    +0.000 A 
BRANCH   2  15
ATOM      8  C   UNL     1       7.770  15.008  19.150  0.00  0.00    +0.000 C 
ATOM      9  C   UNL     1       9.032  15.128  18.324  0.00  0.00    +0.000 A 
ATOM     10  C   UNL     1       9.234  16.397  17.741  0.00  0.00    +0.000 A 
ATOM     11  C   UNL     1      10.357  16.670  16.978  0.00  0.00    +0.000 A 
ATOM     12  C   UNL     1      11.287  15.667  16.763  0.00  0.00    +0.000 A 
ATOM     13  C   UNL     1      11.102  14.368  17.280  0.00  0.00    +0.000 A 
ATOM     14  C   UNL     1      12.164  13.363  16.896  0.00  0.00    +0.000 C 
ATOM     15  C   UNL     1       9.965  14.061  18.095  0.00  0.00    +0.000 A 
ENDBRANCH   2  15
ENDBRANCH   1   6
BRANCH   1  16
ATOM     16  O   UNL     1       8.229   8.107  17.831  0.00  0.00    +0.000 OA
BRANCH  16  17
ATOM     17  C   UNL     1       7.186   7.220  17.831  0.00  0.00    +0.000 A 
ATOM     18  C   UNL     1       6.081   7.580  17.037  0.00  0.00    +0.000 A 
ATOM     19  C   UNL     1       4.974   6.725  16.920  0.00  0.00    +0.000 A 
ATOM     20  C   UNL     1       5.004   5.526  17.608  0.00  0.00    +0.000 A 
ATOM     21  C   UNL     1       6.037   5.240  18.434  0.00  0.00    +0.000 A 
ATOM     22  C   UNL     1       7.153   6.030  18.556  0.00  0.00    +0.000 A 
ATOM     23  C   UNL     1       5.416   4.005  18.929  0.00  0.00    +0.000 C 
ATOM     24  C   UNL     1       4.126   4.272  17.967  0.00  0.00    +0.000 C 
BRANCH  24  25
ATOM     25  C   UNL     1       4.109   2.743  17.526  0.00  0.00    +0.000 C 
BRANCH  25  26
ATOM     26  C   UNL     1       3.314   1.785  18.384  0.00  0.00    +0.000 C 
ATOM     27  O   UNL     1       2.244   2.030  18.919  0.00  0.00    +0.000 OA
BRANCH  26  28
ATOM     28  O   UNL     1       3.937   0.592  18.528  0.00  0.00    +0.000 OA
ATOM     29  H   UNL     1       3.935   0.253  19.444  0.00  0.00    +0.000 HD
ENDBRANCH  26  28
ENDBRANCH  25  26
ENDBRANCH  24  25
ENDBRANCH  16  17
ENDBRANCH   1  16
TORSDOF 7
ENDMDL
MODEL 8
REMARK VINA RESULT:      -7.9      6.803     10.006
REMARK  Name = 
REMARK  9 active torsions:
REMARK  status: ('A' for Active; 'I' for Inactive)
REMARK    1  A    between atoms: C_1  and  C_2
REMARK    2  A    between atoms: C_6  and  C_7
REMARK    3  A    between atoms: C_8  and  C_9
REMARK    4  A    between atoms: C_13  and  C_14
REMARK    5  A    between atoms: C_14  and  O_15
REMARK    6  A    between atoms: O_15  and  C_16
REMARK    7  A    between atoms: C_23  and  C_24
REMARK    8  A    between atoms: C_24  and  C_25
REMARK    9  A    between atoms: C_25  and  O_27
REMARK                            x       y       z     vdW  Elec       q    Type
REMARK                         _______ _______ _______ _____ _____    ______ ____
ROOT
ATOM      1  C   UNL     1       1.354   6.210  20.927  0.00  0.00    +0.000 C 
ENDROOT
BRANCH   1   6
ATOM      2  C   UNL     1       4.044   4.138  19.134  0.00  0.00    +0.000 A 
ATOM      3  C   UNL     1       4.018   3.002  19.963  0.00  0.00    +0.000 A 
ATOM      4  C   UNL     1       3.048   2.822  20.959  0.00  0.00    +0.000 A 
ATOM      5  C   UNL     1       2.142   3.836  21.239  0.00  0.00    +0.000 A 
ATOM      6  C   UNL     1       2.179   5.016  20.495  0.00  0.00    +0.000 A 
ATOM      7  C   UNL     1       3.083   5.120  19.424  0.00  0.00    +0.000 A 
BRANCH   2  15
ATOM      8  C   UNL     1       3.405   3.238  16.238  0.00  0.00    +0.000 C 
ATOM      9  C   UNL     1       4.713   3.869  16.663  0.00  0.00    +0.000 A 
ATOM     10  C   UNL     1       5.673   3.980  15.634  0.00  0.00    +0.000 A 
ATOM     11  C   UNL     1       6.910   4.560  15.862  0.00  0.00    +0.000 A 
ATOM     12  C   UNL     1       7.219   5.015  17.132  0.00  0.00    +0.000 A 
ATOM     13  C   UNL     1       6.313   4.876  18.205  0.00  0.00    +0.000 A 
ATOM     14  C   UNL     1       6.823   5.351  19.546  0.00  0.00    +0.000 C 
ATOM     15  C   UNL     1       5.016   4.307  17.996  0.00  0.00    +0.000 A 
ENDBRANCH   2  15
ENDBRANCH   1   6
BRANCH   1  16
ATOM     16  O   UNL     1       2.075   7.429  20.761  0.00  0.00    +0.000 OA
BRANCH  16  17
ATOM     17  C   UNL     1       1.413   8.418  20.085  0.00  0.00    +0.000 A 
ATOM     18  C   UNL     1       1.837   8.639  18.760  0.00  0.00    +0.000 A 
ATOM     19  C   UNL     1       1.198   9.593  17.954  0.00  0.00    +0.000 A 
ATOM     20  C   UNL     1       0.147  10.307  18.500  0.00  0.00    +0.000 A 
ATOM     21  C   UNL     1      -0.186  10.141  19.801  0.00  0.00    +0.000 A 
ATOM     22  C   UNL     1       0.389   9.199  20.618  0.00  0.00    +0.000 A 
ATOM     23  C   UNL     1      -1.181  11.220  19.776  0.00  0.00    +0.000 C 
ATOM     24  C   UNL     1      -0.841  11.494  18.205  0.00  0.00    +0.000 C 
BRANCH  24  25
ATOM     25  C   UNL     1      -2.391  11.613  17.866  0.00  0.00    +0.000 C 
BRANCH  25  26
ATOM     26  C   UNL     1      -2.905  10.808  16.694  0.00  0.00    +0.000 C 
ATOM     27  O   UNL     1      -3.036  11.218  15.551  0.00  0.00    +0.000 OA
BRANCH  26  28
ATOM     28  O   UNL     1      -3.243   9.546  17.051  0.00  0.00    +0.000 OA
ATOM     29  H   UNL     1      -2.778   9.222  17.846  0.00  0.00    +0.000 HD
ENDBRANCH  26  28
ENDBRANCH  25  26
ENDBRANCH  24  25
ENDBRANCH  16  17
ENDBRANCH   1  16
TORSDOF 7
ENDMDL
MODEL 9
REMARK VINA RESULT:      -7.9      0.865      1.315
REMARK  Name = 
REMARK  9 active torsions:
REMARK  status: ('A' for Active; 'I' for Inactive)
REMARK    1  A    between atoms: C_1  and  C_2
REMARK    2  A    between atoms: C_6  and  C_7
REMARK    3  A    between atoms: C_8  and  C_9
REMARK    4  A    between atoms: C_13  and  C_14
REMARK    5  A    between atoms: C_14  and  O_15
REMARK    6  A    between atoms: O_15  and  C_16
REMARK    7  A    between atoms: C_23  and  C_24
REMARK    8  A    between atoms: C_24  and  C_25
REMARK    9  A    between atoms: C_25  and  O_27
REMARK                            x       y       z     vdW  Elec       q    Type
REMARK                         _______ _______ _______ _____ _____    ______ ____
ROOT
ATOM      1  C   UNL     1       8.565   9.911  18.028  0.00  0.00    +0.000 C 
ENDROOT
BRANCH   1   6
ATOM      2  C   UNL     1       9.576  13.453  19.114  0.00  0.00    +0.000 A 
ATOM      3  C   UNL     1      10.487  13.107  20.128  0.00  0.00    +0.000 A 
ATOM      4  C   UNL     1      10.906  11.786  20.342  0.00  0.00    +0.000 A 
ATOM      5  C   UNL     1      10.328  10.748  19.624  0.00  0.00    +0.000 A 
ATOM      6  C   UNL     1       9.361  11.035  18.660  0.00  0.00    +0.000 A 
ATOM      7  C   UNL     1       9.048  12.377  18.383  0.00  0.00    +0.000 A 
BRANCH   2  15
ATOM      8  C   UNL     1      11.237  15.270  17.231  0.00  0.00    +0.000 C 
ATOM      9  C   UNL     1       9.976  15.710  17.943  0.00  0.00    +0.000 A 
ATOM     10  C   UNL     1       9.621  17.059  17.728  0.00  0.00    +0.000 A 
ATOM     11  C   UNL     1       8.479  17.602  18.291  0.00  0.00    +0.000 A 
ATOM     12  C   UNL     1       7.685  16.812  19.104  0.00  0.00    +0.000 A 
ATOM     13  C   UNL     1       8.028  15.474  19.392  0.00  0.00    +0.000 A 
ATOM     14  C   UNL     1       7.105  14.764  20.355  0.00  0.00    +0.000 C 
ATOM     15  C   UNL     1       9.188  14.874  18.803  0.00  0.00    +0.000 A 
ENDBRANCH   2  15
ENDBRANCH   1   6
BRANCH   1  16
ATOM     16  O   UNL     1       8.685   8.703  18.775  0.00  0.00    +0.000 OA
BRANCH  16  17
ATOM     17  C   UNL     1       7.970   7.639  18.295  0.00  0.00    +0.000 A 
ATOM     18  C   UNL     1       8.230   6.402  18.914  0.00  0.00    +0.000 A 
ATOM     19  C   UNL     1       7.521   5.251  18.540  0.00  0.00    +0.000 A 
ATOM     20  C   UNL     1       6.567   5.370  17.546  0.00  0.00    +0.000 A 
ATOM     21  C   UNL     1       6.395   6.549  16.904  0.00  0.00    +0.000 A 
ATOM     22  C   UNL     1       7.042   7.707  17.257  0.00  0.00    +0.000 A 
ATOM     23  C   UNL     1       5.434   5.989  15.945  0.00  0.00    +0.000 C 
ATOM     24  C   UNL     1       5.582   4.528  16.655  0.00  0.00    +0.000 C 
BRANCH  24  25
ATOM     25  C   UNL     1       4.005   4.319  16.606  0.00  0.00    +0.000 C 
BRANCH  25  26
ATOM     26  C   UNL     1       3.431   3.196  17.439  0.00  0.00    +0.000 C 
ATOM     27  O   UNL     1       2.265   2.832  17.438  0.00  0.00    +0.000 OA
BRANCH  26  28
ATOM     28  O   UNL     1       4.364   2.624  18.237  0.00  0.00    +0.000 OA
ATOM     29  H   UNL     1       5.206   3.118  18.279  0.00  0.00    +0.000 HD
ENDBRANCH  26  28
ENDBRANCH  25  26
ENDBRANCH  24  25
ENDBRANCH  16  17
ENDBRANCH   1  16
TORSDOF 7
ENDMDL
