MODEL 1
REMARK VINA RESULT:      -9.2      0.000      0.000
REMARK  Name = 
REMARK  4 active torsions:
REMARK  status: ('A' for Active; 'I' for Inactive)
REMARK    1  A    between atoms: C_1  and  S_2
REMARK    2  A    between atoms: S_2  and  C_5
REMARK    3  A    between atoms: C_8  and  C_9
REMARK    4  A    between atoms: C_17  and  C_18
REMARK                            x       y       z     vdW  Elec       q    Type
REMARK                         _______ _______ _______ _____ _____    ______ ____
ROOT
ATOM      1  C   UNL     1       3.447   6.471  17.814  0.00  0.00    +0.000 A 
ATOM      2  N   UNL     1       4.266   6.969  16.826  0.00  0.00    +0.000 N 
ATOM      3  C   UNL     1       5.002   5.994  16.222  0.00  0.00    +0.000 A 
ATOM      4  C   UNL     1       5.981   6.130  15.232  0.00  0.00    +0.000 A 
ATOM      5  C   UNL     1       6.517   4.965  14.696  0.00  0.00    +0.000 A 
ATOM      6  C   UNL     1       6.073   3.720  15.132  0.00  0.00    +0.000 A 
ATOM      7  C   UNL     1       5.121   3.610  16.164  0.00  0.00    +0.000 A 
ATOM      8  C   UNL     1       4.576   4.778  16.749  0.00  0.00    +0.000 A 
ATOM      9  C   UNL     1       3.656   5.081  17.830  0.00  0.00    +0.000 A 
ATOM     10  H   UNL     1       4.298   7.937  16.548  0.00  0.00    +0.000 HD
ENDROOT
BRANCH   9  11
ATOM     11  C   UNL     1       2.974   4.188  18.778  0.00  0.00    +0.000 A 
ATOM     12  C   UNL     1       3.713   3.524  19.775  0.00  0.00    +0.000 A 
ATOM     13  C   UNL     1       3.078   2.928  20.868  0.00  0.00    +0.000 A 
ATOM     14  C   UNL     1       1.690   2.906  20.925  0.00  0.00    +0.000 A 
ATOM     15 CL   UNL     1       0.904   2.272  22.317  0.00  0.00    +0.000 Cl
ATOM     16  C   UNL     1       0.939   3.431  19.874  0.00  0.00    +0.000 A 
ATOM     17  C   UNL     1       1.578   4.074  18.804  0.00  0.00    +0.000 A 
ENDBRANCH   9  11
BRANCH   1  21
ATOM     18  C   UNL     1       1.035   9.227  20.039  0.00  0.00    +0.000 A 
ATOM     19  C   UNL     1       1.258   9.461  18.682  0.00  0.00    +0.000 A 
ATOM     20  C   UNL     1       2.049   8.567  17.952  0.00  0.00    +0.000 A 
ATOM     21  C   UNL     1       2.575   7.412  18.547  0.00  0.00    +0.000 A 
ATOM     22  C   UNL     1       2.305   7.189  19.910  0.00  0.00    +0.000 A 
ATOM     23  C   UNL     1       1.563   8.101  20.662  0.00  0.00    +0.000 A 
BRANCH  18  25
ATOM     24  C   UNL     1      -0.370   9.480  22.423  0.00  0.00    +0.000 C 
ATOM     25  S   UNL     1       0.145  10.421  21.014  0.00  0.00    +0.000 S 
ATOM     26  O   UNL     1      -1.036  10.800  20.272  0.00  0.00    +0.000 OA
ATOM     27  O   UNL     1       1.111  11.415  21.457  0.00  0.00    +0.000 OA
ENDBRANCH  18  25
ENDBRANCH   1  21
TORSDOF 3
ENDMDL
MODEL 2
REMARK VINA RESULT:      -9.0      0.782      1.349
REMARK  Name = 
REMARK  4 active torsions:
REMARK  status: ('A' for Active; 'I' for Inactive)
REMARK    1  A    between atoms: C_1  and  S_2
REMARK    2  A    between atoms: S_2  and  C_5
REMARK    3  A    between atoms: C_8  and  C_9
REMARK    4  A    between atoms: C_17  and  C_18
REMARK                            x       y       z     vdW  Elec       q    Type
REMARK                         _______ _______ _______ _____ _____    ______ ____
ROOT
ATOM      1  C   UNL     1       3.586   6.468  17.722  0.00  0.00    +0.000 A 
ATOM      2  N   UNL     1       4.415   6.945  16.732  0.00  0.00    +0.000 N 
ATOM      3  C   UNL     1       5.125   5.952  16.127  0.00  0.00    +0.000 A 
ATOM      4  C   UNL     1       6.105   6.063  15.135  0.00  0.00    +0.000 A 
ATOM      5  C   UNL     1       6.610   4.885  14.597  0.00  0.00    +0.000 A 
ATOM      6  C   UNL     1       6.137   3.652  15.035  0.00  0.00    +0.000 A 
ATOM      7  C   UNL     1       5.184   3.565  16.070  0.00  0.00    +0.000 A 
ATOM      8  C   UNL     1       4.670   4.747  16.655  0.00  0.00    +0.000 A 
ATOM      9  C   UNL     1       3.760   5.074  17.738  0.00  0.00    +0.000 A 
ATOM     10  H   UNL     1       4.470   7.912  16.454  0.00  0.00    +0.000 HD
ENDROOT
BRANCH   9  11
ATOM     11  C   UNL     1       3.059   4.197  18.687  0.00  0.00    +0.000 A 
ATOM     12  C   UNL     1       3.783   3.516  19.684  0.00  0.00    +0.000 A 
ATOM     13  C   UNL     1       3.136   2.935  20.778  0.00  0.00    +0.000 A 
ATOM     14  C   UNL     1       1.748   2.948  20.838  0.00  0.00    +0.000 A 
ATOM     15 CL   UNL     1       0.949   2.334  22.232  0.00  0.00    +0.000 Cl
ATOM     16  C   UNL     1       1.008   3.491  19.789  0.00  0.00    +0.000 A 
ATOM     17  C   UNL     1       1.660   4.118  18.717  0.00  0.00    +0.000 A 
ENDBRANCH   9  11
BRANCH   1  21
ATOM     18  C   UNL     1       1.017   9.234  19.749  0.00  0.00    +0.000 A 
ATOM     19  C   UNL     1       1.526   8.141  20.450  0.00  0.00    +0.000 A 
ATOM     20  C   UNL     1       2.361   7.231  19.791  0.00  0.00    +0.000 A 
ATOM     21  C   UNL     1       2.739   7.431  18.457  0.00  0.00    +0.000 A 
ATOM     22  C   UNL     1       2.235   8.562  17.788  0.00  0.00    +0.000 A 
ATOM     23  C   UNL     1       1.358   9.446  18.417  0.00  0.00    +0.000 A 
BRANCH  18  25
ATOM     24  C   UNL     1       0.780  11.817  20.747  0.00  0.00    +0.000 C 
ATOM     25  S   UNL     1      -0.152  10.326  20.531  0.00  0.00    +0.000 S 
ATOM     26  O   UNL     1      -0.449   9.788  21.839  0.00  0.00    +0.000 OA
ATOM     27  O   UNL     1      -1.207  10.585  19.561  0.00  0.00    +0.000 OA
ENDBRANCH  18  25
ENDBRANCH   1  21
TORSDOF 3
ENDMDL
MODEL 3
REMARK VINA RESULT:      -8.6      1.085      1.596
REMARK  Name = 
REMARK  4 active torsions:
REMARK  status: ('A' for Active; 'I' for Inactive)
REMARK    1  A    between atoms: C_1  and  S_2
REMARK    2  A    between atoms: S_2  and  C_5
REMARK    3  A    between atoms: C_8  and  C_9
REMARK    4  A    between atoms: C_17  and  C_18
REMARK                            x       y       z     vdW  Elec       q    Type
REMARK                         _______ _______ _______ _____ _____    ______ ____
ROOT
ATOM      1  C   UNL     1       3.107   6.976  17.995  0.00  0.00    +0.000 A 
ATOM      2  N   UNL     1       3.961   7.286  16.961  0.00  0.00    +0.000 N 
ATOM      3  C   UNL     1       4.658   6.200  16.522  0.00  0.00    +0.000 A 
ATOM      4  C   UNL     1       5.655   6.144  15.542  0.00  0.00    +0.000 A 
ATOM      5  C   UNL     1       6.141   4.890  15.193  0.00  0.00    +0.000 A 
ATOM      6  C   UNL     1       5.634   3.744  15.799  0.00  0.00    +0.000 A 
ATOM      7  C   UNL     1       4.665   3.831  16.818  0.00  0.00    +0.000 A 
ATOM      8  C   UNL     1       4.168   5.095  17.213  0.00  0.00    +0.000 A 
ATOM      9  C   UNL     1       3.250   5.597  18.219  0.00  0.00    +0.000 A 
ATOM     10  H   UNL     1       4.042   8.200  16.544  0.00  0.00    +0.000 HD
ENDROOT
BRANCH   9  11
ATOM     11  C   UNL     1       2.515   4.884  19.275  0.00  0.00    +0.000 A 
ATOM     12  C   UNL     1       1.490   3.982  18.933  0.00  0.00    +0.000 A 
ATOM     13  C   UNL     1       0.991   3.068  19.866  0.00  0.00    +0.000 A 
ATOM     14  C   UNL     1       1.445   3.112  21.178  0.00  0.00    +0.000 A 
ATOM     15 CL   UNL     1       0.918   1.924  22.304  0.00  0.00    +0.000 Cl
ATOM     16  C   UNL     1       2.355   4.094  21.571  0.00  0.00    +0.000 A 
ATOM     17  C   UNL     1       2.892   4.976  20.621  0.00  0.00    +0.000 A 
ENDBRANCH   9  11
BRANCH   1  21
ATOM     18  C   UNL     1       0.793  10.125  19.755  0.00  0.00    +0.000 A 
ATOM     19  C   UNL     1       1.160  10.220  18.413  0.00  0.00    +0.000 A 
ATOM     20  C   UNL     1       1.921   9.198  17.835  0.00  0.00    +0.000 A 
ATOM     21  C   UNL     1       2.271   8.054  18.565  0.00  0.00    +0.000 A 
ATOM     22  C   UNL     1       1.856   7.973  19.908  0.00  0.00    +0.000 A 
ATOM     23  C   UNL     1       1.145   9.011  20.511  0.00  0.00    +0.000 A 
BRANCH  18  25
ATOM     24  C   UNL     1       0.700  12.901  19.815  0.00  0.00    +0.000 C 
ATOM     25  S   UNL     1      -0.058  11.475  20.543  0.00  0.00    +0.000 S 
ATOM     26  O   UNL     1       0.285  11.451  21.946  0.00  0.00    +0.000 OA
ATOM     27  O   UNL     1      -1.444  11.421  20.101  0.00  0.00    +0.000 OA
ENDBRANCH  18  25
ENDBRANCH   1  21
TORSDOF 3
ENDMDL
MODEL 4
REMARK VINA RESULT:      -8.6      1.135      1.853
REMARK  Name = 
REMARK  4 active torsions:
REMARK  status: ('A' for Active; 'I' for Inactive)
REMARK    1  A    between atoms: C_1  and  S_2
REMARK    2  A    between atoms: S_2  and  C_5
REMARK    3  A    between atoms: C_8  and  C_9
REMARK    4  A    between atoms: C_17  and  C_18
REMARK                            x       y       z     vdW  Elec       q    Type
REMARK                         _______ _______ _______ _____ _____    ______ ____
ROOT
ATOM      1  C   UNL     1       3.066   6.975  18.033  0.00  0.00    +0.000 A 
ATOM      2  N   UNL     1       3.919   7.299  17.002  0.00  0.00    +0.000 N 
ATOM      3  C   UNL     1       4.626   6.222  16.558  0.00  0.00    +0.000 A 
ATOM      4  C   UNL     1       5.625   6.180  15.580  0.00  0.00    +0.000 A 
ATOM      5  C   UNL     1       6.123   4.933  15.224  0.00  0.00    +0.000 A 
ATOM      6  C   UNL     1       5.624   3.779  15.821  0.00  0.00    +0.000 A 
ATOM      7  C   UNL     1       4.653   3.851  16.839  0.00  0.00    +0.000 A 
ATOM      8  C   UNL     1       4.145   5.108  17.242  0.00  0.00    +0.000 A 
ATOM      9  C   UNL     1       3.220   5.595  18.249  0.00  0.00    +0.000 A 
ATOM     10  H   UNL     1       3.993   8.216  16.592  0.00  0.00    +0.000 HD
ENDROOT
BRANCH   9  11
ATOM     11  C   UNL     1       2.489   4.870  19.299  0.00  0.00    +0.000 A 
ATOM     12  C   UNL     1       1.487   3.946  18.948  0.00  0.00    +0.000 A 
ATOM     13  C   UNL     1       0.997   3.024  19.879  0.00  0.00    +0.000 A 
ATOM     14  C   UNL     1       1.437   3.080  21.195  0.00  0.00    +0.000 A 
ATOM     15 CL   UNL     1       0.923   1.883  22.318  0.00  0.00    +0.000 Cl
ATOM     16  C   UNL     1       2.322   4.082  21.594  0.00  0.00    +0.000 A 
ATOM     17  C   UNL     1       2.850   4.973  20.648  0.00  0.00    +0.000 A 
ENDBRANCH   9  11
BRANCH   1  21
ATOM     18  C   UNL     1       0.497  10.025  19.603  0.00  0.00    +0.000 A 
ATOM     19  C   UNL     1       1.021   9.066  20.469  0.00  0.00    +0.000 A 
ATOM     20  C   UNL     1       1.856   8.064  19.962  0.00  0.00    +0.000 A 
ATOM     21  C   UNL     1       2.219   8.042  18.608  0.00  0.00    +0.000 A 
ATOM     22  C   UNL     1       1.699   9.044  17.767  0.00  0.00    +0.000 A 
ATOM     23  C   UNL     1       0.822  10.014  18.251  0.00  0.00    +0.000 A 
BRANCH  18  25
ATOM     24  C   UNL     1       0.213  12.752  20.056  0.00  0.00    +0.000 C 
ATOM     25  S   UNL     1      -0.672  11.225  20.206  0.00  0.00    +0.000 S 
ATOM     26  O   UNL     1      -0.883  10.965  21.612  0.00  0.00    +0.000 OA
ATOM     27  O   UNL     1      -1.782  11.248  19.265  0.00  0.00    +0.000 OA
ENDBRANCH  18  25
ENDBRANCH   1  21
TORSDOF 3
ENDMDL
MODEL 5
REMARK VINA RESULT:      -8.5      0.889      1.218
REMARK  Name = 
REMARK  4 active torsions:
REMARK  status: ('A' for Active; 'I' for Inactive)
REMARK    1  A    between atoms: C_1  and  S_2
REMARK    2  A    between atoms: S_2  and  C_5
REMARK    3  A    between atoms: C_8  and  C_9
REMARK    4  A    between atoms: C_17  and  C_18
REMARK                            x       y       z     vdW  Elec       q    Type
REMARK                         _______ _______ _______ _____ _____    ______ ____
ROOT
ATOM      1  C   UNL     1       3.028   7.018  18.117  0.00  0.00    +0.000 A 
ATOM      2  N   UNL     1       3.860   7.359  17.074  0.00  0.00    +0.000 N 
ATOM      3  C   UNL     1       4.543   6.286  16.586  0.00  0.00    +0.000 A 
ATOM      4  C   UNL     1       5.517   6.258  15.582  0.00  0.00    +0.000 A 
ATOM      5  C   UNL     1       5.992   5.014  15.183  0.00  0.00    +0.000 A 
ATOM      6  C   UNL     1       5.494   3.852  15.763  0.00  0.00    +0.000 A 
ATOM      7  C   UNL     1       4.548   3.908  16.805  0.00  0.00    +0.000 A 
ATOM      8  C   UNL     1       4.065   5.161  17.252  0.00  0.00    +0.000 A 
ATOM      9  C   UNL     1       3.171   5.632  18.294  0.00  0.00    +0.000 A 
ATOM     10  H   UNL     1       3.935   8.286  16.685  0.00  0.00    +0.000 HD
ENDROOT
BRANCH   9  11
ATOM     11  C   UNL     1       2.457   4.889  19.342  0.00  0.00    +0.000 A 
ATOM     12  C   UNL     1       1.443   3.976  18.992  0.00  0.00    +0.000 A 
ATOM     13  C   UNL     1       0.967   3.038  19.912  0.00  0.00    +0.000 A 
ATOM     14  C   UNL     1       1.432   3.064  21.220  0.00  0.00    +0.000 A 
ATOM     15 CL   UNL     1       0.934   1.846  22.328  0.00  0.00    +0.000 Cl
ATOM     16  C   UNL     1       2.330   4.053  21.623  0.00  0.00    +0.000 A 
ATOM     17  C   UNL     1       2.844   4.961  20.686  0.00  0.00    +0.000 A 
ENDBRANCH   9  11
BRANCH   1  21
ATOM     18  C   UNL     1       0.764  10.117  20.026  0.00  0.00    +0.000 A 
ATOM     19  C   UNL     1       1.093  10.248  18.678  0.00  0.00    +0.000 A 
ATOM     20  C   UNL     1       1.837   9.242  18.050  0.00  0.00    +0.000 A 
ATOM     21  C   UNL     1       2.208   8.080  18.739  0.00  0.00    +0.000 A 
ATOM     22  C   UNL     1       1.832   7.963  20.091  0.00  0.00    +0.000 A 
ATOM     23  C   UNL     1       1.139   8.983  20.742  0.00  0.00    +0.000 A 
BRANCH  18  25
ATOM     24  C   UNL     1      -0.680  10.659  22.337  0.00  0.00    +0.000 C 
ATOM     25  S   UNL     1      -0.064  11.445  20.874  0.00  0.00    +0.000 S 
ATOM     26  O   UNL     1      -1.195  11.842  20.068  0.00  0.00    +0.000 OA
ATOM     27  O   UNL     1       0.959  12.402  21.268  0.00  0.00    +0.000 OA
ENDBRANCH  18  25
ENDBRANCH   1  21
TORSDOF 3
ENDMDL
MODEL 6
REMARK VINA RESULT:      -7.7      4.930      8.436
REMARK  Name = 
REMARK  4 active torsions:
REMARK  status: ('A' for Active; 'I' for Inactive)
REMARK    1  A    between atoms: C_1  and  S_2
REMARK    2  A    between atoms: S_2  and  C_5
REMARK    3  A    between atoms: C_8  and  C_9
REMARK    4  A    between atoms: C_17  and  C_18
REMARK                            x       y       z     vdW  Elec       q    Type
REMARK                         _______ _______ _______ _____ _____    ______ ____
ROOT
ATOM      1  C   UNL     1       1.103  11.609  18.842  0.00  0.00    +0.000 A 
ATOM      2  N   UNL     1       2.174  12.474  18.828  0.00  0.00    +0.000 N 
ATOM      3  C   UNL     1       1.789  13.772  18.676  0.00  0.00    +0.000 A 
ATOM      4  C   UNL     1       2.594  14.910  18.552  0.00  0.00    +0.000 A 
ATOM      5  C   UNL     1       1.958  16.145  18.517  0.00  0.00    +0.000 A 
ATOM      6  C   UNL     1       0.572  16.226  18.617  0.00  0.00    +0.000 A 
ATOM      7  C   UNL     1      -0.220  15.063  18.693  0.00  0.00    +0.000 A 
ATOM      8  C   UNL     1       0.397  13.790  18.704  0.00  0.00    +0.000 A 
ATOM      9  C   UNL     1      -0.045  12.408  18.713  0.00  0.00    +0.000 A 
ATOM     10  H   UNL     1       3.134  12.193  18.952  0.00  0.00    +0.000 HD
ENDROOT
BRANCH   9  11
ATOM     11  C   UNL     1      -1.402  11.843  18.658  0.00  0.00    +0.000 A 
ATOM     12  C   UNL     1      -2.397  12.315  19.535  0.00  0.00    +0.000 A 
ATOM     13  C   UNL     1      -3.748  12.038  19.311  0.00  0.00    +0.000 A 
ATOM     14  C   UNL     1      -4.111  11.205  18.260  0.00  0.00    +0.000 A 
ATOM     15 CL   UNL     1      -5.775  10.946  17.912  0.00  0.00    +0.000 Cl
ATOM     16  C   UNL     1      -3.129  10.610  17.468  0.00  0.00    +0.000 A 
ATOM     17  C   UNL     1      -1.777  10.931  17.663  0.00  0.00    +0.000 A 
ENDBRANCH   9  11
BRANCH   1  21
ATOM     18  C   UNL     1       2.017   7.448  19.315  0.00  0.00    +0.000 A 
ATOM     19  C   UNL     1       1.444   8.144  20.379  0.00  0.00    +0.000 A 
ATOM     20  C   UNL     1       1.149   9.504  20.233  0.00  0.00    +0.000 A 
ATOM     21  C   UNL     1       1.367  10.165  19.016  0.00  0.00    +0.000 A 
ATOM     22  C   UNL     1       1.916   9.426  17.951  0.00  0.00    +0.000 A 
ATOM     23  C   UNL     1       2.265   8.084  18.102  0.00  0.00    +0.000 A 
BRANCH  18  25
ATOM     24  C   UNL     1       2.053   5.005  17.993  0.00  0.00    +0.000 C 
ATOM     25  S   UNL     1       2.523   5.755  19.527  0.00  0.00    +0.000 S 
ATOM     26  O   UNL     1       1.709   5.182  20.574  0.00  0.00    +0.000 OA
ATOM     27  O   UNL     1       3.976   5.751  19.609  0.00  0.00    +0.000 OA
ENDBRANCH  18  25
ENDBRANCH   1  21
TORSDOF 3
ENDMDL
MODEL 7
REMARK VINA RESULT:      -7.4      4.640      8.841
REMARK  Name = 
REMARK  4 active torsions:
REMARK  status: ('A' for Active; 'I' for Inactive)
REMARK    1  A    between atoms: C_1  and  S_2
REMARK    2  A    between atoms: S_2  and  C_5
REMARK    3  A    between atoms: C_8  and  C_9
REMARK    4  A    between atoms: C_17  and  C_18
REMARK                            x       y       z     vdW  Elec       q    Type
REMARK                         _______ _______ _______ _____ _____    ______ ____
ROOT
ATOM      1  C   UNL     1      -0.191  10.688  20.280  0.00  0.00    +0.000 A 
ATOM      2  N   UNL     1       0.098  11.224  21.515  0.00  0.00    +0.000 N 
ATOM      3  C   UNL     1      -0.819  12.155  21.902  0.00  0.00    +0.000 A 
ATOM      4  C   UNL     1      -0.819  12.950  23.053  0.00  0.00    +0.000 A 
ATOM      5  C   UNL     1      -1.931  13.753  23.278  0.00  0.00    +0.000 A 
ATOM      6  C   UNL     1      -3.000  13.741  22.387  0.00  0.00    +0.000 A 
ATOM      7  C   UNL     1      -2.955  12.968  21.210  0.00  0.00    +0.000 A 
ATOM      8  C   UNL     1      -1.825  12.160  20.939  0.00  0.00    +0.000 A 
ATOM      9  C   UNL     1      -1.383  11.299  19.858  0.00  0.00    +0.000 A 
ATOM     10  H   UNL     1       0.875  10.942  22.090  0.00  0.00    +0.000 HD
ENDROOT
BRANCH   9  11
ATOM     11  C   UNL     1      -2.008  11.007  18.559  0.00  0.00    +0.000 A 
ATOM     12  C   UNL     1      -1.964  11.962  17.526  0.00  0.00    +0.000 A 
ATOM     13  C   UNL     1      -2.261  11.612  16.206  0.00  0.00    +0.000 A 
ATOM     14  C   UNL     1      -2.697  10.324  15.920  0.00  0.00    +0.000 A 
ATOM     15 CL   UNL     1      -2.959   9.855  14.286  0.00  0.00    +0.000 Cl
ATOM     16  C   UNL     1      -2.885   9.405  16.952  0.00  0.00    +0.000 A 
ATOM     17  C   UNL     1      -2.537   9.743  18.268  0.00  0.00    +0.000 A 
ENDBRANCH   9  11
BRANCH   1  21
ATOM     18  C   UNL     1       2.315   7.572  18.738  0.00  0.00    +0.000 A 
ATOM     19  C   UNL     1       1.929   8.613  17.894  0.00  0.00    +0.000 A 
ATOM     20  C   UNL     1       1.106   9.631  18.391  0.00  0.00    +0.000 A 
ATOM     21  C   UNL     1       0.710   9.651  19.735  0.00  0.00    +0.000 A 
ATOM     22  C   UNL     1       1.145   8.602  20.568  0.00  0.00    +0.000 A 
ATOM     23  C   UNL     1       1.919   7.554  20.071  0.00  0.00    +0.000 A 
BRANCH  18  25
ATOM     24  C   UNL     1       4.111   5.599  19.515  0.00  0.00    +0.000 C 
ATOM     25  S   UNL     1       3.249   6.202  18.090  0.00  0.00    +0.000 S 
ATOM     26  O   UNL     1       4.225   6.733  17.166  0.00  0.00    +0.000 OA
ATOM     27  O   UNL     1       2.288   5.189  17.677  0.00  0.00    +0.000 OA
ENDBRANCH  18  25
ENDBRANCH   1  21
TORSDOF 3
ENDMDL
MODEL 8
REMARK VINA RESULT:      -7.4      4.677      8.810
REMARK  Name = 
REMARK  4 active torsions:
REMARK  status: ('A' for Active; 'I' for Inactive)
REMARK    1  A    between atoms: C_1  and  S_2
REMARK    2  A    between atoms: S_2  and  C_5
REMARK    3  A    between atoms: C_8  and  C_9
REMARK    4  A    between atoms: C_17  and  C_18
REMARK                            x       y       z     vdW  Elec       q    Type
REMARK                         _______ _______ _______ _____ _____    ______ ____
ROOT
ATOM      1  C   UNL     1      -0.106  10.543  20.252  0.00  0.00    +0.000 A 
ATOM      2  N   UNL     1       0.056  11.092  21.504  0.00  0.00    +0.000 N 
ATOM      3  C   UNL     1      -0.884  12.040  21.779  0.00  0.00    +0.000 A 
ATOM      4  C   UNL     1      -0.996  12.851  22.913  0.00  0.00    +0.000 A 
ATOM      5  C   UNL     1      -2.114  13.671  23.008  0.00  0.00    +0.000 A 
ATOM      6  C   UNL     1      -3.081  13.661  22.007  0.00  0.00    +0.000 A 
ATOM      7  C   UNL     1      -2.921  12.871  20.851  0.00  0.00    +0.000 A 
ATOM      8  C   UNL     1      -1.781  12.045  20.714  0.00  0.00    +0.000 A 
ATOM      9  C   UNL     1      -1.237  11.164  19.697  0.00  0.00    +0.000 A 
ATOM     10  H   UNL     1       0.763  10.807  22.163  0.00  0.00    +0.000 HD
ENDROOT
BRANCH   9  11
ATOM     11  C   UNL     1      -1.723  10.862  18.342  0.00  0.00    +0.000 A 
ATOM     12  C   UNL     1      -2.319   9.615  18.070  0.00  0.00    +0.000 A 
ATOM     13  C   UNL     1      -3.062   9.410  16.904  0.00  0.00    +0.000 A 
ATOM     14  C   UNL     1      -3.137  10.419  15.953  0.00  0.00    +0.000 A 
ATOM     15 CL   UNL     1      -4.137  10.214  14.568  0.00  0.00    +0.000 Cl
ATOM     16  C   UNL     1      -2.433  11.609  16.138  0.00  0.00    +0.000 A 
ATOM     17  C   UNL     1      -1.731  11.832  17.332  0.00  0.00    +0.000 A 
ENDBRANCH   9  11
BRANCH   1  21
ATOM     18  C   UNL     1       2.505   7.374  19.024  0.00  0.00    +0.000 A 
ATOM     19  C   UNL     1       2.242   8.419  18.139  0.00  0.00    +0.000 A 
ATOM     20  C   UNL     1       1.386   9.454  18.532  0.00  0.00    +0.000 A 
ATOM     21  C   UNL     1       0.833   9.486  19.820  0.00  0.00    +0.000 A 
ATOM     22  C   UNL     1       1.145   8.433  20.701  0.00  0.00    +0.000 A 
ATOM     23  C   UNL     1       1.953   7.368  20.301  0.00  0.00    +0.000 A 
BRANCH  18  25
ATOM     24  C   UNL     1       4.555   6.693  17.277  0.00  0.00    +0.000 C 
ATOM     25  S   UNL     1       3.482   5.984  18.494  0.00  0.00    +0.000 S 
ATOM     26  O   UNL     1       2.599   5.055  17.827  0.00  0.00    +0.000 OA
ATOM     27  O   UNL     1       4.292   5.574  19.632  0.00  0.00    +0.000 OA
ENDBRANCH  18  25
ENDBRANCH   1  21
TORSDOF 3
ENDMDL
MODEL 9
REMARK VINA RESULT:      -7.3      2.881      4.732
REMARK  Name = 
REMARK  4 active torsions:
REMARK  status: ('A' for Active; 'I' for Inactive)
REMARK    1  A    between atoms: C_1  and  S_2
REMARK    2  A    between atoms: S_2  and  C_5
REMARK    3  A    between atoms: C_8  and  C_9
REMARK    4  A    between atoms: C_17  and  C_18
REMARK                            x       y       z     vdW  Elec       q    Type
REMARK                         _______ _______ _______ _____ _____    ______ ____
ROOT
ATOM      1  C   UNL     1       2.490   5.896  18.726  0.00  0.00    +0.000 A 
ATOM      2  N   UNL     1       1.492   4.972  18.939  0.00  0.00    +0.000 N 
ATOM      3  C   UNL     1       1.922   3.693  18.755  0.00  0.00    +0.000 A 
ATOM      4  C   UNL     1       1.182   2.508  18.817  0.00  0.00    +0.000 A 
ATOM      5  C   UNL     1       1.876   1.310  18.699  0.00  0.00    +0.000 A 
ATOM      6  C   UNL     1       3.259   1.311  18.538  0.00  0.00    +0.000 A 
ATOM      7  C   UNL     1       3.976   2.519  18.430  0.00  0.00    +0.000 A 
ATOM      8  C   UNL     1       3.294   3.755  18.521  0.00  0.00    +0.000 A 
ATOM      9  C   UNL     1       3.642   5.159  18.406  0.00  0.00    +0.000 A 
ATOM     10  H   UNL     1       0.556   5.203  19.233  0.00  0.00    +0.000 HD
ENDROOT
BRANCH   9  11
ATOM     11  C   UNL     1       4.927   5.797  18.081  0.00  0.00    +0.000 A 
ATOM     12  C   UNL     1       4.995   6.759  17.056  0.00  0.00    +0.000 A 
ATOM     13  C   UNL     1       6.105   7.600  16.929  0.00  0.00    +0.000 A 
ATOM     14  C   UNL     1       7.198   7.424  17.767  0.00  0.00    +0.000 A 
ATOM     15 CL   UNL     1       8.519   8.523  17.688  0.00  0.00    +0.000 Cl
ATOM     16  C   UNL     1       7.208   6.382  18.693  0.00  0.00    +0.000 A 
ATOM     17  C   UNL     1       6.073   5.572  18.854  0.00  0.00    +0.000 A 
ENDBRANCH   9  11
BRANCH   1  21
ATOM     18  C   UNL     1       1.456  10.034  19.145  0.00  0.00    +0.000 A 
ATOM     19  C   UNL     1       1.456   9.216  20.274  0.00  0.00    +0.000 A 
ATOM     20  C   UNL     1       1.787   7.863  20.143  0.00  0.00    +0.000 A 
ATOM     21  C   UNL     1       2.173   7.329  18.906  0.00  0.00    +0.000 A 
ATOM     22  C   UNL     1       2.195   8.189  17.792  0.00  0.00    +0.000 A 
ATOM     23  C   UNL     1       1.813   9.526  17.900  0.00  0.00    +0.000 A 
BRANCH  18  25
ATOM     24  C   UNL     1       2.156  12.612  18.380  0.00  0.00    +0.000 C 
ATOM     25  S   UNL     1       0.908  11.723  19.269  0.00  0.00    +0.000 S 
ATOM     26  O   UNL     1       0.987  12.109  20.660  0.00  0.00    +0.000 OA
ATOM     27  O   UNL     1      -0.339  11.823  18.526  0.00  0.00    +0.000 OA
ENDBRANCH  18  25
ENDBRANCH   1  21
TORSDOF 3
ENDMDL
