MODEL 1
REMARK VINA RESULT:      -7.4      0.000      0.000
REMARK  Name = 
REMARK  3 active torsions:
REMARK  status: ('A' for Active; 'I' for Inactive)
REMARK    1  A    between atoms: C_2  and  C_9
REMARK    2  A    between atoms: N_16  and  C_17
REMARK    3  A    between atoms: C_17  and  C_18
REMARK                            x       y       z     vdW  Elec       q    Type
REMARK                         _______ _______ _______ _____ _____    ______ ____
ROOT
ATOM      1  C   UNL     1       5.717   6.005  16.702  0.00  0.00    +0.000 C 
ATOM      2  C   UNL     1       5.269   5.251  15.423  0.00  0.00    +0.000 C 
ATOM      3  C   UNL     1       6.045   3.933  15.348  0.00  0.00    +0.000 C 
ATOM      4  O   UNL     1       6.600   3.782  16.658  0.00  0.00    +0.000 OA
ATOM      5  C   UNL     1       6.942   5.126  16.976  0.00  0.00    +0.000 C 
ATOM      6  C   UNL     1       7.650   5.325  18.269  0.00  0.00    +0.000 C 
ATOM      7  C   UNL     1       8.107   6.780  18.369  0.00  0.00    +0.000 C 
ATOM      8  N   UNL     1       7.614   7.763  17.385  0.00  0.00    +0.000 NA
ATOM      9  C   UNL     1       6.295   7.461  16.725  0.00  0.00    +0.000 C 
ENDROOT
BRANCH   1  11
ATOM     10  O   UNL     1       3.839   7.260  17.653  0.00  0.00    +0.000 OA
ATOM     11  C   UNL     1       4.438   6.175  17.594  0.00  0.00    +0.000 C 
ATOM     12  N   UNL     1       3.775   4.975  17.994  0.00  0.00    +0.000 N 
ATOM     13  C   UNL     1       2.340   4.796  17.719  0.00  0.00    +0.000 C 
ATOM     14  C   UNL     1       1.542   4.419  18.974  0.00  0.00    +0.000 C 
ATOM     15  O   UNL     1       2.131   3.312  19.677  0.00  0.00    +0.000 OA
ATOM     16  C   UNL     1       3.504   3.573  19.995  0.00  0.00    +0.000 C 
ATOM     17  C   UNL     1       4.322   3.809  18.714  0.00  0.00    +0.000 C 
ENDBRANCH   1  11
BRANCH   8  18
ATOM     18  C   UNL     1       7.559   9.149  17.950  0.00  0.00    +0.000 C 
BRANCH  18  19
ATOM     19  C   UNL     1       8.844   9.983  18.170  0.00  0.00    +0.000 C 
ATOM     20  C   UNL     1       8.645  11.465  17.787  0.00  0.00    +0.000 C 
ATOM     21  C   UNL     1       9.872  12.136  18.388  0.00  0.00    +0.000 C 
ATOM     22  C   UNL     1      10.007  11.476  19.750  0.00  0.00    +0.000 C 
ATOM     23  C   UNL     1       9.330  10.110  19.620  0.00  0.00    +0.000 C 
ENDBRANCH  18  19
ENDBRANCH   8  18
TORSDOF 3
ENDMDL
MODEL 2
REMARK VINA RESULT:      -7.1      2.866      5.940
REMARK  Name = 
REMARK  3 active torsions:
REMARK  status: ('A' for Active; 'I' for Inactive)
REMARK    1  A    between atoms: C_2  and  C_9
REMARK    2  A    between atoms: N_16  and  C_17
REMARK    3  A    between atoms: C_17  and  C_18
REMARK                            x       y       z     vdW  Elec       q    Type
REMARK                         _______ _______ _______ _____ _____    ______ ____
ROOT
ATOM      1  C   UNL     1       3.985   3.741  18.633  0.00  0.00    +0.000 C 
ATOM      2  C   UNL     1       4.491   2.389  19.202  0.00  0.00    +0.000 C 
ATOM      3  C   UNL     1       3.529   1.288  18.748  0.00  0.00    +0.000 C 
ATOM      4  O   UNL     1       2.766   1.903  17.705  0.00  0.00    +0.000 OA
ATOM      5  C   UNL     1       2.605   3.222  18.215  0.00  0.00    +0.000 C 
ATOM      6  C   UNL     1       1.752   4.130  17.401  0.00  0.00    +0.000 C 
ATOM      7  C   UNL     1       1.531   5.430  18.173  0.00  0.00    +0.000 C 
ATOM      8  N   UNL     1       2.323   5.694  19.390  0.00  0.00    +0.000 NA
ATOM      9  C   UNL     1       3.659   5.007  19.494  0.00  0.00    +0.000 C 
ENDROOT
BRANCH   1  11
ATOM     10  O   UNL     1       5.144   4.034  16.494  0.00  0.00    +0.000 OA
ATOM     11  C   UNL     1       5.125   4.293  17.706  0.00  0.00    +0.000 C 
ATOM     12  N   UNL     1       5.876   5.399  18.209  0.00  0.00    +0.000 N 
ATOM     13  C   UNL     1       6.000   6.630  17.414  0.00  0.00    +0.000 C 
ATOM     14  C   UNL     1       7.460   7.066  17.226  0.00  0.00    +0.000 C 
ATOM     15  O   UNL     1       8.173   7.117  18.474  0.00  0.00    +0.000 OA
ATOM     16  C   UNL     1       8.091   5.866  19.168  0.00  0.00    +0.000 C 
ATOM     17  C   UNL     1       6.626   5.512  19.474  0.00  0.00    +0.000 C 
ENDBRANCH   1  11
BRANCH   8  18
ATOM     18  C   UNL     1       2.519   7.159  19.630  0.00  0.00    +0.000 C 
BRANCH  18  19
ATOM     19  C   UNL     1       1.467   8.200  19.176  0.00  0.00    +0.000 C 
ATOM     20  C   UNL     1       1.005   9.102  20.340  0.00  0.00    +0.000 C 
ATOM     21  C   UNL     1       0.269  10.225  19.624  0.00  0.00    +0.000 C 
ATOM     22  C   UNL     1       1.158  10.530  18.431  0.00  0.00    +0.000 C 
ATOM     23  C   UNL     1       1.942   9.244  18.157  0.00  0.00    +0.000 C 
ENDBRANCH  18  19
ENDBRANCH   8  18
TORSDOF 3
ENDMDL
MODEL 3
REMARK VINA RESULT:      -7.1      3.867      5.650
REMARK  Name = 
REMARK  3 active torsions:
REMARK  status: ('A' for Active; 'I' for Inactive)
REMARK    1  A    between atoms: C_2  and  C_9
REMARK    2  A    between atoms: N_16  and  C_17
REMARK    3  A    between atoms: C_17  and  C_18
REMARK                            x       y       z     vdW  Elec       q    Type
REMARK                         _______ _______ _______ _____ _____    ______ ____
ROOT
ATOM      1  C   UNL     1       3.557   5.412  17.966  0.00  0.00    +0.000 C 
ATOM      2  C   UNL     1       2.111   4.886  18.164  0.00  0.00    +0.000 C 
ATOM      3  C   UNL     1       2.086   4.019  19.427  0.00  0.00    +0.000 C 
ATOM      4  O   UNL     1       3.314   4.336  20.089  0.00  0.00    +0.000 OA
ATOM      5  C   UNL     1       4.203   4.468  18.986  0.00  0.00    +0.000 C 
ATOM      6  C   UNL     1       5.631   4.709  19.330  0.00  0.00    +0.000 C 
ATOM      7  C   UNL     1       6.470   4.639  18.056  0.00  0.00    +0.000 C 
ATOM      8  N   UNL     1       5.793   4.601  16.744  0.00  0.00    +0.000 NA
ATOM      9  C   UNL     1       4.415   5.202  16.673  0.00  0.00    +0.000 C 
ENDROOT
BRANCH   1  11
ATOM     10  O   UNL     1       4.175   7.681  17.276  0.00  0.00    +0.000 OA
ATOM     11  C   UNL     1       3.477   6.978  18.023  0.00  0.00    +0.000 C 
ATOM     12  N   UNL     1       2.319   7.536  18.645  0.00  0.00    +0.000 N 
ATOM     13  C   UNL     1       1.491   8.515  17.924  0.00  0.00    +0.000 C 
ATOM     14  C   UNL     1       1.262   9.801  18.729  0.00  0.00    +0.000 C 
ATOM     15  O   UNL     1       0.794   9.528  20.061  0.00  0.00    +0.000 OA
ATOM     16  C   UNL     1       1.681   8.637  20.749  0.00  0.00    +0.000 C 
ATOM     17  C   UNL     1       1.789   7.297  20.001  0.00  0.00    +0.000 C 
ENDBRANCH   1  11
BRANCH   8  18
ATOM     18  C   UNL     1       6.633   5.201  15.658  0.00  0.00    +0.000 C 
BRANCH  18  19
ATOM     19  C   UNL     1       7.004   4.398  14.387  0.00  0.00    +0.000 C 
ATOM     20  C   UNL     1       5.754   3.883  13.644  0.00  0.00    +0.000 C 
ATOM     21  C   UNL     1       6.319   3.444  12.300  0.00  0.00    +0.000 C 
ATOM     22  C   UNL     1       7.293   4.554  11.944  0.00  0.00    +0.000 C 
ATOM     23  C   UNL     1       7.714   5.180  13.275  0.00  0.00    +0.000 C 
ENDBRANCH  18  19
ENDBRANCH   8  18
TORSDOF 3
ENDMDL
MODEL 4
REMARK VINA RESULT:      -6.7      3.807      6.335
REMARK  Name = 
REMARK  3 active torsions:
REMARK  status: ('A' for Active; 'I' for Inactive)
REMARK    1  A    between atoms: C_2  and  C_9
REMARK    2  A    between atoms: N_16  and  C_17
REMARK    3  A    between atoms: C_17  and  C_18
REMARK                            x       y       z     vdW  Elec       q    Type
REMARK                         _______ _______ _______ _____ _____    ______ ____
ROOT
ATOM      1  C   UNL     1       3.690   4.076  19.399  0.00  0.00    +0.000 C 
ATOM      2  C   UNL     1       4.847   3.143  19.845  0.00  0.00    +0.000 C 
ATOM      3  C   UNL     1       4.235   1.898  20.492  0.00  0.00    +0.000 C 
ATOM      4  O   UNL     1       2.858   1.947  20.106  0.00  0.00    +0.000 OA
ATOM      5  C   UNL     1       2.594   3.343  20.181  0.00  0.00    +0.000 C 
ATOM      6  C   UNL     1       1.185   3.750  19.926  0.00  0.00    +0.000 C 
ATOM      7  C   UNL     1       1.035   5.240  20.228  0.00  0.00    +0.000 C 
ATOM      8  N   UNL     1       2.241   6.057  20.461  0.00  0.00    +0.000 NA
ATOM      9  C   UNL     1       3.524   5.569  19.842  0.00  0.00    +0.000 C 
ENDROOT
BRANCH   1  11
ATOM     10  O   UNL     1       2.831   4.087  17.104  0.00  0.00    +0.000 OA
ATOM     11  C   UNL     1       3.816   4.236  17.843  0.00  0.00    +0.000 C 
ATOM     12  N   UNL     1       4.963   4.939  17.365  0.00  0.00    +0.000 N 
ATOM     13  C   UNL     1       4.803   6.095  16.470  0.00  0.00    +0.000 C 
ATOM     14  C   UNL     1       5.639   5.970  15.189  0.00  0.00    +0.000 C 
ATOM     15  O   UNL     1       7.013   5.651  15.470  0.00  0.00    +0.000 OA
ATOM     16  C   UNL     1       7.116   4.469  16.274  0.00  0.00    +0.000 C 
ATOM     17  C   UNL     1       6.391   4.663  17.617  0.00  0.00    +0.000 C 
ENDBRANCH   1  11
BRANCH   8  18
ATOM     18  C   UNL     1       2.038   7.489  20.071  0.00  0.00    +0.000 C 
BRANCH  18  19
ATOM     19  C   UNL     1       0.898   8.339  20.685  0.00  0.00    +0.000 C 
ATOM     20  C   UNL     1       1.268   8.878  22.083  0.00  0.00    +0.000 C 
ATOM     21  C   UNL     1       0.193   9.927  22.334  0.00  0.00    +0.000 C 
ATOM     22  C   UNL     1       0.075  10.642  20.998  0.00  0.00    +0.000 C 
ATOM     23  C   UNL     1       0.547   9.637  19.946  0.00  0.00    +0.000 C 
ENDBRANCH  18  19
ENDBRANCH   8  18
TORSDOF 3
ENDMDL
MODEL 5
REMARK VINA RESULT:      -6.6      2.840      6.099
REMARK  Name = 
REMARK  3 active torsions:
REMARK  status: ('A' for Active; 'I' for Inactive)
REMARK    1  A    between atoms: C_2  and  C_9
REMARK    2  A    between atoms: N_16  and  C_17
REMARK    3  A    between atoms: C_17  and  C_18
REMARK                            x       y       z     vdW  Elec       q    Type
REMARK                         _______ _______ _______ _____ _____    ______ ____
ROOT
ATOM      1  C   UNL     1       4.077   3.795  18.710  0.00  0.00    +0.000 C 
ATOM      2  C   UNL     1       4.682   2.722  19.653  0.00  0.00    +0.000 C 
ATOM      3  C   UNL     1       3.939   1.404  19.418  0.00  0.00    +0.000 C 
ATOM      4  O   UNL     1       3.238   1.616  18.188  0.00  0.00    +0.000 OA
ATOM      5  C   UNL     1       2.842   2.976  18.321  0.00  0.00    +0.000 C 
ATOM      6  C   UNL     1       1.985   3.510  17.227  0.00  0.00    +0.000 C 
ATOM      7  C   UNL     1       1.499   4.906  17.612  0.00  0.00    +0.000 C 
ATOM      8  N   UNL     1       2.089   5.582  18.785  0.00  0.00    +0.000 NA
ATOM      9  C   UNL     1       3.480   5.164  19.181  0.00  0.00    +0.000 C 
ENDROOT
BRANCH   1  11
ATOM     10  O   UNL     1       5.301   3.921  16.591  0.00  0.00    +0.000 OA
ATOM     11  C   UNL     1       5.241   4.280  17.777  0.00  0.00    +0.000 C 
ATOM     12  N   UNL     1       5.967   5.432  18.207  0.00  0.00    +0.000 N 
ATOM     13  C   UNL     1       6.107   6.594  17.316  0.00  0.00    +0.000 C 
ATOM     14  C   UNL     1       7.568   7.028  17.137  0.00  0.00    +0.000 C 
ATOM     15  O   UNL     1       8.241   7.191  18.398  0.00  0.00    +0.000 OA
ATOM     16  C   UNL     1       8.147   6.002  19.192  0.00  0.00    +0.000 C 
ATOM     17  C   UNL     1       6.676   5.658  19.482  0.00  0.00    +0.000 C 
ENDBRANCH   1  11
BRANCH   8  18
ATOM     18  C   UNL     1       2.058   7.074  18.652  0.00  0.00    +0.000 C 
BRANCH  18  19
ATOM     19  C   UNL     1       1.911   7.992  19.890  0.00  0.00    +0.000 C 
ATOM     20  C   UNL     1       1.108   9.270  19.570  0.00  0.00    +0.000 C 
ATOM     21  C   UNL     1       0.801   9.829  20.953  0.00  0.00    +0.000 C 
ATOM     22  C   UNL     1       0.420   8.598  21.758  0.00  0.00    +0.000 C 
ATOM     23  C   UNL     1       1.110   7.420  21.067  0.00  0.00    +0.000 C 
ENDBRANCH  18  19
ENDBRANCH   8  18
TORSDOF 3
ENDMDL
MODEL 6
REMARK VINA RESULT:      -6.5      3.061      4.555
REMARK  Name = 
REMARK  3 active torsions:
REMARK  status: ('A' for Active; 'I' for Inactive)
REMARK    1  A    between atoms: C_2  and  C_9
REMARK    2  A    between atoms: N_16  and  C_17
REMARK    3  A    between atoms: C_17  and  C_18
REMARK                            x       y       z     vdW  Elec       q    Type
REMARK                         _______ _______ _______ _____ _____    ______ ____
ROOT
ATOM      1  C   UNL     1       5.130   4.780  17.065  0.00  0.00    +0.000 C 
ATOM      2  C   UNL     1       5.644   3.782  15.994  0.00  0.00    +0.000 C 
ATOM      3  C   UNL     1       6.982   4.301  15.459  0.00  0.00    +0.000 C 
ATOM      4  O   UNL     1       7.372   5.297  16.410  0.00  0.00    +0.000 OA
ATOM      5  C   UNL     1       6.119   5.898  16.719  0.00  0.00    +0.000 C 
ATOM      6  C   UNL     1       6.172   7.070  17.634  0.00  0.00    +0.000 C 
ATOM      7  C   UNL     1       4.785   7.704  17.712  0.00  0.00    +0.000 C 
ATOM      8  N   UNL     1       3.629   6.992  17.131  0.00  0.00    +0.000 NA
ATOM      9  C   UNL     1       3.736   5.495  17.025  0.00  0.00    +0.000 C 
ENDROOT
BRANCH   1  11
ATOM     10  O   UNL     1       5.966   3.932  19.206  0.00  0.00    +0.000 OA
ATOM     11  C   UNL     1       5.018   3.977  18.408  0.00  0.00    +0.000 C 
ATOM     12  N   UNL     1       3.699   3.661  18.854  0.00  0.00    +0.000 N 
ATOM     13  C   UNL     1       3.263   4.043  20.207  0.00  0.00    +0.000 C 
ATOM     14  C   UNL     1       2.691   2.860  20.999  0.00  0.00    +0.000 C 
ATOM     15  O   UNL     1       1.687   2.148  20.256  0.00  0.00    +0.000 OA
ATOM     16  C   UNL     1       2.189   1.724  18.982  0.00  0.00    +0.000 C 
ATOM     17  C   UNL     1       2.628   2.936  18.143  0.00  0.00    +0.000 C 
ENDBRANCH   1  11
BRANCH   8  18
ATOM     18  C   UNL     1       2.348   7.331  17.830  0.00  0.00    +0.000 C 
BRANCH  18  19
ATOM     19  C   UNL     1       2.192   8.641  18.641  0.00  0.00    +0.000 C 
ATOM     20  C   UNL     1       1.236   9.637  17.953  0.00  0.00    +0.000 C 
ATOM     21  C   UNL     1       0.970  10.660  19.049  0.00  0.00    +0.000 C 
ATOM     22  C   UNL     1       0.781   9.808  20.292  0.00  0.00    +0.000 C 
ATOM     23  C   UNL     1       1.542   8.508  20.025  0.00  0.00    +0.000 C 
ENDBRANCH  18  19
ENDBRANCH   8  18
TORSDOF 3
ENDMDL
MODEL 7
REMARK VINA RESULT:      -6.5      3.901      5.879
REMARK  Name = 
REMARK  3 active torsions:
REMARK  status: ('A' for Active; 'I' for Inactive)
REMARK    1  A    between atoms: C_2  and  C_9
REMARK    2  A    between atoms: N_16  and  C_17
REMARK    3  A    between atoms: C_17  and  C_18
REMARK                            x       y       z     vdW  Elec       q    Type
REMARK                         _______ _______ _______ _____ _____    ______ ____
ROOT
ATOM      1  C   UNL     1       4.081   3.731  19.186  0.00  0.00    +0.000 C 
ATOM      2  C   UNL     1       4.486   2.362  19.792  0.00  0.00    +0.000 C 
ATOM      3  C   UNL     1       3.739   1.262  19.032  0.00  0.00    +0.000 C 
ATOM      4  O   UNL     1       3.252   1.920  17.858  0.00  0.00    +0.000 OA
ATOM      5  C   UNL     1       2.892   3.195  18.380  0.00  0.00    +0.000 C 
ATOM      6  C   UNL     1       2.242   4.127  17.419  0.00  0.00    +0.000 C 
ATOM      7  C   UNL     1       1.755   5.362  18.175  0.00  0.00    +0.000 C 
ATOM      8  N   UNL     1       2.176   5.568  19.575  0.00  0.00    +0.000 NA
ATOM      9  C   UNL     1       3.469   4.923  19.997  0.00  0.00    +0.000 C 
ENDROOT
BRANCH   1  11
ATOM     10  O   UNL     1       6.426   4.428  19.327  0.00  0.00    +0.000 OA
ATOM     11  C   UNL     1       5.397   4.385  18.636  0.00  0.00    +0.000 C 
ATOM     12  N   UNL     1       5.484   4.550  17.220  0.00  0.00    +0.000 N 
ATOM     13  C   UNL     1       6.632   4.003  16.481  0.00  0.00    +0.000 C 
ATOM     14  C   UNL     1       7.321   5.052  15.598  0.00  0.00    +0.000 C 
ATOM     15  O   UNL     1       6.384   5.752  14.761  0.00  0.00    +0.000 OA
ATOM     16  C   UNL     1       5.332   6.338  15.539  0.00  0.00    +0.000 C 
ATOM     17  C   UNL     1       4.560   5.254  16.310  0.00  0.00    +0.000 C 
ENDBRANCH   1  11
BRANCH   8  18
ATOM     18  C   UNL     1       2.224   7.019  19.943  0.00  0.00    +0.000 C 
BRANCH  18  19
ATOM     19  C   UNL     1       1.547   8.098  19.063  0.00  0.00    +0.000 C 
ATOM     20  C   UNL     1       1.005   9.273  19.903  0.00  0.00    +0.000 C 
ATOM     21  C   UNL     1       0.709  10.331  18.849  0.00  0.00    +0.000 C 
ATOM     22  C   UNL     1       1.906  10.252  17.918  0.00  0.00    +0.000 C 
ATOM     23  C   UNL     1       2.458   8.833  18.070  0.00  0.00    +0.000 C 
ENDBRANCH  18  19
ENDBRANCH   8  18
TORSDOF 3
ENDMDL
MODEL 8
REMARK VINA RESULT:      -6.4      3.159      6.130
REMARK  Name = 
REMARK  3 active torsions:
REMARK  status: ('A' for Active; 'I' for Inactive)
REMARK    1  A    between atoms: C_2  and  C_9
REMARK    2  A    between atoms: N_16  and  C_17
REMARK    3  A    between atoms: C_17  and  C_18
REMARK                            x       y       z     vdW  Elec       q    Type
REMARK                         _______ _______ _______ _____ _____    ______ ____
ROOT
ATOM      1  C   UNL     1       6.097   4.670  17.265  0.00  0.00    +0.000 C 
ATOM      2  C   UNL     1       7.187   4.412  18.338  0.00  0.00    +0.000 C 
ATOM      3  C   UNL     1       7.561   5.754  18.975  0.00  0.00    +0.000 C 
ATOM      4  O   UNL     1       6.510   6.635  18.567  0.00  0.00    +0.000 OA
ATOM      5  C   UNL     1       6.272   6.193  17.236  0.00  0.00    +0.000 C 
ATOM      6  C   UNL     1       5.273   6.979  16.461  0.00  0.00    +0.000 C 
ATOM      7  C   UNL     1       5.275   6.497  15.012  0.00  0.00    +0.000 C 
ATOM      8  N   UNL     1       6.006   5.265  14.659  0.00  0.00    +0.000 NA
ATOM      9  C   UNL     1       6.210   4.257  15.758  0.00  0.00    +0.000 C 
ENDROOT
BRANCH   1  11
ATOM     10  O   UNL     1       4.479   2.839  17.092  0.00  0.00    +0.000 OA
ATOM     11  C   UNL     1       4.830   3.857  17.706  0.00  0.00    +0.000 C 
ATOM     12  N   UNL     1       4.357   4.084  19.034  0.00  0.00    +0.000 N 
ATOM     13  C   UNL     1       4.175   2.953  19.958  0.00  0.00    +0.000 C 
ATOM     14  C   UNL     1       2.772   2.920  20.581  0.00  0.00    +0.000 C 
ATOM     15  O   UNL     1       2.405   4.189  21.150  0.00  0.00    +0.000 OA
ATOM     16  C   UNL     1       2.519   5.242  20.185  0.00  0.00    +0.000 C 
ATOM     17  C   UNL     1       3.965   5.354  19.674  0.00  0.00    +0.000 C 
ENDBRANCH   1  11
BRANCH   8  18
ATOM     18  C   UNL     1       5.403   4.568  13.478  0.00  0.00    +0.000 C 
BRANCH  18  19
ATOM     19  C   UNL     1       6.022   3.271  12.902  0.00  0.00    +0.000 C 
ATOM     20  C   UNL     1       5.102   2.605  11.858  0.00  0.00    +0.000 C 
ATOM     21  C   UNL     1       6.023   1.587  11.199  0.00  0.00    +0.000 C 
ATOM     22  C   UNL     1       7.327   2.347  11.025  0.00  0.00    +0.000 C 
ATOM     23  C   UNL     1       7.318   3.438  12.098  0.00  0.00    +0.000 C 
ENDBRANCH  18  19
ENDBRANCH   8  18
TORSDOF 3
ENDMDL
MODEL 9
REMARK VINA RESULT:      -6.4      7.182      9.505
REMARK  Name = 
REMARK  3 active torsions:
REMARK  status: ('A' for Active; 'I' for Inactive)
REMARK    1  A    between atoms: C_2  and  C_9
REMARK    2  A    between atoms: N_16  and  C_17
REMARK    3  A    between atoms: C_17  and  C_18
REMARK                            x       y       z     vdW  Elec       q    Type
REMARK                         _______ _______ _______ _____ _____    ______ ____
ROOT
ATOM      1  C   UNL     1      10.084  13.391  18.920  0.00  0.00    +0.000 C 
ATOM      2  C   UNL     1      11.221  13.945  18.022  0.00  0.00    +0.000 C 
ATOM      3  C   UNL     1      11.925  12.760  17.354  0.00  0.00    +0.000 C 
ATOM      4  O   UNL     1      11.027  11.664  17.558  0.00  0.00    +0.000 OA
ATOM      5  C   UNL     1      10.550  11.931  18.872  0.00  0.00    +0.000 C 
ATOM      6  C   UNL     1       9.642  10.905  19.451  0.00  0.00    +0.000 C 
ATOM      7  C   UNL     1       9.375  11.246  20.917  0.00  0.00    +0.000 C 
ATOM      8  N   UNL     1       9.802  12.556  21.445  0.00  0.00    +0.000 NA
ATOM      9  C   UNL     1       9.933  13.680  20.452  0.00  0.00    +0.000 C 
ENDROOT
BRANCH   1  11
ATOM     10  O   UNL     1       7.943  13.286  17.731  0.00  0.00    +0.000 OA
ATOM     11  C   UNL     1       8.743  13.989  18.367  0.00  0.00    +0.000 C 
ATOM     12  N   UNL     1       8.301  15.214  18.954  0.00  0.00    +0.000 N 
ATOM     13  C   UNL     1       6.949  15.315  19.525  0.00  0.00    +0.000 C 
ATOM     14  C   UNL     1       6.161  16.509  18.969  0.00  0.00    +0.000 C 
ATOM     15  O   UNL     1       6.909  17.735  19.052  0.00  0.00    +0.000 OA
ATOM     16  C   UNL     1       8.183  17.608  18.407  0.00  0.00    +0.000 C 
ATOM     17  C   UNL     1       9.018  16.499  19.069  0.00  0.00    +0.000 C 
ENDBRANCH   1  11
BRANCH   8  18
ATOM     18  C   UNL     1       8.937  13.018  22.577  0.00  0.00    +0.000 C 
BRANCH  18  19
ATOM     19  C   UNL     1       8.185  12.011  23.482  0.00  0.00    +0.000 C 
ATOM     20  C   UNL     1       8.285  12.388  24.974  0.00  0.00    +0.000 C 
ATOM     21  C   UNL     1       7.228  11.500  25.617  0.00  0.00    +0.000 C 
ATOM     22  C   UNL     1       6.058  11.584  24.652  0.00  0.00    +0.000 C 
ATOM     23  C   UNL     1       6.665  11.934  23.292  0.00  0.00    +0.000 C 
ENDBRANCH  18  19
ENDBRANCH   8  18
TORSDOF 3
ENDMDL
