MODEL 1
REMARK VINA RESULT:      -7.2      0.000      0.000
REMARK  Name = 
REMARK  5 active torsions:
REMARK  status: ('A' for Active; 'I' for Inactive)
REMARK    1  A    between atoms: C_1  and  O_2
REMARK    2  A    between atoms: O_2  and  C_3
REMARK    3  A    between atoms: C_3  and  C_5
REMARK    4  A    between atoms: N_9  and  S_10
REMARK    5  A    between atoms: S_10  and  C_13
REMARK                            x       y       z     vdW  Elec       q    Type
REMARK                         _______ _______ _______ _____ _____    ______ ____
ROOT
ATOM      1  C   UNL     1       5.927   6.327  17.796  0.00  0.00    +0.000 C 
ATOM      2  C   UNL     1       5.308   5.631  19.021  0.00  0.00    +0.000 C 
ATOM      3  C   UNL     1       3.995   5.020  18.511  0.00  0.00    +0.000 C 
ATOM      4  C   UNL     1       4.050   5.186  16.979  0.00  0.00    +0.000 C 
ATOM      5  N   UNL     1       5.468   5.500  16.626  0.00  0.00    +0.000 NA
ATOM      6  S   UNL     1       2.559   5.918  19.231  0.00  0.00    +0.000 S 
ATOM      7  C   UNL     1       1.861   4.551  20.206  0.00  0.00    +0.000 C 
ATOM      8  C   UNL     1       2.932   3.520  20.497  0.00  0.00    +0.000 C 
ATOM      9  S   UNL     1       3.820   3.251  18.957  0.00  0.00    +0.000 S 
ENDROOT
BRANCH   5  10
ATOM     10  S   UNL     1       6.474   4.177  16.213  0.00  0.00    +0.000 S 
ATOM     11  O   UNL     1       7.740   4.354  16.896  0.00  0.00    +0.000 OA
ATOM     12  O   UNL     1       5.710   2.965  16.402  0.00  0.00    +0.000 OA
BRANCH  10  13
ATOM     13  C   UNL     1       6.770   4.383  14.467  0.00  0.00    +0.000 A 
ATOM     14  C   UNL     1       7.700   5.329  14.022  0.00  0.00    +0.000 A 
ATOM     15  C   UNL     1       7.930   5.479  12.651  0.00  0.00    +0.000 A 
ATOM     16  C   UNL     1       7.247   4.680  11.730  0.00  0.00    +0.000 A 
ATOM     17  C   UNL     1       6.316   3.742  12.174  0.00  0.00    +0.000 A 
ATOM     18  C   UNL     1       6.071   3.593  13.541  0.00  0.00    +0.000 A 
ENDBRANCH  10  13
ENDBRANCH   5  10
BRANCH   1  19
ATOM     19  C   UNL     1       7.382   6.700  18.019  0.00  0.00    +0.000 C 
ATOM     20  O   UNL     1       8.061   6.289  18.949  0.00  0.00    +0.000 OA
BRANCH  19  22
ATOM     21  C   UNL     1       8.115   8.944  17.736  0.00  0.00    +0.000 C 
ATOM     22  O   UNL     1       7.762   7.684  17.153  0.00  0.00    +0.000 OA
ENDBRANCH  19  22
ENDBRANCH   1  19
TORSDOF 4
ENDMDL
MODEL 2
REMARK VINA RESULT:      -7.1      0.047      1.034
REMARK  Name = 
REMARK  5 active torsions:
REMARK  status: ('A' for Active; 'I' for Inactive)
REMARK    1  A    between atoms: C_1  and  O_2
REMARK    2  A    between atoms: O_2  and  C_3
REMARK    3  A    between atoms: C_3  and  C_5
REMARK    4  A    between atoms: N_9  and  S_10
REMARK    5  A    between atoms: S_10  and  C_13
REMARK                            x       y       z     vdW  Elec       q    Type
REMARK                         _______ _______ _______ _____ _____    ______ ____
ROOT
ATOM      1  C   UNL     1       5.934   6.362  17.768  0.00  0.00    +0.000 C 
ATOM      2  C   UNL     1       5.306   5.670  18.991  0.00  0.00    +0.000 C 
ATOM      3  C   UNL     1       3.999   5.053  18.472  0.00  0.00    +0.000 C 
ATOM      4  C   UNL     1       4.067   5.211  16.940  0.00  0.00    +0.000 C 
ATOM      5  N   UNL     1       5.488   5.527  16.598  0.00  0.00    +0.000 NA
ATOM      6  S   UNL     1       2.554   5.951  19.175  0.00  0.00    +0.000 S 
ATOM      7  C   UNL     1       1.851   4.586  20.151  0.00  0.00    +0.000 C 
ATOM      8  C   UNL     1       2.922   3.560  20.456  0.00  0.00    +0.000 C 
ATOM      9  S   UNL     1       3.825   3.285  18.926  0.00  0.00    +0.000 S 
ENDROOT
BRANCH   5  10
ATOM     10  S   UNL     1       6.500   4.205  16.200  0.00  0.00    +0.000 S 
ATOM     11  O   UNL     1       7.765   4.397  16.881  0.00  0.00    +0.000 OA
ATOM     12  O   UNL     1       5.743   2.992  16.404  0.00  0.00    +0.000 OA
BRANCH  10  13
ATOM     13  C   UNL     1       6.795   4.392  14.452  0.00  0.00    +0.000 A 
ATOM     14  C   UNL     1       6.105   3.590  13.536  0.00  0.00    +0.000 A 
ATOM     15  C   UNL     1       6.340   3.747  12.167  0.00  0.00    +0.000 A 
ATOM     16  C   UNL     1       7.247   4.708  11.713  0.00  0.00    +0.000 A 
ATOM     17  C   UNL     1       7.939   5.502  12.626  0.00  0.00    +0.000 A 
ATOM     18  C   UNL     1       7.720   5.344  13.997  0.00  0.00    +0.000 A 
ENDBRANCH  10  13
ENDBRANCH   5  10
BRANCH   1  19
ATOM     19  C   UNL     1       7.386   6.739  18.001  0.00  0.00    +0.000 C 
ATOM     20  O   UNL     1       8.066   6.310  18.923  0.00  0.00    +0.000 OA
BRANCH  19  22
ATOM     21  C   UNL     1       8.138   8.983  17.775  0.00  0.00    +0.000 C 
ATOM     22  O   UNL     1       7.760   7.746  17.160  0.00  0.00    +0.000 OA
ENDBRANCH  19  22
ENDBRANCH   1  19
TORSDOF 4
ENDMDL
MODEL 3
REMARK VINA RESULT:      -6.8      3.403      5.527
REMARK  Name = 
REMARK  5 active torsions:
REMARK  status: ('A' for Active; 'I' for Inactive)
REMARK    1  A    between atoms: C_1  and  O_2
REMARK    2  A    between atoms: O_2  and  C_3
REMARK    3  A    between atoms: C_3  and  C_5
REMARK    4  A    between atoms: N_9  and  S_10
REMARK    5  A    between atoms: S_10  and  C_13
REMARK                            x       y       z     vdW  Elec       q    Type
REMARK                         _______ _______ _______ _____ _____    ______ ____
ROOT
ATOM      1  C   UNL     1       2.095   4.525  19.643  0.00  0.00    +0.000 C 
ATOM      2  C   UNL     1       1.394   5.730  18.992  0.00  0.00    +0.000 C 
ATOM      3  C   UNL     1       2.270   6.941  19.350  0.00  0.00    +0.000 C 
ATOM      4  C   UNL     1       3.545   6.337  19.971  0.00  0.00    +0.000 C 
ATOM      5  N   UNL     1       3.556   4.885  19.617  0.00  0.00    +0.000 NA
ATOM      6  S   UNL     1       1.388   8.025  20.547  0.00  0.00    +0.000 S 
ATOM      7  C   UNL     1       1.221   9.495  19.489  0.00  0.00    +0.000 C 
ATOM      8  C   UNL     1       1.307   9.099  18.030  0.00  0.00    +0.000 C 
ATOM      9  S   UNL     1       2.692   7.961  17.887  0.00  0.00    +0.000 S 
ENDROOT
BRANCH   5  10
ATOM     10  S   UNL     1       4.406   4.440  18.199  0.00  0.00    +0.000 S 
ATOM     11  O   UNL     1       4.880   3.081  18.376  0.00  0.00    +0.000 OA
ATOM     12  O   UNL     1       3.578   4.777  17.064  0.00  0.00    +0.000 OA
BRANCH  10  13
ATOM     13  C   UNL     1       5.830   5.511  18.189  0.00  0.00    +0.000 A 
ATOM     14  C   UNL     1       5.925   6.540  17.245  0.00  0.00    +0.000 A 
ATOM     15  C   UNL     1       7.044   7.378  17.248  0.00  0.00    +0.000 A 
ATOM     16  C   UNL     1       8.055   7.201  18.197  0.00  0.00    +0.000 A 
ATOM     17  C   UNL     1       7.963   6.172  19.132  0.00  0.00    +0.000 A 
ATOM     18  C   UNL     1       6.855   5.321  19.129  0.00  0.00    +0.000 A 
ENDBRANCH  10  13
ENDBRANCH   5  10
BRANCH   1  19
ATOM     19  C   UNL     1       1.566   3.200  19.123  0.00  0.00    +0.000 C 
ATOM     20  O   UNL     1       0.995   3.063  18.050  0.00  0.00    +0.000 OA
BRANCH  19  22
ATOM     21  C   UNL     1       1.454   2.669  21.437  0.00  0.00    +0.000 C 
ATOM     22  O   UNL     1       1.655   2.238  20.086  0.00  0.00    +0.000 OA
ENDBRANCH  19  22
ENDBRANCH   1  19
TORSDOF 4
ENDMDL
MODEL 4
REMARK VINA RESULT:      -6.8      3.416      5.535
REMARK  Name = 
REMARK  5 active torsions:
REMARK  status: ('A' for Active; 'I' for Inactive)
REMARK    1  A    between atoms: C_1  and  O_2
REMARK    2  A    between atoms: O_2  and  C_3
REMARK    3  A    between atoms: C_3  and  C_5
REMARK    4  A    between atoms: N_9  and  S_10
REMARK    5  A    between atoms: S_10  and  C_13
REMARK                            x       y       z     vdW  Elec       q    Type
REMARK                         _______ _______ _______ _____ _____    ______ ____
ROOT
ATOM      1  C   UNL     1       2.078   4.563  19.655  0.00  0.00    +0.000 C 
ATOM      2  C   UNL     1       1.382   5.765  18.994  0.00  0.00    +0.000 C 
ATOM      3  C   UNL     1       2.258   6.977  19.348  0.00  0.00    +0.000 C 
ATOM      4  C   UNL     1       3.529   6.375  19.980  0.00  0.00    +0.000 C 
ATOM      5  N   UNL     1       3.540   4.920  19.635  0.00  0.00    +0.000 NA
ATOM      6  S   UNL     1       1.372   8.070  20.535  0.00  0.00    +0.000 S 
ATOM      7  C   UNL     1       1.212   9.534  19.467  0.00  0.00    +0.000 C 
ATOM      8  C   UNL     1       1.305   9.128  18.011  0.00  0.00    +0.000 C 
ATOM      9  S   UNL     1       2.689   7.988  17.881  0.00  0.00    +0.000 S 
ENDROOT
BRANCH   5  10
ATOM     10  S   UNL     1       4.395   4.466  18.223  0.00  0.00    +0.000 S 
ATOM     11  O   UNL     1       4.867   3.108  18.411  0.00  0.00    +0.000 OA
ATOM     12  O   UNL     1       3.574   4.797  17.082  0.00  0.00    +0.000 OA
BRANCH  10  13
ATOM     13  C   UNL     1       5.822   5.536  18.214  0.00  0.00    +0.000 A 
ATOM     14  C   UNL     1       6.844   5.346  19.149  0.00  0.00    +0.000 A 
ATOM     15  C   UNL     1       7.961   6.187  19.130  0.00  0.00    +0.000 A 
ATOM     16  C   UNL     1       8.065   7.201  18.174  0.00  0.00    +0.000 A 
ATOM     17  C   UNL     1       7.042   7.393  17.247  0.00  0.00    +0.000 A 
ATOM     18  C   UNL     1       5.916   6.566  17.265  0.00  0.00    +0.000 A 
ENDBRANCH  10  13
ENDBRANCH   5  10
BRANCH   1  19
ATOM     19  C   UNL     1       1.550   3.235  19.140  0.00  0.00    +0.000 C 
ATOM     20  O   UNL     1       0.937   3.102  18.090  0.00  0.00    +0.000 OA
BRANCH  19  22
ATOM     21  C   UNL     1       1.448   2.654  21.443  0.00  0.00    +0.000 C 
ATOM     22  O   UNL     1       1.694   2.264  20.087  0.00  0.00    +0.000 OA
ENDBRANCH  19  22
ENDBRANCH   1  19
TORSDOF 4
ENDMDL
MODEL 5
REMARK VINA RESULT:      -6.6      3.556      6.904
REMARK  Name = 
REMARK  5 active torsions:
REMARK  status: ('A' for Active; 'I' for Inactive)
REMARK    1  A    between atoms: C_1  and  O_2
REMARK    2  A    between atoms: O_2  and  C_3
REMARK    3  A    between atoms: C_3  and  C_5
REMARK    4  A    between atoms: N_9  and  S_10
REMARK    5  A    between atoms: S_10  and  C_13
REMARK                            x       y       z     vdW  Elec       q    Type
REMARK                         _______ _______ _______ _____ _____    ______ ____
ROOT
ATOM      1  C   UNL     1       2.677   3.611  18.147  0.00  0.00    +0.000 C 
ATOM      2  C   UNL     1       4.205   3.425  18.180  0.00  0.00    +0.000 C 
ATOM      3  C   UNL     1       4.769   4.642  17.431  0.00  0.00    +0.000 C 
ATOM      4  C   UNL     1       3.561   5.576  17.225  0.00  0.00    +0.000 C 
ATOM      5  N   UNL     1       2.483   5.103  18.146  0.00  0.00    +0.000 NA
ATOM      6  S   UNL     1       5.490   4.112  15.822  0.00  0.00    +0.000 S 
ATOM      7  C   UNL     1       7.224   4.547  16.160  0.00  0.00    +0.000 C 
ATOM      8  C   UNL     1       7.466   4.594  17.654  0.00  0.00    +0.000 C 
ATOM      9  S   UNL     1       6.088   5.499  18.372  0.00  0.00    +0.000 S 
ENDROOT
BRANCH   5  10
ATOM     10  S   UNL     1       2.403   5.842  19.688  0.00  0.00    +0.000 S 
ATOM     11  O   UNL     1       1.288   5.252  20.404  0.00  0.00    +0.000 OA
ATOM     12  O   UNL     1       3.729   5.814  20.261  0.00  0.00    +0.000 OA
BRANCH  10  13
ATOM     13  C   UNL     1       1.982   7.538  19.338  0.00  0.00    +0.000 A 
ATOM     14  C   UNL     1       2.253   8.080  18.077  0.00  0.00    +0.000 A 
ATOM     15  C   UNL     1       1.914   9.411  17.811  0.00  0.00    +0.000 A 
ATOM     16  C   UNL     1       1.295  10.191  18.791  0.00  0.00    +0.000 A 
ATOM     17  C   UNL     1       1.032   9.652  20.049  0.00  0.00    +0.000 A 
ATOM     18  C   UNL     1       1.377   8.327  20.329  0.00  0.00    +0.000 A 
ENDBRANCH  10  13
ENDBRANCH   5  10
BRANCH   1  19
ATOM     19  C   UNL     1       1.964   2.689  19.121  0.00  0.00    +0.000 C 
ATOM     20  O   UNL     1       0.777   2.403  19.050  0.00  0.00    +0.000 OA
BRANCH  19  22
ATOM     21  C   UNL     1       2.186   2.432  21.474  0.00  0.00    +0.000 C 
ATOM     22  O   UNL     1       2.778   2.380  20.170  0.00  0.00    +0.000 OA
ENDBRANCH  19  22
ENDBRANCH   1  19
TORSDOF 4
ENDMDL
MODEL 6
REMARK VINA RESULT:      -6.6      3.555      6.901
REMARK  Name = 
REMARK  5 active torsions:
REMARK  status: ('A' for Active; 'I' for Inactive)
REMARK    1  A    between atoms: C_1  and  O_2
REMARK    2  A    between atoms: O_2  and  C_3
REMARK    3  A    between atoms: C_3  and  C_5
REMARK    4  A    between atoms: N_9  and  S_10
REMARK    5  A    between atoms: S_10  and  C_13
REMARK                            x       y       z     vdW  Elec       q    Type
REMARK                         _______ _______ _______ _____ _____    ______ ____
ROOT
ATOM      1  C   UNL     1       2.682   3.631  18.136  0.00  0.00    +0.000 C 
ATOM      2  C   UNL     1       4.209   3.442  18.172  0.00  0.00    +0.000 C 
ATOM      3  C   UNL     1       4.778   4.660  17.427  0.00  0.00    +0.000 C 
ATOM      4  C   UNL     1       3.571   5.597  17.222  0.00  0.00    +0.000 C 
ATOM      5  N   UNL     1       2.490   5.123  18.140  0.00  0.00    +0.000 NA
ATOM      6  S   UNL     1       5.501   4.135  15.819  0.00  0.00    +0.000 S 
ATOM      7  C   UNL     1       7.234   4.565  16.162  0.00  0.00    +0.000 C 
ATOM      8  C   UNL     1       7.474   4.607  17.656  0.00  0.00    +0.000 C 
ATOM      9  S   UNL     1       6.096   5.512  18.374  0.00  0.00    +0.000 S 
ENDROOT
BRANCH   5  10
ATOM     10  S   UNL     1       2.409   5.858  19.684  0.00  0.00    +0.000 S 
ATOM     11  O   UNL     1       1.300   5.258  20.400  0.00  0.00    +0.000 OA
ATOM     12  O   UNL     1       3.736   5.837  20.253  0.00  0.00    +0.000 OA
BRANCH  10  13
ATOM     13  C   UNL     1       1.975   7.552  19.339  0.00  0.00    +0.000 A 
ATOM     14  C   UNL     1       1.362   8.331  20.326  0.00  0.00    +0.000 A 
ATOM     15  C   UNL     1       1.030   9.661  20.049  0.00  0.00    +0.000 A 
ATOM     16  C   UNL     1       1.321  10.214  18.799  0.00  0.00    +0.000 A 
ATOM     17  C   UNL     1       1.925   9.435  17.814  0.00  0.00    +0.000 A 
ATOM     18  C   UNL     1       2.250   8.102  18.078  0.00  0.00    +0.000 A 
ENDBRANCH  10  13
ENDBRANCH   5  10
BRANCH   1  19
ATOM     19  C   UNL     1       1.965   2.708  19.105  0.00  0.00    +0.000 C 
ATOM     20  O   UNL     1       0.769   2.454  19.053  0.00  0.00    +0.000 OA
BRANCH  19  22
ATOM     21  C   UNL     1       2.239   2.430  21.451  0.00  0.00    +0.000 C 
ATOM     22  O   UNL     1       2.792   2.355  20.131  0.00  0.00    +0.000 OA
ENDBRANCH  19  22
ENDBRANCH   1  19
TORSDOF 4
ENDMDL
MODEL 7
REMARK VINA RESULT:      -6.3      3.348      6.796
REMARK  Name = 
REMARK  5 active torsions:
REMARK  status: ('A' for Active; 'I' for Inactive)
REMARK    1  A    between atoms: C_1  and  O_2
REMARK    2  A    between atoms: O_2  and  C_3
REMARK    3  A    between atoms: C_3  and  C_5
REMARK    4  A    between atoms: N_9  and  S_10
REMARK    5  A    between atoms: S_10  and  C_13
REMARK                            x       y       z     vdW  Elec       q    Type
REMARK                         _______ _______ _______ _____ _____    ______ ____
ROOT
ATOM      1  C   UNL     1       3.188   3.348  18.368  0.00  0.00    +0.000 C 
ATOM      2  C   UNL     1       4.701   3.376  18.091  0.00  0.00    +0.000 C 
ATOM      3  C   UNL     1       4.912   4.579  17.158  0.00  0.00    +0.000 C 
ATOM      4  C   UNL     1       3.558   5.315  17.148  0.00  0.00    +0.000 C 
ATOM      5  N   UNL     1       2.770   4.792  18.306  0.00  0.00    +0.000 NA
ATOM      6  S   UNL     1       5.372   3.997  15.473  0.00  0.00    +0.000 S 
ATOM      7  C   UNL     1       7.050   4.696  15.408  0.00  0.00    +0.000 C 
ATOM      8  C   UNL     1       7.574   4.922  16.811  0.00  0.00    +0.000 C 
ATOM      9  S   UNL     1       6.244   5.696  17.740  0.00  0.00    +0.000 S 
ENDROOT
BRANCH   5  10
ATOM     10  S   UNL     1       2.885   5.661  19.776  0.00  0.00    +0.000 S 
ATOM     11  O   UNL     1       1.960   5.061  20.718  0.00  0.00    +0.000 OA
ATOM     12  O   UNL     1       4.285   5.780  20.111  0.00  0.00    +0.000 OA
BRANCH  10  13
ATOM     13  C   UNL     1       2.267   7.284  19.374  0.00  0.00    +0.000 A 
ATOM     14  C   UNL     1       2.491   7.822  18.102  0.00  0.00    +0.000 A 
ATOM     15  C   UNL     1       1.998   9.094  17.794  0.00  0.00    +0.000 A 
ATOM     16  C   UNL     1       1.274   9.819  18.744  0.00  0.00    +0.000 A 
ATOM     17  C   UNL     1       1.057   9.285  20.013  0.00  0.00    +0.000 A 
ATOM     18  C   UNL     1       1.556   8.020  20.334  0.00  0.00    +0.000 A 
ENDBRANCH  10  13
ENDBRANCH   5  10
BRANCH   1  19
ATOM     19  C   UNL     1       2.832   2.438  19.530  0.00  0.00    +0.000 C 
ATOM     20  O   UNL     1       3.527   2.294  20.526  0.00  0.00    +0.000 OA
BRANCH  19  22
ATOM     21  C   UNL     1       0.534   2.396  18.920  0.00  0.00    +0.000 C 
ATOM     22  O   UNL     1       1.737   1.682  19.228  0.00  0.00    +0.000 OA
ENDBRANCH  19  22
ENDBRANCH   1  19
TORSDOF 4
ENDMDL
MODEL 8
REMARK VINA RESULT:      -6.2      1.147      1.624
REMARK  Name = 
REMARK  5 active torsions:
REMARK  status: ('A' for Active; 'I' for Inactive)
REMARK    1  A    between atoms: C_1  and  O_2
REMARK    2  A    between atoms: O_2  and  C_3
REMARK    3  A    between atoms: C_3  and  C_5
REMARK    4  A    between atoms: N_9  and  S_10
REMARK    5  A    between atoms: S_10  and  C_13
REMARK                            x       y       z     vdW  Elec       q    Type
REMARK                         _______ _______ _______ _____ _____    ______ ____
ROOT
ATOM      1  C   UNL     1       6.085   6.881  17.324  0.00  0.00    +0.000 C 
ATOM      2  C   UNL     1       5.426   5.908  18.317  0.00  0.00    +0.000 C 
ATOM      3  C   UNL     1       4.281   5.252  17.531  0.00  0.00    +0.000 C 
ATOM      4  C   UNL     1       4.497   5.697  16.071  0.00  0.00    +0.000 C 
ATOM      5  N   UNL     1       5.891   6.232  15.981  0.00  0.00    +0.000 NA
ATOM      6  S   UNL     1       2.659   5.832  18.177  0.00  0.00    +0.000 S 
ATOM      7  C   UNL     1       2.045   4.239  18.804  0.00  0.00    +0.000 C 
ATOM      8  C   UNL     1       3.206   3.304  19.072  0.00  0.00    +0.000 C 
ATOM      9  S   UNL     1       4.302   3.423  17.651  0.00  0.00    +0.000 S 
ENDROOT
BRANCH   5  10
ATOM     10  S   UNL     1       7.112   5.132  15.504  0.00  0.00    +0.000 S 
ATOM     11  O   UNL     1       8.280   5.904  15.128  0.00  0.00    +0.000 OA
ATOM     12  O   UNL     1       7.213   4.114  16.524  0.00  0.00    +0.000 OA
BRANCH  10  13
ATOM     13  C   UNL     1       6.467   4.377  14.023  0.00  0.00    +0.000 A 
ATOM     14  C   UNL     1       5.152   3.900  13.997  0.00  0.00    +0.000 A 
ATOM     15  C   UNL     1       4.653   3.314  12.830  0.00  0.00    +0.000 A 
ATOM     16  C   UNL     1       5.456   3.218  11.690  0.00  0.00    +0.000 A 
ATOM     17  C   UNL     1       6.769   3.687  11.719  0.00  0.00    +0.000 A 
ATOM     18  C   UNL     1       7.280   4.264  12.885  0.00  0.00    +0.000 A 
ENDBRANCH  10  13
ENDBRANCH   5  10
BRANCH   1  19
ATOM     19  C   UNL     1       7.437   7.374  17.810  0.00  0.00    +0.000 C 
ATOM     20  O   UNL     1       8.117   6.796  18.648  0.00  0.00    +0.000 OA
BRANCH  19  22
ATOM     21  C   UNL     1       8.454   9.492  18.172  0.00  0.00    +0.000 C 
ATOM     22  O   UNL     1       7.695   8.622  17.324  0.00  0.00    +0.000 OA
ENDBRANCH  19  22
ENDBRANCH   1  19
TORSDOF 4
ENDMDL
MODEL 9
REMARK VINA RESULT:      -6.2      3.433      6.810
REMARK  Name = 
REMARK  5 active torsions:
REMARK  status: ('A' for Active; 'I' for Inactive)
REMARK    1  A    between atoms: C_1  and  O_2
REMARK    2  A    between atoms: O_2  and  C_3
REMARK    3  A    between atoms: C_3  and  C_5
REMARK    4  A    between atoms: N_9  and  S_10
REMARK    5  A    between atoms: S_10  and  C_13
REMARK                            x       y       z     vdW  Elec       q    Type
REMARK                         _______ _______ _______ _____ _____    ______ ____
ROOT
ATOM      1  C   UNL     1       3.118   3.359  18.614  0.00  0.00    +0.000 C 
ATOM      2  C   UNL     1       4.633   3.384  18.346  0.00  0.00    +0.000 C 
ATOM      3  C   UNL     1       4.843   4.541  17.356  0.00  0.00    +0.000 C 
ATOM      4  C   UNL     1       3.484   5.266  17.302  0.00  0.00    +0.000 C 
ATOM      5  N   UNL     1       2.691   4.795  18.479  0.00  0.00    +0.000 NA
ATOM      6  S   UNL     1       5.318   3.881  15.705  0.00  0.00    +0.000 S 
ATOM      7  C   UNL     1       6.992   4.586  15.617  0.00  0.00    +0.000 C 
ATOM      8  C   UNL     1       7.505   4.885  17.010  0.00  0.00    +0.000 C 
ATOM      9  S   UNL     1       6.163   5.694  17.891  0.00  0.00    +0.000 S 
ENDROOT
BRANCH   5  10
ATOM     10  S   UNL     1       2.791   5.737  19.905  0.00  0.00    +0.000 S 
ATOM     11  O   UNL     1       1.851   5.188  20.863  0.00  0.00    +0.000 OA
ATOM     12  O   UNL     1       4.187   5.867  20.253  0.00  0.00    +0.000 OA
BRANCH  10  13
ATOM     13  C   UNL     1       2.186   7.340  19.414  0.00  0.00    +0.000 A 
ATOM     14  C   UNL     1       1.478   8.130  20.326  0.00  0.00    +0.000 A 
ATOM     15  C   UNL     1       1.012   9.388  19.933  0.00  0.00    +0.000 A 
ATOM     16  C   UNL     1       1.264   9.862  18.643  0.00  0.00    +0.000 A 
ATOM     17  C   UNL     1       1.964   9.072  17.733  0.00  0.00    +0.000 A 
ATOM     18  C   UNL     1       2.423   7.808  18.112  0.00  0.00    +0.000 A 
ENDBRANCH  10  13
ENDBRANCH   5  10
BRANCH   1  19
ATOM     19  C   UNL     1       2.760   2.505  19.818  0.00  0.00    +0.000 C 
ATOM     20  O   UNL     1       3.479   2.365  20.797  0.00  0.00    +0.000 OA
BRANCH  19  22
ATOM     21  C   UNL     1       0.651   2.402  18.725  0.00  0.00    +0.000 C 
ATOM     22  O   UNL     1       1.627   1.786  19.574  0.00  0.00    +0.000 OA
ENDBRANCH  19  22
ENDBRANCH   1  19
TORSDOF 4
ENDMDL
