MODEL 1
REMARK VINA RESULT:      -5.2      0.000      0.000
REMARK  Name = 
REMARK  15 active torsions:
REMARK  status: ('A' for Active; 'I' for Inactive)
REMARK    1  A    between atoms: C_1  and  N_2
REMARK    2  A    between atoms: N_2  and  C_3
REMARK    3  A    between atoms: N_6  and  C_7
REMARK    4  A    between atoms: N_6  and  C_10
REMARK    5  A    between atoms: C_7  and  C_8
REMARK    6  A    between atoms: C_8  and  O_9
REMARK    7  A    between atoms: C_10  and  C_11
REMARK    8  A    between atoms: C_11  and  O_12
REMARK    9  A    between atoms: N_16  and  C_17
REMARK   10  A    between atoms: N_20  and  C_21
REMARK   11  A    between atoms: N_20  and  C_24
REMARK   12  A    between atoms: C_21  and  C_22
REMARK   13  A    between atoms: C_22  and  O_23
REMARK   14  A    between atoms: C_24  and  C_25
REMARK   15  A    between atoms: C_25  and  O_26
REMARK                            x       y       z     vdW  Elec       q    Type
REMARK                         _______ _______ _______ _____ _____    ______ ____
ROOT
ATOM      1  C   UNL     1       2.054   6.904  19.787  0.00  0.00    +0.000 A 
ATOM      2  N   UNL     1       2.858   6.223  18.924  0.00  0.00    +0.000 NA
ATOM      3  C   UNL     1       3.399   6.893  17.907  0.00  0.00    +0.000 A 
ATOM      4  N   UNL     1       4.263   6.261  17.040  0.00  0.00    +0.000 N 
ATOM      5  N   UNL     1       3.157   8.200  17.704  0.00  0.00    +0.000 NA
ATOM      6  C   UNL     1       2.295   8.843  18.537  0.00  0.00    +0.000 A 
ATOM      7  C   UNL     1       1.941  10.197  18.406  0.00  0.00    +0.000 A 
ATOM      8  N   UNL     1       2.480  10.941  17.331  0.00  0.00    +0.000 N 
ATOM      9  C   UNL     1       2.582  12.377  17.548  0.00  0.00    +0.000 C 
ATOM     10  N   UNL     1       1.053  10.821  19.211  0.00  0.00    +0.000 NA
ATOM     11  C   UNL     1       0.535  10.151  20.235  0.00  0.00    +0.000 A 
ATOM     12  N   UNL     1      -0.350  10.797  21.084  0.00  0.00    +0.000 N 
ATOM     13  N   UNL     1       0.864   8.887  20.493  0.00  0.00    +0.000 NA
ATOM     14  C   UNL     1       1.709   8.252  19.633  0.00  0.00    +0.000 A 
ATOM     15  H   UNL     1       3.354  10.512  17.031  0.00  0.00    +0.000 HD
ENDROOT
BRANCH   1  17
ATOM     16  C   UNL     1       1.878   4.854  21.077  0.00  0.00    +0.000 C 
ATOM     17  N   UNL     1       1.614   6.272  20.981  0.00  0.00    +0.000 N 
ATOM     18  H   UNL     1       0.630   6.514  21.119  0.00  0.00    +0.000 HD
ENDBRANCH   1  17
BRANCH   4  19
ATOM     19  C   UNL     1       4.352   4.795  16.989  0.00  0.00    +0.000 C 
BRANCH  19  20
ATOM     20  C   UNL     1       5.157   4.293  15.778  0.00  0.00    +0.000 C 
BRANCH  20  21
ATOM     21  O   UNL     1       6.410   3.720  16.163  0.00  0.00    +0.000 OA
ATOM     22  H   UNL     1       6.628   4.111  17.028  0.00  0.00    +0.000 HD
ENDBRANCH  20  21
ENDBRANCH  19  20
ENDBRANCH   4  19
BRANCH   4  23
ATOM     23  C   UNL     1       5.365   7.044  16.466  0.00  0.00    +0.000 C 
BRANCH  23  24
ATOM     24  C   UNL     1       6.637   7.033  17.335  0.00  0.00    +0.000 C 
BRANCH  24  25
ATOM     25  O   UNL     1       7.757   6.508  16.624  0.00  0.00    +0.000 OA
ATOM     26  H   UNL     1       7.860   7.070  15.833  0.00  0.00    +0.000 HD
ENDBRANCH  24  25
ENDBRANCH  23  24
ENDBRANCH   4  23
BRANCH  12  27
ATOM     27  C   UNL     1      -0.947  12.065  20.618  0.00  0.00    +0.000 C 
BRANCH  27  28
ATOM     28  C   UNL     1      -2.177  11.831  19.724  0.00  0.00    +0.000 C 
BRANCH  28  29
ATOM     29  O   UNL     1      -2.994  12.999  19.647  0.00  0.00    +0.000 OA
ATOM     30  H   UNL     1      -2.629  13.613  20.313  0.00  0.00    +0.000 HD
ENDBRANCH  28  29
ENDBRANCH  27  28
ENDBRANCH  12  27
BRANCH  12  31
ATOM     31  C   UNL     1       0.015  10.715  22.513  0.00  0.00    +0.000 C 
BRANCH  31  32
ATOM     32  C   UNL     1      -0.873   9.771  23.346  0.00  0.00    +0.000 C 
BRANCH  32  33
ATOM     33  O   UNL     1      -0.916   8.455  22.798  0.00  0.00    +0.000 OA
ATOM     34  H   UNL     1      -1.799   8.359  22.398  0.00  0.00    +0.000 HD
ENDBRANCH  32  33
ENDBRANCH  31  32
ENDBRANCH  12  31
TORSDOF 13
ENDMDL
MODEL 2
REMARK VINA RESULT:      -5.1      3.848      6.467
REMARK  Name = 
REMARK  15 active torsions:
REMARK  status: ('A' for Active; 'I' for Inactive)
REMARK    1  A    between atoms: C_1  and  N_2
REMARK    2  A    between atoms: N_2  and  C_3
REMARK    3  A    between atoms: N_6  and  C_7
REMARK    4  A    between atoms: N_6  and  C_10
REMARK    5  A    between atoms: C_7  and  C_8
REMARK    6  A    between atoms: C_8  and  O_9
REMARK    7  A    between atoms: C_10  and  C_11
REMARK    8  A    between atoms: C_11  and  O_12
REMARK    9  A    between atoms: N_16  and  C_17
REMARK   10  A    between atoms: N_20  and  C_21
REMARK   11  A    between atoms: N_20  and  C_24
REMARK   12  A    between atoms: C_21  and  C_22
REMARK   13  A    between atoms: C_22  and  O_23
REMARK   14  A    between atoms: C_24  and  C_25
REMARK   15  A    between atoms: C_25  and  O_26
REMARK                            x       y       z     vdW  Elec       q    Type
REMARK                         _______ _______ _______ _____ _____    ______ ____
ROOT
ATOM      1  C   UNL     1      -2.398  10.329  17.345  0.00  0.00    +0.000 A 
ATOM      2  N   UNL     1      -1.092   9.971  17.489  0.00  0.00    +0.000 NA
ATOM      3  C   UNL     1      -0.440  10.393  18.572  0.00  0.00    +0.000 A 
ATOM      4  N   UNL     1       0.865  10.012  18.790  0.00  0.00    +0.000 N 
ATOM      5  N   UNL     1      -1.027  11.169  19.501  0.00  0.00    +0.000 NA
ATOM      6  C   UNL     1      -2.310  11.572  19.302  0.00  0.00    +0.000 A 
ATOM      7  C   UNL     1      -3.016  12.407  20.185  0.00  0.00    +0.000 A 
ATOM      8  N   UNL     1      -2.357  12.890  21.339  0.00  0.00    +0.000 N 
ATOM      9  C   UNL     1      -3.219  13.222  22.464  0.00  0.00    +0.000 C 
ATOM     10  N   UNL     1      -4.278  12.838  19.962  0.00  0.00    +0.000 NA
ATOM     11  C   UNL     1      -4.927  12.394  18.891  0.00  0.00    +0.000 A 
ATOM     12  N   UNL     1      -6.233  12.807  18.677  0.00  0.00    +0.000 N 
ATOM     13  N   UNL     1      -4.375  11.539  18.032  0.00  0.00    +0.000 NA
ATOM     14  C   UNL     1      -3.080  11.168  18.235  0.00  0.00    +0.000 A 
ATOM     15  H   UNL     1      -1.597  12.256  21.582  0.00  0.00    +0.000 HD
ENDROOT
BRANCH   1  17
ATOM     16  C   UNL     1      -2.935  10.262  14.978  0.00  0.00    +0.000 C 
ATOM     17  N   UNL     1      -3.174   9.746  16.307  0.00  0.00    +0.000 N 
ATOM     18  H   UNL     1      -4.155   9.785  16.590  0.00  0.00    +0.000 HD
ENDBRANCH   1  17
BRANCH   4  19
ATOM     19  C   UNL     1       1.679   9.434  17.711  0.00  0.00    +0.000 C 
BRANCH  19  20
ATOM     20  C   UNL     1       2.662   8.366  18.219  0.00  0.00    +0.000 C 
BRANCH  20  21
ATOM     21  O   UNL     1       2.161   7.039  18.034  0.00  0.00    +0.000 OA
ATOM     22  H   UNL     1       2.449   6.533  18.815  0.00  0.00    +0.000 HD
ENDBRANCH  20  21
ENDBRANCH  19  20
ENDBRANCH   4  19
BRANCH   4  23
ATOM     23  C   UNL     1       1.307   9.812  20.176  0.00  0.00    +0.000 C 
BRANCH  23  24
ATOM     24  C   UNL     1       0.642   8.601  20.858  0.00  0.00    +0.000 C 
BRANCH  24  25
ATOM     25  O   UNL     1       1.602   7.760  21.494  0.00  0.00    +0.000 OA
ATOM     26  H   UNL     1       1.361   6.846  21.252  0.00  0.00    +0.000 HD
ENDBRANCH  24  25
ENDBRANCH  23  24
ENDBRANCH   4  23
BRANCH  12  27
ATOM     27  C   UNL     1      -6.716  13.978  19.435  0.00  0.00    +0.000 C 
BRANCH  27  28
ATOM     28  C   UNL     1      -6.602  15.280  18.622  0.00  0.00    +0.000 C 
BRANCH  28  29
ATOM     29  O   UNL     1      -6.578  15.017  17.219  0.00  0.00    +0.000 OA
ATOM     30  H   UNL     1      -5.634  14.925  16.991  0.00  0.00    +0.000 HD
ENDBRANCH  28  29
ENDBRANCH  27  28
ENDBRANCH  12  27
BRANCH  12  31
ATOM     31  C   UNL     1      -7.190  11.700  18.474  0.00  0.00    +0.000 C 
BRANCH  31  32
ATOM     32  C   UNL     1      -7.214  10.660  19.610  0.00  0.00    +0.000 C 
BRANCH  32  33
ATOM     33  O   UNL     1      -7.503   9.349  19.128  0.00  0.00    +0.000 OA
ATOM     34  H   UNL     1      -6.812   9.144  18.474  0.00  0.00    +0.000 HD
ENDBRANCH  32  33
ENDBRANCH  31  32
ENDBRANCH  12  31
TORSDOF 13
ENDMDL
MODEL 3
REMARK VINA RESULT:      -5.0      5.954      9.261
REMARK  Name = 
REMARK  15 active torsions:
REMARK  status: ('A' for Active; 'I' for Inactive)
REMARK    1  A    between atoms: C_1  and  N_2
REMARK    2  A    between atoms: N_2  and  C_3
REMARK    3  A    between atoms: N_6  and  C_7
REMARK    4  A    between atoms: N_6  and  C_10
REMARK    5  A    between atoms: C_7  and  C_8
REMARK    6  A    between atoms: C_8  and  O_9
REMARK    7  A    between atoms: C_10  and  C_11
REMARK    8  A    between atoms: C_11  and  O_12
REMARK    9  A    between atoms: N_16  and  C_17
REMARK   10  A    between atoms: N_20  and  C_21
REMARK   11  A    between atoms: N_20  and  C_24
REMARK   12  A    between atoms: C_21  and  C_22
REMARK   13  A    between atoms: C_22  and  O_23
REMARK   14  A    between atoms: C_24  and  C_25
REMARK   15  A    between atoms: C_25  and  O_26
REMARK                            x       y       z     vdW  Elec       q    Type
REMARK                         _______ _______ _______ _____ _____    ______ ____
ROOT
ATOM      1  C   UNL     1      -2.853  11.801  18.254  0.00  0.00    +0.000 A 
ATOM      2  N   UNL     1      -4.188  11.545  18.335  0.00  0.00    +0.000 NA
ATOM      3  C   UNL     1      -4.863  12.051  19.367  0.00  0.00    +0.000 A 
ATOM      4  N   UNL     1      -6.225  11.866  19.463  0.00  0.00    +0.000 N 
ATOM      5  N   UNL     1      -4.264  12.779  20.325  0.00  0.00    +0.000 NA
ATOM      6  C   UNL     1      -2.918  12.963  20.261  0.00  0.00    +0.000 A 
ATOM      7  C   UNL     1      -2.177  13.677  21.219  0.00  0.00    +0.000 A 
ATOM      8  N   UNL     1      -2.852  14.217  22.337  0.00  0.00    +0.000 N 
ATOM      9  C   UNL     1      -2.227  15.382  22.948  0.00  0.00    +0.000 C 
ATOM     10  N   UNL     1      -0.834  13.822  21.172  0.00  0.00    +0.000 NA
ATOM     11  C   UNL     1      -0.172  13.334  20.129  0.00  0.00    +0.000 A 
ATOM     12  N   UNL     1       1.201  13.510  20.061  0.00  0.00    +0.000 N 
ATOM     13  N   UNL     1      -0.789  12.707  19.130  0.00  0.00    +0.000 NA
ATOM     14  C   UNL     1      -2.134  12.510  19.224  0.00  0.00    +0.000 A 
ATOM     15  H   UNL     1      -3.833  14.360  22.101  0.00  0.00    +0.000 HD
ENDROOT
BRANCH   1  17
ATOM     16  C   UNL     1      -2.153  10.034  16.742  0.00  0.00    +0.000 C 
ATOM     17  N   UNL     1      -2.140  11.440  17.079  0.00  0.00    +0.000 N 
ATOM     18  H   UNL     1      -1.200  11.834  17.149  0.00  0.00    +0.000 HD
ENDBRANCH   1  17
BRANCH   4  19
ATOM     19  C   UNL     1      -6.914  10.850  18.655  0.00  0.00    +0.000 C 
BRANCH  19  20
ATOM     20  C   UNL     1      -6.844   9.447  19.283  0.00  0.00    +0.000 C 
BRANCH  20  21
ATOM     21  O   UNL     1      -7.277   9.444  20.646  0.00  0.00    +0.000 OA
ATOM     22  H   UNL     1      -8.044   8.844  20.682  0.00  0.00    +0.000 HD
ENDBRANCH  20  21
ENDBRANCH  19  20
ENDBRANCH   4  19
BRANCH   4  23
ATOM     23  C   UNL     1      -7.029  12.938  20.063  0.00  0.00    +0.000 C 
BRANCH  23  24
ATOM     24  C   UNL     1      -7.594  12.574  21.449  0.00  0.00    +0.000 C 
BRANCH  24  25
ATOM     25  O   UNL     1      -6.655  11.828  22.223  0.00  0.00    +0.000 OA
ATOM     26  H   UNL     1      -6.631  12.255  23.100  0.00  0.00    +0.000 HD
ENDBRANCH  24  25
ENDBRANCH  23  24
ENDBRANCH   4  23
BRANCH  12  27
ATOM     27  C   UNL     1       1.905  13.908  21.296  0.00  0.00    +0.000 C 
BRANCH  27  28
ATOM     28  C   UNL     1       2.197  15.418  21.335  0.00  0.00    +0.000 C 
BRANCH  28  29
ATOM     29  O   UNL     1       1.176  16.128  22.036  0.00  0.00    +0.000 OA
ATOM     30  H   UNL     1       1.535  17.025  22.175  0.00  0.00    +0.000 HD
ENDBRANCH  28  29
ENDBRANCH  27  28
ENDBRANCH  12  27
BRANCH  12  31
ATOM     31  C   UNL     1       1.670  14.117  18.799  0.00  0.00    +0.000 C 
BRANCH  31  32
ATOM     32  C   UNL     1       2.941  13.474  18.213  0.00  0.00    +0.000 C 
BRANCH  32  33
ATOM     33  O   UNL     1       2.639  12.376  17.356  0.00  0.00    +0.000 OA
ATOM     34  H   UNL     1       2.883  12.661  16.457  0.00  0.00    +0.000 HD
ENDBRANCH  32  33
ENDBRANCH  31  32
ENDBRANCH  12  31
TORSDOF 13
ENDMDL
MODEL 4
REMARK VINA RESULT:      -5.0      3.831      6.445
REMARK  Name = 
REMARK  15 active torsions:
REMARK  status: ('A' for Active; 'I' for Inactive)
REMARK    1  A    between atoms: C_1  and  N_2
REMARK    2  A    between atoms: N_2  and  C_3
REMARK    3  A    between atoms: N_6  and  C_7
REMARK    4  A    between atoms: N_6  and  C_10
REMARK    5  A    between atoms: C_7  and  C_8
REMARK    6  A    between atoms: C_8  and  O_9
REMARK    7  A    between atoms: C_10  and  C_11
REMARK    8  A    between atoms: C_11  and  O_12
REMARK    9  A    between atoms: N_16  and  C_17
REMARK   10  A    between atoms: N_20  and  C_21
REMARK   11  A    between atoms: N_20  and  C_24
REMARK   12  A    between atoms: C_21  and  C_22
REMARK   13  A    between atoms: C_22  and  O_23
REMARK   14  A    between atoms: C_24  and  C_25
REMARK   15  A    between atoms: C_25  and  O_26
REMARK                            x       y       z     vdW  Elec       q    Type
REMARK                         _______ _______ _______ _____ _____    ______ ____
ROOT
ATOM      1  C   UNL     1      -2.467  10.325  17.386  0.00  0.00    +0.000 A 
ATOM      2  N   UNL     1      -1.164   9.949  17.506  0.00  0.00    +0.000 NA
ATOM      3  C   UNL     1      -0.482  10.376  18.568  0.00  0.00    +0.000 A 
ATOM      4  N   UNL     1       0.822   9.979  18.763  0.00  0.00    +0.000 N 
ATOM      5  N   UNL     1      -1.036  11.173  19.500  0.00  0.00    +0.000 NA
ATOM      6  C   UNL     1      -2.318  11.592  19.323  0.00  0.00    +0.000 A 
ATOM      7  C   UNL     1      -2.992  12.449  20.210  0.00  0.00    +0.000 A 
ATOM      8  N   UNL     1      -2.301  12.937  21.342  0.00  0.00    +0.000 N 
ATOM      9  C   UNL     1      -3.133  13.297  22.481  0.00  0.00    +0.000 C 
ATOM     10  N   UNL     1      -4.252  12.895  20.009  0.00  0.00    +0.000 NA
ATOM     11  C   UNL     1      -4.931  12.447  18.959  0.00  0.00    +0.000 A 
ATOM     12  N   UNL     1      -6.235  12.876  18.767  0.00  0.00    +0.000 N 
ATOM     13  N   UNL     1      -4.410  11.573  18.100  0.00  0.00    +0.000 NA
ATOM     14  C   UNL     1      -3.117  11.185  18.279  0.00  0.00    +0.000 A 
ATOM     15  H   UNL     1      -1.545  12.296  21.578  0.00  0.00    +0.000 HD
ENDROOT
BRANCH   1  17
ATOM     16  C   UNL     1      -2.977  10.148  15.018  0.00  0.00    +0.000 C 
ATOM     17  N   UNL     1      -3.274   9.740  16.373  0.00  0.00    +0.000 N 
ATOM     18  H   UNL     1      -4.253   9.875  16.635  0.00  0.00    +0.000 HD
ENDBRANCH   1  17
BRANCH   4  19
ATOM     19  C   UNL     1       1.604   9.375  17.675  0.00  0.00    +0.000 C 
BRANCH  19  20
ATOM     20  C   UNL     1       2.703   8.430  18.189  0.00  0.00    +0.000 C 
BRANCH  20  21
ATOM     21  O   UNL     1       2.288   7.061  18.178  0.00  0.00    +0.000 OA
ATOM     22  H   UNL     1       2.279   6.777  19.110  0.00  0.00    +0.000 HD
ENDBRANCH  20  21
ENDBRANCH  19  20
ENDBRANCH   4  19
BRANCH   4  23
ATOM     23  C   UNL     1       1.291   9.790  20.142  0.00  0.00    +0.000 C 
BRANCH  23  24
ATOM     24  C   UNL     1       0.619   8.603  20.857  0.00  0.00    +0.000 C 
BRANCH  24  25
ATOM     25  O   UNL     1       1.566   7.603  21.227  0.00  0.00    +0.000 OA
ATOM     26  H   UNL     1       1.055   6.783  21.354  0.00  0.00    +0.000 HD
ENDBRANCH  24  25
ENDBRANCH  23  24
ENDBRANCH   4  23
BRANCH  12  27
ATOM     27  C   UNL     1      -6.685  14.064  19.520  0.00  0.00    +0.000 C 
BRANCH  27  28
ATOM     28  C   UNL     1      -7.573  13.689  20.719  0.00  0.00    +0.000 C 
BRANCH  28  29
ATOM     29  O   UNL     1      -6.787  13.345  21.860  0.00  0.00    +0.000 OA
ATOM     30  H   UNL     1      -6.262  14.143  22.061  0.00  0.00    +0.000 HD
ENDBRANCH  28  29
ENDBRANCH  27  28
ENDBRANCH  12  27
BRANCH  12  31
ATOM     31  C   UNL     1      -7.212  11.782  18.600  0.00  0.00    +0.000 C 
BRANCH  31  32
ATOM     32  C   UNL     1      -7.014  10.596  19.564  0.00  0.00    +0.000 C 
BRANCH  32  33
ATOM     33  O   UNL     1      -7.460   9.366  18.997  0.00  0.00    +0.000 OA
ATOM     34  H   UNL     1      -6.665   8.929  18.641  0.00  0.00    +0.000 HD
ENDBRANCH  32  33
ENDBRANCH  31  32
ENDBRANCH  12  31
TORSDOF 13
ENDMDL
MODEL 5
REMARK VINA RESULT:      -4.9      5.317      7.829
REMARK  Name = 
REMARK  15 active torsions:
REMARK  status: ('A' for Active; 'I' for Inactive)
REMARK    1  A    between atoms: C_1  and  N_2
REMARK    2  A    between atoms: N_2  and  C_3
REMARK    3  A    between atoms: N_6  and  C_7
REMARK    4  A    between atoms: N_6  and  C_10
REMARK    5  A    between atoms: C_7  and  C_8
REMARK    6  A    between atoms: C_8  and  O_9
REMARK    7  A    between atoms: C_10  and  C_11
REMARK    8  A    between atoms: C_11  and  O_12
REMARK    9  A    between atoms: N_16  and  C_17
REMARK   10  A    between atoms: N_20  and  C_21
REMARK   11  A    between atoms: N_20  and  C_24
REMARK   12  A    between atoms: C_21  and  C_22
REMARK   13  A    between atoms: C_22  and  O_23
REMARK   14  A    between atoms: C_24  and  C_25
REMARK   15  A    between atoms: C_25  and  O_26
REMARK                            x       y       z     vdW  Elec       q    Type
REMARK                         _______ _______ _______ _____ _____    ______ ____
ROOT
ATOM      1  C   UNL     1      -2.716  12.082  18.406  0.00  0.00    +0.000 A 
ATOM      2  N   UNL     1      -1.359  12.174  18.457  0.00  0.00    +0.000 NA
ATOM      3  C   UNL     1      -0.785  12.344  19.648  0.00  0.00    +0.000 A 
ATOM      4  N   UNL     1       0.588  12.388  19.757  0.00  0.00    +0.000 N 
ATOM      5  N   UNL     1      -1.504  12.445  20.780  0.00  0.00    +0.000 NA
ATOM      6  C   UNL     1      -2.861  12.421  20.697  0.00  0.00    +0.000 A 
ATOM      7  C   UNL     1      -3.717  12.549  21.804  0.00  0.00    +0.000 A 
ATOM      8  N   UNL     1      -3.150  12.747  23.084  0.00  0.00    +0.000 N 
ATOM      9  C   UNL     1      -3.960  12.297  24.207  0.00  0.00    +0.000 C 
ATOM     10  N   UNL     1      -5.066  12.565  21.711  0.00  0.00    +0.000 NA
ATOM     11  C   UNL     1      -5.629  12.373  20.523  0.00  0.00    +0.000 A 
ATOM     12  N   UNL     1      -7.012  12.355  20.429  0.00  0.00    +0.000 N 
ATOM     13  N   UNL     1      -4.908  12.166  19.423  0.00  0.00    +0.000 NA
ATOM     14  C   UNL     1      -3.551  12.219  19.523  0.00  0.00    +0.000 A 
ATOM     15  H   UNL     1      -2.201  12.375  23.092  0.00  0.00    +0.000 HD
ENDROOT
BRANCH   1  17
ATOM     16  C   UNL     1      -2.565  10.889  16.297  0.00  0.00    +0.000 C 
ATOM     17  N   UNL     1      -3.348  11.715  17.187  0.00  0.00    +0.000 N 
ATOM     18  H   UNL     1      -3.701  12.568  16.748  0.00  0.00    +0.000 HD
ENDBRANCH   1  17
BRANCH   4  19
ATOM     19  C   UNL     1       1.439  12.592  18.577  0.00  0.00    +0.000 C 
BRANCH  19  20
ATOM     20  C   UNL     1       2.431  13.754  18.757  0.00  0.00    +0.000 C 
BRANCH  20  21
ATOM     21  O   UNL     1       1.792  15.030  18.654  0.00  0.00    +0.000 OA
ATOM     22  H   UNL     1       0.972  14.878  18.151  0.00  0.00    +0.000 HD
ENDBRANCH  20  21
ENDBRANCH  19  20
ENDBRANCH   4  19
BRANCH   4  23
ATOM     23  C   UNL     1       1.204  11.836  20.971  0.00  0.00    +0.000 C 
BRANCH  23  24
ATOM     24  C   UNL     1       1.009  10.314  21.115  0.00  0.00    +0.000 C 
BRANCH  24  25
ATOM     25  O   UNL     1       1.199   9.883  22.461  0.00  0.00    +0.000 OA
ATOM     26  H   UNL     1       0.317   9.622  22.786  0.00  0.00    +0.000 HD
ENDBRANCH  24  25
ENDBRANCH  23  24
ENDBRANCH   4  23
BRANCH  12  27
ATOM     27  C   UNL     1      -7.785  12.897  21.565  0.00  0.00    +0.000 C 
BRANCH  27  28
ATOM     28  C   UNL     1      -7.891  14.431  21.514  0.00  0.00    +0.000 C 
BRANCH  28  29
ATOM     29  O   UNL     1      -6.942  15.047  22.385  0.00  0.00    +0.000 OA
ATOM     30  H   UNL     1      -7.091  16.007  22.289  0.00  0.00    +0.000 HD
ENDBRANCH  28  29
ENDBRANCH  27  28
ENDBRANCH  12  27
BRANCH  12  31
ATOM     31  C   UNL     1      -7.556  11.155  19.762  0.00  0.00    +0.000 C 
BRANCH  31  32
ATOM     32  C   UNL     1      -7.604   9.897  20.650  0.00  0.00    +0.000 C 
BRANCH  32  33
ATOM     33  O   UNL     1      -7.896   8.722  19.896  0.00  0.00    +0.000 OA
ATOM     34  H   UNL     1      -7.742   7.971  20.497  0.00  0.00    +0.000 HD
ENDBRANCH  32  33
ENDBRANCH  31  32
ENDBRANCH  12  31
TORSDOF 13
ENDMDL
MODEL 6
REMARK VINA RESULT:      -4.9      1.370      1.497
REMARK  Name = 
REMARK  15 active torsions:
REMARK  status: ('A' for Active; 'I' for Inactive)
REMARK    1  A    between atoms: C_1  and  N_2
REMARK    2  A    between atoms: N_2  and  C_3
REMARK    3  A    between atoms: N_6  and  C_7
REMARK    4  A    between atoms: N_6  and  C_10
REMARK    5  A    between atoms: C_7  and  C_8
REMARK    6  A    between atoms: C_8  and  O_9
REMARK    7  A    between atoms: C_10  and  C_11
REMARK    8  A    between atoms: C_11  and  O_12
REMARK    9  A    between atoms: N_16  and  C_17
REMARK   10  A    between atoms: N_20  and  C_21
REMARK   11  A    between atoms: N_20  and  C_24
REMARK   12  A    between atoms: C_21  and  C_22
REMARK   13  A    between atoms: C_22  and  O_23
REMARK   14  A    between atoms: C_24  and  C_25
REMARK   15  A    between atoms: C_25  and  O_26
REMARK                            x       y       z     vdW  Elec       q    Type
REMARK                         _______ _______ _______ _____ _____    ______ ____
ROOT
ATOM      1  C   UNL     1       2.299   6.053  19.927  0.00  0.00    +0.000 A 
ATOM      2  N   UNL     1       3.073   5.506  18.950  0.00  0.00    +0.000 NA
ATOM      3  C   UNL     1       3.460   6.289  17.943  0.00  0.00    +0.000 A 
ATOM      4  N   UNL     1       4.289   5.796  16.959  0.00  0.00    +0.000 N 
ATOM      5  N   UNL     1       3.093   7.580  17.860  0.00  0.00    +0.000 NA
ATOM      6  C   UNL     1       2.262   8.086  18.810  0.00  0.00    +0.000 A 
ATOM      7  C   UNL     1       1.787   9.409  18.813  0.00  0.00    +0.000 A 
ATOM      8  N   UNL     1       2.161  10.269  17.754  0.00  0.00    +0.000 N 
ATOM      9  C   UNL     1       2.164  11.690  18.069  0.00  0.00    +0.000 C 
ATOM     10  N   UNL     1       0.929   9.895  19.737  0.00  0.00    +0.000 NA
ATOM     11  C   UNL     1       0.566   9.115  20.749  0.00  0.00    +0.000 A 
ATOM     12  N   UNL     1      -0.287   9.621  21.717  0.00  0.00    +0.000 N 
ATOM     13  N   UNL     1       1.021   7.870  20.881  0.00  0.00    +0.000 NA
ATOM     14  C   UNL     1       1.831   7.373  19.906  0.00  0.00    +0.000 A 
ATOM     15  H   UNL     1       3.036   9.940  17.348  0.00  0.00    +0.000 HD
ENDROOT
BRANCH   1  17
ATOM     16  C   UNL     1       2.201   3.875  20.997  0.00  0.00    +0.000 C 
ATOM     17  N   UNL     1       2.025   5.306  21.105  0.00  0.00    +0.000 N 
ATOM     18  H   UNL     1       1.099   5.579  21.441  0.00  0.00    +0.000 HD
ENDBRANCH   1  17
BRANCH   4  19
ATOM     19  C   UNL     1       4.494   4.351  16.790  0.00  0.00    +0.000 C 
BRANCH  19  20
ATOM     20  C   UNL     1       5.377   4.016  15.576  0.00  0.00    +0.000 C 
BRANCH  20  21
ATOM     21  O   UNL     1       6.701   3.634  15.960  0.00  0.00    +0.000 OA
ATOM     22  H   UNL     1       6.736   2.664  15.867  0.00  0.00    +0.000 HD
ENDBRANCH  20  21
ENDBRANCH  19  20
ENDBRANCH   4  19
BRANCH   4  23
ATOM     23  C   UNL     1       5.264   6.711  16.353  0.00  0.00    +0.000 C 
BRANCH  23  24
ATOM     24  C   UNL     1       6.518   6.929  17.221  0.00  0.00    +0.000 C 
BRANCH  24  25
ATOM     25  O   UNL     1       7.714   6.876  16.445  0.00  0.00    +0.000 OA
ATOM     26  H   UNL     1       7.428   6.777  15.518  0.00  0.00    +0.000 HD
ENDBRANCH  24  25
ENDBRANCH  23  24
ENDBRANCH   4  23
BRANCH  12  27
ATOM     27  C   UNL     1      -1.027  10.859  21.401  0.00  0.00    +0.000 C 
BRANCH  27  28
ATOM     28  C   UNL     1      -1.138  11.793  22.618  0.00  0.00    +0.000 C 
BRANCH  28  29
ATOM     29  O   UNL     1      -2.467  11.812  23.140  0.00  0.00    +0.000 OA
ATOM     30  H   UNL     1      -2.383  11.523  24.069  0.00  0.00    +0.000 HD
ENDBRANCH  28  29
ENDBRANCH  27  28
ENDBRANCH  12  27
BRANCH  12  31
ATOM     31  C   UNL     1       0.214   9.476  23.098  0.00  0.00    +0.000 C 
BRANCH  31  32
ATOM     32  C   UNL     1       1.749   9.407  23.218  0.00  0.00    +0.000 C 
BRANCH  32  33
ATOM     33  O   UNL     1       2.177   9.337  24.576  0.00  0.00    +0.000 OA
ATOM     34  H   UNL     1       1.575   8.710  25.016  0.00  0.00    +0.000 HD
ENDBRANCH  32  33
ENDBRANCH  31  32
ENDBRANCH  12  31
TORSDOF 13
ENDMDL
MODEL 7
REMARK VINA RESULT:      -4.9      4.480      7.409
REMARK  Name = 
REMARK  15 active torsions:
REMARK  status: ('A' for Active; 'I' for Inactive)
REMARK    1  A    between atoms: C_1  and  N_2
REMARK    2  A    between atoms: N_2  and  C_3
REMARK    3  A    between atoms: N_6  and  C_7
REMARK    4  A    between atoms: N_6  and  C_10
REMARK    5  A    between atoms: C_7  and  C_8
REMARK    6  A    between atoms: C_8  and  O_9
REMARK    7  A    between atoms: C_10  and  C_11
REMARK    8  A    between atoms: C_11  and  O_12
REMARK    9  A    between atoms: N_16  and  C_17
REMARK   10  A    between atoms: N_20  and  C_21
REMARK   11  A    between atoms: N_20  and  C_24
REMARK   12  A    between atoms: C_21  and  C_22
REMARK   13  A    between atoms: C_22  and  O_23
REMARK   14  A    between atoms: C_24  and  C_25
REMARK   15  A    between atoms: C_25  and  O_26
REMARK                            x       y       z     vdW  Elec       q    Type
REMARK                         _______ _______ _______ _____ _____    ______ ____
ROOT
ATOM      1  C   UNL     1      -2.605  12.014  18.449  0.00  0.00    +0.000 A 
ATOM      2  N   UNL     1      -1.251  11.886  18.532  0.00  0.00    +0.000 NA
ATOM      3  C   UNL     1      -0.686  11.969  19.736  0.00  0.00    +0.000 A 
ATOM      4  N   UNL     1       0.673  11.790  19.878  0.00  0.00    +0.000 N 
ATOM      5  N   UNL     1      -1.405  12.192  20.850  0.00  0.00    +0.000 NA
ATOM      6  C   UNL     1      -2.746  12.387  20.734  0.00  0.00    +0.000 A 
ATOM      7  C   UNL     1      -3.596  12.659  21.819  0.00  0.00    +0.000 A 
ATOM      8  N   UNL     1      -3.035  12.771  23.112  0.00  0.00    +0.000 N 
ATOM      9  C   UNL     1      -3.932  12.466  24.217  0.00  0.00    +0.000 C 
ATOM     10  N   UNL     1      -4.922  12.893  21.694  0.00  0.00    +0.000 NA
ATOM     11  C   UNL     1      -5.481  12.786  20.494  0.00  0.00    +0.000 A 
ATOM     12  N   UNL     1      -6.846  12.991  20.366  0.00  0.00    +0.000 N 
ATOM     13  N   UNL     1      -4.777  12.457  19.412  0.00  0.00    +0.000 NA
ATOM     14  C   UNL     1      -3.432  12.292  19.544  0.00  0.00    +0.000 A 
ATOM     15  H   UNL     1      -2.159  12.251  23.144  0.00  0.00    +0.000 HD
ENDROOT
BRANCH   1  17
ATOM     16  C   UNL     1      -2.565  10.850  16.317  0.00  0.00    +0.000 C 
ATOM     17  N   UNL     1      -3.259  11.745  17.216  0.00  0.00    +0.000 N 
ATOM     18  H   UNL     1      -3.504  12.642  16.790  0.00  0.00    +0.000 HD
ENDBRANCH   1  17
BRANCH   4  19
ATOM     19  C   UNL     1       1.574  11.847  18.719  0.00  0.00    +0.000 C 
BRANCH  19  20
ATOM     20  C   UNL     1       1.944  10.451  18.188  0.00  0.00    +0.000 C 
BRANCH  20  21
ATOM     21  O   UNL     1       0.822   9.779  17.608  0.00  0.00    +0.000 OA
ATOM     22  H   UNL     1       1.018   8.827  17.672  0.00  0.00    +0.000 HD
ENDBRANCH  20  21
ENDBRANCH  19  20
ENDBRANCH   4  19
BRANCH   4  23
ATOM     23  C   UNL     1       1.163  11.154  21.108  0.00  0.00    +0.000 C 
BRANCH  23  24
ATOM     24  C   UNL     1       0.714   9.688  21.255  0.00  0.00    +0.000 C 
BRANCH  24  25
ATOM     25  O   UNL     1       1.155   9.122  22.488  0.00  0.00    +0.000 OA
ATOM     26  H   UNL     1       0.622   8.315  22.619  0.00  0.00    +0.000 HD
ENDBRANCH  24  25
ENDBRANCH  23  24
ENDBRANCH   4  23
BRANCH  12  27
ATOM     27  C   UNL     1      -7.547  13.658  21.481  0.00  0.00    +0.000 C 
BRANCH  27  28
ATOM     28  C   UNL     1      -7.820  15.143  21.187  0.00  0.00    +0.000 C 
BRANCH  28  29
ATOM     29  O   UNL     1      -7.748  15.419  19.788  0.00  0.00    +0.000 OA
ATOM     30  H   UNL     1      -8.305  16.209  19.653  0.00  0.00    +0.000 HD
ENDBRANCH  28  29
ENDBRANCH  27  28
ENDBRANCH  12  27
BRANCH  12  31
ATOM     31  C   UNL     1      -7.561  11.891  19.689  0.00  0.00    +0.000 C 
BRANCH  31  32
ATOM     32  C   UNL     1      -7.498  10.539  20.426  0.00  0.00    +0.000 C 
BRANCH  32  33
ATOM     33  O   UNL     1      -7.473   9.437  19.521  0.00  0.00    +0.000 OA
ATOM     34  H   UNL     1      -6.597   9.025  19.624  0.00  0.00    +0.000 HD
ENDBRANCH  32  33
ENDBRANCH  31  32
ENDBRANCH  12  31
TORSDOF 13
ENDMDL
MODEL 8
REMARK VINA RESULT:      -4.9      4.172      7.692
REMARK  Name = 
REMARK  15 active torsions:
REMARK  status: ('A' for Active; 'I' for Inactive)
REMARK    1  A    between atoms: C_1  and  N_2
REMARK    2  A    between atoms: N_2  and  C_3
REMARK    3  A    between atoms: N_6  and  C_7
REMARK    4  A    between atoms: N_6  and  C_10
REMARK    5  A    between atoms: C_7  and  C_8
REMARK    6  A    between atoms: C_8  and  O_9
REMARK    7  A    between atoms: C_10  and  C_11
REMARK    8  A    between atoms: C_11  and  O_12
REMARK    9  A    between atoms: N_16  and  C_17
REMARK   10  A    between atoms: N_20  and  C_21
REMARK   11  A    between atoms: N_20  and  C_24
REMARK   12  A    between atoms: C_21  and  C_22
REMARK   13  A    between atoms: C_22  and  O_23
REMARK   14  A    between atoms: C_24  and  C_25
REMARK   15  A    between atoms: C_25  and  O_26
REMARK                            x       y       z     vdW  Elec       q    Type
REMARK                         _______ _______ _______ _____ _____    ______ ____
ROOT
ATOM      1  C   UNL     1      -2.620  11.987  18.785  0.00  0.00    +0.000 A 
ATOM      2  N   UNL     1      -1.317  11.623  18.943  0.00  0.00    +0.000 NA
ATOM      3  C   UNL     1      -0.827  11.569  20.181  0.00  0.00    +0.000 A 
ATOM      4  N   UNL     1       0.469  11.153  20.397  0.00  0.00    +0.000 N 
ATOM      5  N   UNL     1      -1.570  11.879  21.259  0.00  0.00    +0.000 NA
ATOM      6  C   UNL     1      -2.847  12.307  21.071  0.00  0.00    +0.000 A 
ATOM      7  C   UNL     1      -3.707  12.689  22.114  0.00  0.00    +0.000 A 
ATOM      8  N   UNL     1      -3.222  12.661  23.442  0.00  0.00    +0.000 N 
ATOM      9  C   UNL     1      -4.230  12.482  24.477  0.00  0.00    +0.000 C 
ATOM     10  N   UNL     1      -4.962  13.153  21.920  0.00  0.00    +0.000 NA
ATOM     11  C   UNL     1      -5.450  13.183  20.685  0.00  0.00    +0.000 A 
ATOM     12  N   UNL     1      -6.748  13.626  20.485  0.00  0.00    +0.000 N 
ATOM     13  N   UNL     1      -4.743  12.771  19.634  0.00  0.00    +0.000 NA
ATOM     14  C   UNL     1      -3.458  12.370  19.839  0.00  0.00    +0.000 A 
ATOM     15  H   UNL     1      -2.452  11.995  23.504  0.00  0.00    +0.000 HD
ENDROOT
BRANCH   1  17
ATOM     16  C   UNL     1      -2.857  10.711  16.732  0.00  0.00    +0.000 C 
ATOM     17  N   UNL     1      -3.227  11.875  17.505  0.00  0.00    +0.000 N 
ATOM     18  H   UNL     1      -3.080  12.757  17.010  0.00  0.00    +0.000 HD
ENDBRANCH   1  17
BRANCH   4  19
ATOM     19  C   UNL     1       1.441  11.088  19.297  0.00  0.00    +0.000 C 
BRANCH  19  20
ATOM     20  C   UNL     1       1.552   9.680  18.687  0.00  0.00    +0.000 C 
BRANCH  20  21
ATOM     21  O   UNL     1       1.884   9.719  17.296  0.00  0.00    +0.000 OA
ATOM     22  H   UNL     1       1.089   9.412  16.824  0.00  0.00    +0.000 HD
ENDBRANCH  20  21
ENDBRANCH  19  20
ENDBRANCH   4  19
BRANCH   4  23
ATOM     23  C   UNL     1       0.760  10.403  21.626  0.00  0.00    +0.000 C 
BRANCH  23  24
ATOM     24  C   UNL     1      -0.153   9.177  21.822  0.00  0.00    +0.000 C 
BRANCH  24  25
ATOM     25  O   UNL     1      -0.843   9.227  23.069  0.00  0.00    +0.000 OA
ATOM     26  H   UNL     1      -0.816   8.320  23.427  0.00  0.00    +0.000 HD
ENDBRANCH  24  25
ENDBRANCH  23  24
ENDBRANCH   4  23
BRANCH  12  27
ATOM     27  C   UNL     1      -7.397  14.369  21.583  0.00  0.00    +0.000 C 
BRANCH  27  28
ATOM     28  C   UNL     1      -7.363  15.890  21.352  0.00  0.00    +0.000 C 
BRANCH  28  29
ATOM     29  O   UNL     1      -7.916  16.235  20.081  0.00  0.00    +0.000 OA
ATOM     30  H   UNL     1      -8.834  15.904  20.101  0.00  0.00    +0.000 HD
ENDBRANCH  28  29
ENDBRANCH  27  28
ENDBRANCH  12  27
BRANCH  12  31
ATOM     31  C   UNL     1      -7.595  12.688  19.720  0.00  0.00    +0.000 C 
BRANCH  31  32
ATOM     32  C   UNL     1      -7.764  13.048  18.232  0.00  0.00    +0.000 C 
BRANCH  32  33
ATOM     33  O   UNL     1      -7.001  12.192  17.384  0.00  0.00    +0.000 OA
ATOM     34  H   UNL     1      -6.981  12.625  16.512  0.00  0.00    +0.000 HD
ENDBRANCH  32  33
ENDBRANCH  31  32
ENDBRANCH  12  31
TORSDOF 13
ENDMDL
MODEL 9
REMARK VINA RESULT:      -4.9      5.547      7.870
REMARK  Name = 
REMARK  15 active torsions:
REMARK  status: ('A' for Active; 'I' for Inactive)
REMARK    1  A    between atoms: C_1  and  N_2
REMARK    2  A    between atoms: N_2  and  C_3
REMARK    3  A    between atoms: N_6  and  C_7
REMARK    4  A    between atoms: N_6  and  C_10
REMARK    5  A    between atoms: C_7  and  C_8
REMARK    6  A    between atoms: C_8  and  O_9
REMARK    7  A    between atoms: C_10  and  C_11
REMARK    8  A    between atoms: C_11  and  O_12
REMARK    9  A    between atoms: N_16  and  C_17
REMARK   10  A    between atoms: N_20  and  C_21
REMARK   11  A    between atoms: N_20  and  C_24
REMARK   12  A    between atoms: C_21  and  C_22
REMARK   13  A    between atoms: C_22  and  O_23
REMARK   14  A    between atoms: C_24  and  C_25
REMARK   15  A    between atoms: C_25  and  O_26
REMARK                            x       y       z     vdW  Elec       q    Type
REMARK                         _______ _______ _______ _____ _____    ______ ____
ROOT
ATOM      1  C   UNL     1      -2.038  13.557  21.007  0.00  0.00    +0.000 A 
ATOM      2  N   UNL     1      -0.685  13.702  20.951  0.00  0.00    +0.000 NA
ATOM      3  C   UNL     1      -0.041  13.194  19.901  0.00  0.00    +0.000 A 
ATOM      4  N   UNL     1       1.320  13.364  19.772  0.00  0.00    +0.000 N 
ATOM      5  N   UNL     1      -0.683  12.535  18.920  0.00  0.00    +0.000 NA
ATOM      6  C   UNL     1      -2.024  12.340  19.031  0.00  0.00    +0.000 A 
ATOM      7  C   UNL     1      -2.797  11.641  18.089  0.00  0.00    +0.000 A 
ATOM      8  N   UNL     1      -2.151  11.072  16.966  0.00  0.00    +0.000 N 
ATOM      9  C   UNL     1      -2.981  10.897  15.784  0.00  0.00    +0.000 C 
ATOM     10  N   UNL     1      -4.122  11.415  18.224  0.00  0.00    +0.000 NA
ATOM     11  C   UNL     1      -4.760  11.944  19.263  0.00  0.00    +0.000 A 
ATOM     12  N   UNL     1      -6.126  11.744  19.388  0.00  0.00    +0.000 N 
ATOM     13  N   UNL     1      -4.134  12.688  20.173  0.00  0.00    +0.000 NA
ATOM     14  C   UNL     1      -2.787  12.850  20.058  0.00  0.00    +0.000 A 
ATOM     15  H   UNL     1      -1.285  11.579  16.784  0.00  0.00    +0.000 HD
ENDROOT
BRANCH   1  17
ATOM     16  C   UNL     1      -2.743  15.687  21.936  0.00  0.00    +0.000 C 
ATOM     17  N   UNL     1      -2.775  14.244  22.009  0.00  0.00    +0.000 N 
ATOM     18  H   UNL     1      -2.488  13.874  22.917  0.00  0.00    +0.000 HD
ENDBRANCH   1  17
BRANCH   4  19
ATOM     19  C   UNL     1       2.145  13.790  20.911  0.00  0.00    +0.000 C 
BRANCH  19  20
ATOM     20  C   UNL     1       2.891  15.108  20.641  0.00  0.00    +0.000 C 
BRANCH  20  21
ATOM     21  O   UNL     1       2.031  16.246  20.745  0.00  0.00    +0.000 OA
ATOM     22  H   UNL     1       1.435  16.063  21.493  0.00  0.00    +0.000 HD
ENDBRANCH  20  21
ENDBRANCH  19  20
ENDBRANCH   4  19
BRANCH   4  23
ATOM     23  C   UNL     1       1.875  13.508  18.420  0.00  0.00    +0.000 C 
BRANCH  23  24
ATOM     24  C   UNL     1       2.725  12.301  17.978  0.00  0.00    +0.000 C 
BRANCH  24  25
ATOM     25  O   UNL     1       1.936  11.119  17.849  0.00  0.00    +0.000 OA
ATOM     26  H   UNL     1       2.362  10.449  18.416  0.00  0.00    +0.000 HD
ENDBRANCH  24  25
ENDBRANCH  23  24
ENDBRANCH   4  23
BRANCH  12  27
ATOM     27  C   UNL     1      -6.740  10.675  18.576  0.00  0.00    +0.000 C 
BRANCH  27  28
ATOM     28  C   UNL     1      -6.994   9.398  19.396  0.00  0.00    +0.000 C 
BRANCH  28  29
ATOM     29  O   UNL     1      -7.283   9.706  20.760  0.00  0.00    +0.000 OA
ATOM     30  H   UNL     1      -8.148  10.157  20.745  0.00  0.00    +0.000 HD
ENDBRANCH  28  29
ENDBRANCH  27  28
ENDBRANCH  12  27
BRANCH  12  31
ATOM     31  C   UNL     1      -6.905  12.986  19.557  0.00  0.00    +0.000 C 
BRANCH  31  32
ATOM     32  C   UNL     1      -6.813  13.965  18.370  0.00  0.00    +0.000 C 
BRANCH  32  33
ATOM     33  O   UNL     1      -5.924  15.048  18.638  0.00  0.00    +0.000 OA
ATOM     34  H   UNL     1      -5.044  14.649  18.761  0.00  0.00    +0.000 HD
ENDBRANCH  32  33
ENDBRANCH  31  32
ENDBRANCH  12  31
TORSDOF 13
ENDMDL
