MODEL 1
REMARK VINA RESULT:      -6.3      0.000      0.000
REMARK  Name = 
REMARK  7 active torsions:
REMARK  status: ('A' for Active; 'I' for Inactive)
REMARK    1  A    between atoms: C_1  and  C_2
REMARK    2  A    between atoms: C_2  and  N_3
REMARK    3  A    between atoms: N_3  and  C_4
REMARK    4  A    between atoms: C_4  and  C_5
REMARK    5  A    between atoms: C_7  and  C_9
REMARK    6  A    between atoms: C_11  and  C_12
REMARK    7  A    between atoms: C_20  and  C_21
REMARK                            x       y       z     vdW  Elec       q    Type
REMARK                         _______ _______ _______ _____ _____    ______ ____
ROOT
ATOM      1  C   UNL     1       5.767   6.278  16.124  0.00  0.00    +0.000 C 
ATOM      2  C   UNL     1       4.401   6.651  16.683  0.00  0.00    +0.000 C 
ATOM      3  C   UNL     1       3.722   5.327  17.072  0.00  0.00    +0.000 C 
ATOM      4  C   UNL     1       4.488   4.288  16.235  0.00  0.00    +0.000 C 
ATOM      5  C   UNL     1       5.238   3.188  16.980  0.00  0.00    +0.000 C 
ATOM      6  N   UNL     1       5.379   5.076  15.343  0.00  0.00    +0.000 NA
ATOM      7  H   UNL     1       6.239   4.552  15.145  0.00  0.00    +0.000 HD
ENDROOT
BRANCH   3   8
ATOM      8  C   UNL     1       3.668   5.242  18.609  0.00  0.00    +0.000 C 
ATOM      9  O   UNL     1       4.580   5.705  19.298  0.00  0.00    +0.000 OA
ATOM     10  N   UNL     1       2.490   4.789  19.192  0.00  0.00    +0.000 N 
ATOM     11  C   UNL     1       2.173   5.165  20.575  0.00  0.00    +0.000 C 
ATOM     12  C   UNL     1       2.235   3.965  21.513  0.00  0.00    +0.000 C 
ATOM     13  C   UNL     1       1.350   2.835  20.988  0.00  0.00    +0.000 C 
ATOM     14  C   UNL     1       1.726   2.487  19.545  0.00  0.00    +0.000 C 
ATOM     15  C   UNL     1       1.666   3.720  18.637  0.00  0.00    +0.000 C 
ENDBRANCH   3   8
BRANCH   1  17
ATOM     16  N   UNL     1       7.469   6.809  17.939  0.00  0.00    +0.000 N 
ATOM     17  C   UNL     1       6.956   5.879  17.066  0.00  0.00    +0.000 C 
ATOM     18  O   UNL     1       7.477   4.750  16.972  0.00  0.00    +0.000 OA
BRANCH  16  20
ATOM     19  C   UNL     1       7.792   5.450  20.097  0.00  0.00    +0.000 C 
ATOM     20  C   UNL     1       8.391   6.335  19.003  0.00  0.00    +0.000 C 
ENDBRANCH  16  20
BRANCH  16  21
ATOM     21  C   UNL     1       7.390   8.216  17.565  0.00  0.00    +0.000 C 
BRANCH  21  22
ATOM     22  C   UNL     1       8.349   9.128  18.312  0.00  0.00    +0.000 C 
ATOM     23  N   UNL     1       9.145   9.885  18.931  0.00  0.00    +0.000 NA
ENDBRANCH  21  22
ENDBRANCH  16  21
ENDBRANCH   1  17
TORSDOF 5
ENDMDL
MODEL 2
REMARK VINA RESULT:      -5.6      2.313      4.089
REMARK  Name = 
REMARK  7 active torsions:
REMARK  status: ('A' for Active; 'I' for Inactive)
REMARK    1  A    between atoms: C_1  and  C_2
REMARK    2  A    between atoms: C_2  and  N_3
REMARK    3  A    between atoms: N_3  and  C_4
REMARK    4  A    between atoms: C_4  and  C_5
REMARK    5  A    between atoms: C_7  and  C_9
REMARK    6  A    between atoms: C_11  and  C_12
REMARK    7  A    between atoms: C_20  and  C_21
REMARK                            x       y       z     vdW  Elec       q    Type
REMARK                         _______ _______ _______ _____ _____    ______ ____
ROOT
ATOM      1  C   UNL     1       6.666   5.872  16.603  0.00  0.00    +0.000 C 
ATOM      2  C   UNL     1       6.687   4.802  17.686  0.00  0.00    +0.000 C 
ATOM      3  C   UNL     1       5.427   5.031  18.537  0.00  0.00    +0.000 C 
ATOM      4  C   UNL     1       5.068   6.496  18.236  0.00  0.00    +0.000 C 
ATOM      5  C   UNL     1       3.709   6.780  17.601  0.00  0.00    +0.000 C 
ATOM      6  N   UNL     1       6.194   7.019  17.418  0.00  0.00    +0.000 NA
ATOM      7  H   UNL     1       5.858   7.738  16.767  0.00  0.00    +0.000 HD
ENDROOT
BRANCH   3   8
ATOM      8  C   UNL     1       4.436   3.884  18.257  0.00  0.00    +0.000 C 
ATOM      9  O   UNL     1       4.486   3.254  17.197  0.00  0.00    +0.000 OA
ATOM     10  N   UNL     1       3.609   3.474  19.296  0.00  0.00    +0.000 N 
ATOM     11  C   UNL     1       3.052   2.116  19.286  0.00  0.00    +0.000 C 
ATOM     12  C   UNL     1       1.543   2.129  19.069  0.00  0.00    +0.000 C 
ATOM     13  C   UNL     1       0.867   3.041  20.092  0.00  0.00    +0.000 C 
ATOM     14  C   UNL     1       1.489   4.439  20.056  0.00  0.00    +0.000 C 
ATOM     15  C   UNL     1       3.006   4.383  20.264  0.00  0.00    +0.000 C 
ENDBRANCH   3   8
BRANCH   1  17
ATOM     16  N   UNL     1       5.952   4.753  14.433  0.00  0.00    +0.000 N 
ATOM     17  C   UNL     1       5.729   5.751  15.351  0.00  0.00    +0.000 C 
ATOM     18  O   UNL     1       4.835   6.598  15.155  0.00  0.00    +0.000 OA
BRANCH  16  20
ATOM     19  C   UNL     1       5.227   3.465  12.330  0.00  0.00    +0.000 C 
ATOM     20  C   UNL     1       4.898   4.487  13.419  0.00  0.00    +0.000 C 
ENDBRANCH  16  20
BRANCH  16  21
ATOM     21  C   UNL     1       7.318   4.272  14.261  0.00  0.00    +0.000 C 
BRANCH  21  22
ATOM     22  C   UNL     1       8.240   5.224  13.518  0.00  0.00    +0.000 C 
ATOM     23  N   UNL     1       9.005   6.015  12.902  0.00  0.00    +0.000 NA
ENDBRANCH  21  22
ENDBRANCH  16  21
ENDBRANCH   1  17
TORSDOF 5
ENDMDL
MODEL 3
REMARK VINA RESULT:      -5.4      8.628     10.108
REMARK  Name = 
REMARK  7 active torsions:
REMARK  status: ('A' for Active; 'I' for Inactive)
REMARK    1  A    between atoms: C_1  and  C_2
REMARK    2  A    between atoms: C_2  and  N_3
REMARK    3  A    between atoms: N_3  and  C_4
REMARK    4  A    between atoms: C_4  and  C_5
REMARK    5  A    between atoms: C_7  and  C_9
REMARK    6  A    between atoms: C_11  and  C_12
REMARK    7  A    between atoms: C_20  and  C_21
REMARK                            x       y       z     vdW  Elec       q    Type
REMARK                         _______ _______ _______ _____ _____    ______ ____
ROOT
ATOM      1  C   UNL     1       9.922  12.709  17.668  0.00  0.00    +0.000 C 
ATOM      2  C   UNL     1       8.914  12.450  18.780  0.00  0.00    +0.000 C 
ATOM      3  C   UNL     1       9.723  11.923  19.977  0.00  0.00    +0.000 C 
ATOM      4  C   UNL     1      11.016  11.412  19.321  0.00  0.00    +0.000 C 
ATOM      5  C   UNL     1      12.333  12.054  19.747  0.00  0.00    +0.000 C 
ATOM      6  N   UNL     1      10.785  11.515  17.855  0.00  0.00    +0.000 NA
ATOM      7  H   UNL     1      11.670  11.700  17.367  0.00  0.00    +0.000 HD
ENDROOT
BRANCH   3   8
ATOM      8  C   UNL     1       9.748  13.014  21.064  0.00  0.00    +0.000 C 
ATOM      9  O   UNL     1      10.614  13.892  21.055  0.00  0.00    +0.000 OA
ATOM     10  N   UNL     1       8.673  13.077  21.944  0.00  0.00    +0.000 N 
ATOM     11  C   UNL     1       8.366  14.341  22.625  0.00  0.00    +0.000 C 
ATOM     12  C   UNL     1       8.640  14.254  24.123  0.00  0.00    +0.000 C 
ATOM     13  C   UNL     1       7.904  13.059  24.728  0.00  0.00    +0.000 C 
ATOM     14  C   UNL     1       8.262  11.774  23.979  0.00  0.00    +0.000 C 
ATOM     15  C   UNL     1       7.987  11.905  22.476  0.00  0.00    +0.000 C 
ENDBRANCH   3   8
BRANCH   1  17
ATOM     16  N   UNL     1      10.338  15.178  18.117  0.00  0.00    +0.000 N 
ATOM     17  C   UNL     1      10.844  13.978  17.678  0.00  0.00    +0.000 C 
ATOM     18  O   UNL     1      12.004  13.912  17.223  0.00  0.00    +0.000 OA
BRANCH  16  20
ATOM     19  C   UNL     1      12.203  16.141  19.601  0.00  0.00    +0.000 C 
ATOM     20  C   UNL     1      11.294  16.285  18.380  0.00  0.00    +0.000 C 
ENDBRANCH  16  20
BRANCH  16  21
ATOM     21  C   UNL     1       8.910  15.422  17.950  0.00  0.00    +0.000 C 
BRANCH  21  22
ATOM     22  C   UNL     1       8.468  16.844  18.250  0.00  0.00    +0.000 C 
ATOM     23  N   UNL     1       8.101  18.025  18.499  0.00  0.00    +0.000 NA
ENDBRANCH  21  22
ENDBRANCH  16  21
ENDBRANCH   1  17
TORSDOF 5
ENDMDL
MODEL 4
REMARK VINA RESULT:      -5.3      2.564      6.319
REMARK  Name = 
REMARK  7 active torsions:
REMARK  status: ('A' for Active; 'I' for Inactive)
REMARK    1  A    between atoms: C_1  and  C_2
REMARK    2  A    between atoms: C_2  and  N_3
REMARK    3  A    between atoms: N_3  and  C_4
REMARK    4  A    between atoms: C_4  and  C_5
REMARK    5  A    between atoms: C_7  and  C_9
REMARK    6  A    between atoms: C_11  and  C_12
REMARK    7  A    between atoms: C_20  and  C_21
REMARK                            x       y       z     vdW  Elec       q    Type
REMARK                         _______ _______ _______ _____ _____    ______ ____
ROOT
ATOM      1  C   UNL     1       5.139   6.138  18.140  0.00  0.00    +0.000 C 
ATOM      2  C   UNL     1       4.786   6.400  16.682  0.00  0.00    +0.000 C 
ATOM      3  C   UNL     1       5.979   5.896  15.855  0.00  0.00    +0.000 C 
ATOM      4  C   UNL     1       7.128   5.883  16.878  0.00  0.00    +0.000 C 
ATOM      5  C   UNL     1       7.804   4.547  17.173  0.00  0.00    +0.000 C 
ATOM      6  N   UNL     1       6.574   6.519  18.102  0.00  0.00    +0.000 NA
ATOM      7  H   UNL     1       7.016   6.123  18.941  0.00  0.00    +0.000 HD
ENDROOT
BRANCH   3   8
ATOM      8  C   UNL     1       5.549   4.617  15.110  0.00  0.00    +0.000 C 
ATOM      9  O   UNL     1       4.925   3.728  15.695  0.00  0.00    +0.000 OA
ATOM     10  N   UNL     1       5.733   4.576  13.733  0.00  0.00    +0.000 N 
ATOM     11  C   UNL     1       4.906   3.678  12.917  0.00  0.00    +0.000 C 
ATOM     12  C   UNL     1       5.731   2.542  12.322  0.00  0.00    +0.000 C 
ATOM     13  C   UNL     1       6.931   3.100  11.559  0.00  0.00    +0.000 C 
ATOM     14  C   UNL     1       7.752   4.028  12.458  0.00  0.00    +0.000 C 
ATOM     15  C   UNL     1       6.887   5.147  13.048  0.00  0.00    +0.000 C 
ENDBRANCH   3   8
BRANCH   1  17
ATOM     16  N   UNL     1       3.858   4.003  18.658  0.00  0.00    +0.000 N 
ATOM     17  C   UNL     1       5.037   4.702  18.761  0.00  0.00    +0.000 C 
ATOM     18  O   UNL     1       5.995   4.229  19.405  0.00  0.00    +0.000 OA
BRANCH  16  20
ATOM     19  C   UNL     1       3.295   1.593  17.961  0.00  0.00    +0.000 C 
ATOM     20  C   UNL     1       3.870   2.557  19.000  0.00  0.00    +0.000 C 
ENDBRANCH  16  20
BRANCH  16  21
ATOM     21  C   UNL     1       2.615   4.762  18.587  0.00  0.00    +0.000 C 
BRANCH  21  22
ATOM     22  C   UNL     1       1.555   4.346  19.594  0.00  0.00    +0.000 C 
ATOM     23  N   UNL     1       0.675   4.001  20.428  0.00  0.00    +0.000 NA
ENDBRANCH  21  22
ENDBRANCH  16  21
ENDBRANCH   1  17
TORSDOF 5
ENDMDL
MODEL 5
REMARK VINA RESULT:      -5.2      2.246      3.801
REMARK  Name = 
REMARK  7 active torsions:
REMARK  status: ('A' for Active; 'I' for Inactive)
REMARK    1  A    between atoms: C_1  and  C_2
REMARK    2  A    between atoms: C_2  and  N_3
REMARK    3  A    between atoms: N_3  and  C_4
REMARK    4  A    between atoms: C_4  and  C_5
REMARK    5  A    between atoms: C_7  and  C_9
REMARK    6  A    between atoms: C_11  and  C_12
REMARK    7  A    between atoms: C_20  and  C_21
REMARK                            x       y       z     vdW  Elec       q    Type
REMARK                         _______ _______ _______ _____ _____    ______ ____
ROOT
ATOM      1  C   UNL     1       4.099   3.196  17.510  0.00  0.00    +0.000 C 
ATOM      2  C   UNL     1       2.724   3.821  17.316  0.00  0.00    +0.000 C 
ATOM      3  C   UNL     1       1.863   3.332  18.492  0.00  0.00    +0.000 C 
ATOM      4  C   UNL     1       2.605   2.070  18.963  0.00  0.00    +0.000 C 
ATOM      5  C   UNL     1       3.134   2.048  20.394  0.00  0.00    +0.000 C 
ATOM      6  N   UNL     1       3.679   1.844  17.960  0.00  0.00    +0.000 NA
ATOM      7  H   UNL     1       4.494   1.404  18.402  0.00  0.00    +0.000 HD
ENDROOT
BRANCH   3   8
ATOM      8  C   UNL     1       1.613   4.521  19.440  0.00  0.00    +0.000 C 
ATOM      9  O   UNL     1       0.924   4.384  20.453  0.00  0.00    +0.000 OA
ATOM     10  N   UNL     1       2.324   5.693  19.210  0.00  0.00    +0.000 N 
ATOM     11  C   UNL     1       2.545   6.635  20.314  0.00  0.00    +0.000 C 
ATOM     12  C   UNL     1       1.771   7.933  20.108  0.00  0.00    +0.000 C 
ATOM     13  C   UNL     1       2.096   8.534  18.741  0.00  0.00    +0.000 C 
ATOM     14  C   UNL     1       1.848   7.507  17.633  0.00  0.00    +0.000 C 
ATOM     15  C   UNL     1       2.631   6.213  17.882  0.00  0.00    +0.000 C 
ENDBRANCH   3   8
BRANCH   1  17
ATOM     16  N   UNL     1       5.992   4.752  18.195  0.00  0.00    +0.000 N 
ATOM     17  C   UNL     1       5.114   3.761  18.564  0.00  0.00    +0.000 C 
ATOM     18  O   UNL     1       5.171   3.264  19.707  0.00  0.00    +0.000 OA
BRANCH  16  20
ATOM     19  C   UNL     1       7.878   6.381  18.824  0.00  0.00    +0.000 C 
ATOM     20  C   UNL     1       6.740   5.459  19.266  0.00  0.00    +0.000 C 
ENDBRANCH  16  20
BRANCH  16  21
ATOM     21  C   UNL     1       6.417   4.806  16.801  0.00  0.00    +0.000 C 
BRANCH  21  22
ATOM     22  C   UNL     1       5.755   5.896  15.974  0.00  0.00    +0.000 C 
ATOM     23  N   UNL     1       5.207   6.801  15.288  0.00  0.00    +0.000 NA
ENDBRANCH  21  22
ENDBRANCH  16  21
ENDBRANCH   1  17
TORSDOF 5
ENDMDL
MODEL 6
REMARK VINA RESULT:      -5.1      8.167     10.791
REMARK  Name = 
REMARK  7 active torsions:
REMARK  status: ('A' for Active; 'I' for Inactive)
REMARK    1  A    between atoms: C_1  and  C_2
REMARK    2  A    between atoms: C_2  and  N_3
REMARK    3  A    between atoms: N_3  and  C_4
REMARK    4  A    between atoms: C_4  and  C_5
REMARK    5  A    between atoms: C_7  and  C_9
REMARK    6  A    between atoms: C_11  and  C_12
REMARK    7  A    between atoms: C_20  and  C_21
REMARK                            x       y       z     vdW  Elec       q    Type
REMARK                         _______ _______ _______ _____ _____    ______ ____
ROOT
ATOM      1  C   UNL     1      -0.827  11.731  18.853  0.00  0.00    +0.000 C 
ATOM      2  C   UNL     1       0.688  11.575  18.883  0.00  0.00    +0.000 C 
ATOM      3  C   UNL     1       1.265  12.999  18.840  0.00  0.00    +0.000 C 
ATOM      4  C   UNL     1       0.106  13.824  18.255  0.00  0.00    +0.000 C 
ATOM      5  C   UNL     1      -0.468  14.951  19.110  0.00  0.00    +0.000 C 
ATOM      6  N   UNL     1      -0.928  12.831  17.861  0.00  0.00    +0.000 NA
ATOM      7  H   UNL     1      -1.866  13.238  17.952  0.00  0.00    +0.000 HD
ENDROOT
BRANCH   3   8
ATOM      8  C   UNL     1       1.867  13.322  20.221  0.00  0.00    +0.000 C 
ATOM      9  O   UNL     1       1.514  12.695  21.224  0.00  0.00    +0.000 OA
ATOM     10  N   UNL     1       2.934  14.212  20.272  0.00  0.00    +0.000 N 
ATOM     11  C   UNL     1       3.865  14.164  21.406  0.00  0.00    +0.000 C 
ATOM     12  C   UNL     1       3.743  15.404  22.285  0.00  0.00    +0.000 C 
ATOM     13  C   UNL     1       3.898  16.670  21.442  0.00  0.00    +0.000 C 
ATOM     14  C   UNL     1       2.904  16.662  20.278  0.00  0.00    +0.000 C 
ATOM     15  C   UNL     1       3.047  15.395  19.427  0.00  0.00    +0.000 C 
ENDBRANCH   3   8
BRANCH   1  17
ATOM     16  N   UNL     1      -1.305  11.611  21.349  0.00  0.00    +0.000 N 
ATOM     17  C   UNL     1      -1.631  12.157  20.131  0.00  0.00    +0.000 C 
ATOM     18  O   UNL     1      -2.604  12.930  20.028  0.00  0.00    +0.000 OA
BRANCH  16  20
ATOM     19  C   UNL     1      -1.162  13.455  23.134  0.00  0.00    +0.000 C 
ATOM     20  C   UNL     1      -1.883  12.230  22.570  0.00  0.00    +0.000 C 
ENDBRANCH  16  20
BRANCH  16  21
ATOM     21  C   UNL     1      -0.733  10.269  21.368  0.00  0.00    +0.000 C 
BRANCH  21  22
ATOM     22  C   UNL     1      -0.083   9.872  22.682  0.00  0.00    +0.000 C 
ATOM     23  N   UNL     1       0.456   9.541  23.773  0.00  0.00    +0.000 NA
ENDBRANCH  21  22
ENDBRANCH  16  21
ENDBRANCH   1  17
TORSDOF 5
ENDMDL
MODEL 7
REMARK VINA RESULT:      -5.1      2.168      3.989
REMARK  Name = 
REMARK  7 active torsions:
REMARK  status: ('A' for Active; 'I' for Inactive)
REMARK    1  A    between atoms: C_1  and  C_2
REMARK    2  A    between atoms: C_2  and  N_3
REMARK    3  A    between atoms: N_3  and  C_4
REMARK    4  A    between atoms: C_4  and  C_5
REMARK    5  A    between atoms: C_7  and  C_9
REMARK    6  A    between atoms: C_11  and  C_12
REMARK    7  A    between atoms: C_20  and  C_21
REMARK                            x       y       z     vdW  Elec       q    Type
REMARK                         _______ _______ _______ _____ _____    ______ ____
ROOT
ATOM      1  C   UNL     1       6.452   4.073  17.244  0.00  0.00    +0.000 C 
ATOM      2  C   UNL     1       5.816   3.917  18.618  0.00  0.00    +0.000 C 
ATOM      3  C   UNL     1       5.258   5.300  18.991  0.00  0.00    +0.000 C 
ATOM      4  C   UNL     1       6.060   6.252  18.087  0.00  0.00    +0.000 C 
ATOM      5  C   UNL     1       5.287   7.104  17.085  0.00  0.00    +0.000 C 
ATOM      6  N   UNL     1       7.089   5.401  17.432  0.00  0.00    +0.000 NA
ATOM      7  H   UNL     1       7.312   5.767  16.499  0.00  0.00    +0.000 HD
ENDROOT
BRANCH   3   8
ATOM      8  C   UNL     1       3.719   5.237  18.928  0.00  0.00    +0.000 C 
ATOM      9  O   UNL     1       3.069   6.171  18.454  0.00  0.00    +0.000 OA
ATOM     10  N   UNL     1       3.107   4.033  19.259  0.00  0.00    +0.000 N 
ATOM     11  C   UNL     1       1.767   3.734  18.737  0.00  0.00    +0.000 C 
ATOM     12  C   UNL     1       0.721   3.726  19.846  0.00  0.00    +0.000 C 
ATOM     13  C   UNL     1       1.145   2.781  20.969  0.00  0.00    +0.000 C 
ATOM     14  C   UNL     1       2.546   3.141  21.471  0.00  0.00    +0.000 C 
ATOM     15  C   UNL     1       3.566   3.152  20.327  0.00  0.00    +0.000 C 
ENDBRANCH   3   8
BRANCH   1  17
ATOM     16  N   UNL     1       6.197   4.293  14.722  0.00  0.00    +0.000 N 
ATOM     17  C   UNL     1       5.581   4.136  15.941  0.00  0.00    +0.000 C 
ATOM     18  O   UNL     1       4.336   4.115  16.019  0.00  0.00    +0.000 OA
BRANCH  16  20
ATOM     19  C   UNL     1       5.942   3.078  12.471  0.00  0.00    +0.000 C 
ATOM     20  C   UNL     1       5.388   4.070  13.495  0.00  0.00    +0.000 C 
ENDBRANCH  16  20
BRANCH  16  21
ATOM     21  C   UNL     1       7.464   5.014  14.683  0.00  0.00    +0.000 C 
BRANCH  21  22
ATOM     22  C   UNL     1       7.839   5.569  13.319  0.00  0.00    +0.000 C 
ATOM     23  N   UNL     1       8.150   6.028  12.186  0.00  0.00    +0.000 NA
ENDBRANCH  21  22
ENDBRANCH  16  21
ENDBRANCH   1  17
TORSDOF 5
ENDMDL
MODEL 8
REMARK VINA RESULT:      -5.0      2.813      5.907
REMARK  Name = 
REMARK  7 active torsions:
REMARK  status: ('A' for Active; 'I' for Inactive)
REMARK    1  A    between atoms: C_1  and  C_2
REMARK    2  A    between atoms: C_2  and  N_3
REMARK    3  A    between atoms: N_3  and  C_4
REMARK    4  A    between atoms: C_4  and  C_5
REMARK    5  A    between atoms: C_7  and  C_9
REMARK    6  A    between atoms: C_11  and  C_12
REMARK    7  A    between atoms: C_20  and  C_21
REMARK                            x       y       z     vdW  Elec       q    Type
REMARK                         _______ _______ _______ _____ _____    ______ ____
ROOT
ATOM      1  C   UNL     1       3.465   6.089  20.024  0.00  0.00    +0.000 C 
ATOM      2  C   UNL     1       4.607   5.209  19.532  0.00  0.00    +0.000 C 
ATOM      3  C   UNL     1       3.956   3.922  19.002  0.00  0.00    +0.000 C 
ATOM      4  C   UNL     1       2.586   3.914  19.701  0.00  0.00    +0.000 C 
ATOM      5  C   UNL     1       1.338   3.946  18.823  0.00  0.00    +0.000 C 
ATOM      6  N   UNL     1       2.627   5.045  20.665  0.00  0.00    +0.000 NA
ATOM      7  H   UNL     1       1.688   5.442  20.790  0.00  0.00    +0.000 HD
ENDROOT
BRANCH   3   8
ATOM      8  C   UNL     1       4.077   3.912  17.466  0.00  0.00    +0.000 C 
ATOM      9  O   UNL     1       3.254   3.307  16.773  0.00  0.00    +0.000 OA
ATOM     10  N   UNL     1       5.029   4.742  16.886  0.00  0.00    +0.000 N 
ATOM     11  C   UNL     1       4.859   5.180  15.495  0.00  0.00    +0.000 C 
ATOM     12  C   UNL     1       5.908   4.561  14.578  0.00  0.00    +0.000 C 
ATOM     13  C   UNL     1       7.312   4.832  15.118  0.00  0.00    +0.000 C 
ATOM     14  C   UNL     1       7.428   4.356  16.568  0.00  0.00    +0.000 C 
ATOM     15  C   UNL     1       6.350   4.988  17.455  0.00  0.00    +0.000 C 
ENDBRANCH   3   8
BRANCH   1  17
ATOM     16  N   UNL     1       1.848   7.975  19.478  0.00  0.00    +0.000 N 
ATOM     17  C   UNL     1       2.560   6.890  19.025  0.00  0.00    +0.000 C 
ATOM     18  O   UNL     1       2.432   6.501  17.847  0.00  0.00    +0.000 OA
BRANCH  16  20
ATOM     19  C   UNL     1       2.090  10.022  17.942  0.00  0.00    +0.000 C 
ATOM     20  C   UNL     1       1.228   8.875  18.472  0.00  0.00    +0.000 C 
ENDBRANCH  16  20
BRANCH  16  21
ATOM     21  C   UNL     1       1.428   7.984  20.875  0.00  0.00    +0.000 C 
BRANCH  21  22
ATOM     22  C   UNL     1       1.087   9.358  21.429  0.00  0.00    +0.000 C 
ATOM     23  N   UNL     1       0.802  10.498  21.887  0.00  0.00    +0.000 NA
ENDBRANCH  21  22
ENDBRANCH  16  21
ENDBRANCH   1  17
TORSDOF 5
ENDMDL
MODEL 9
REMARK VINA RESULT:      -5.0      7.856     10.536
REMARK  Name = 
REMARK  7 active torsions:
REMARK  status: ('A' for Active; 'I' for Inactive)
REMARK    1  A    between atoms: C_1  and  C_2
REMARK    2  A    between atoms: C_2  and  N_3
REMARK    3  A    between atoms: N_3  and  C_4
REMARK    4  A    between atoms: C_4  and  C_5
REMARK    5  A    between atoms: C_7  and  C_9
REMARK    6  A    between atoms: C_11  and  C_12
REMARK    7  A    between atoms: C_20  and  C_21
REMARK                            x       y       z     vdW  Elec       q    Type
REMARK                         _______ _______ _______ _____ _____    ______ ____
ROOT
ATOM      1  C   UNL     1      -1.508  12.552  19.257  0.00  0.00    +0.000 C 
ATOM      2  C   UNL     1      -0.674  13.154  18.134  0.00  0.00    +0.000 C 
ATOM      3  C   UNL     1       0.040  14.373  18.738  0.00  0.00    +0.000 C 
ATOM      4  C   UNL     1      -0.822  14.705  19.968  0.00  0.00    +0.000 C 
ATOM      5  C   UNL     1      -0.157  14.649  21.340  0.00  0.00    +0.000 C 
ATOM      6  N   UNL     1      -2.004  13.807  19.876  0.00  0.00    +0.000 NA
ATOM      7  H   UNL     1      -2.345  13.569  20.814  0.00  0.00    +0.000 HD
ENDROOT
BRANCH   3   8
ATOM      8  C   UNL     1       1.539  14.043  18.871  0.00  0.00    +0.000 C 
ATOM      9  O   UNL     1       1.913  12.884  19.066  0.00  0.00    +0.000 OA
ATOM     10  N   UNL     1       2.453  15.053  18.593  0.00  0.00    +0.000 N 
ATOM     11  C   UNL     1       3.820  14.703  18.188  0.00  0.00    +0.000 C 
ATOM     12  C   UNL     1       4.838  15.085  19.258  0.00  0.00    +0.000 C 
ATOM     13  C   UNL     1       4.688  16.559  19.631  0.00  0.00    +0.000 C 
ATOM     14  C   UNL     1       3.245  16.864  20.041  0.00  0.00    +0.000 C 
ATOM     15  C   UNL     1       2.252  16.453  18.948  0.00  0.00    +0.000 C 
ENDBRANCH   3   8
BRANCH   1  17
ATOM     16  N   UNL     1       0.016  10.674  20.045  0.00  0.00    +0.000 N 
ATOM     17  C   UNL     1      -0.854  11.682  20.386  0.00  0.00    +0.000 C 
ATOM     18  O   UNL     1      -1.178  11.858  21.578  0.00  0.00    +0.000 OA
BRANCH  16  20
ATOM     19  C   UNL     1       0.379   8.686  21.634  0.00  0.00    +0.000 C 
ATOM     20  C   UNL     1       0.828  10.056  21.126  0.00  0.00    +0.000 C 
ENDBRANCH  16  20
BRANCH  16  21
ATOM     21  C   UNL     1      -0.165  10.020  18.754  0.00  0.00    +0.000 C 
BRANCH  21  22
ATOM     22  C   UNL     1       1.121   9.562  18.087  0.00  0.00    +0.000 C 
ATOM     23  N   UNL     1       2.188   9.181  17.532  0.00  0.00    +0.000 NA
ENDBRANCH  21  22
ENDBRANCH  16  21
ENDBRANCH   1  17
TORSDOF 5
ENDMDL
