MODEL 1
REMARK VINA RESULT:      -8.6      0.000      0.000
REMARK  Name = 
REMARK  12 active torsions:
REMARK  status: ('A' for Active; 'I' for Inactive)
REMARK    1  A    between atoms: C_1  and  C_2
REMARK    2  A    between atoms: C_2  and  C_3
REMARK    3  A    between atoms: C_2  and  C_4
REMARK    4  A    between atoms: C_4  and  C_5
REMARK    5  A    between atoms: C_5  and  N_6
REMARK    6  A    between atoms: C_5  and  C_7
REMARK    7  A    between atoms: N_9  and  S_10
REMARK    8  A    between atoms: S_10  and  C_13
REMARK    9  A    between atoms: C_17  and  N_18
REMARK   10  A    between atoms: N_18  and  C_19
REMARK   11  A    between atoms: C_19  and  N_21
REMARK   12  A    between atoms: C_22  and  C_24
REMARK                            x       y       z     vdW  Elec       q    Type
REMARK                         _______ _______ _______ _____ _____    ______ ____
ROOT
ATOM      1  C   UNL     1       2.976   3.363  19.792  0.00  0.00    +0.000 A 
ATOM      2  C   UNL     1       1.696   2.842  19.973  0.00  0.00    +0.000 A 
ATOM      3  C   UNL     1       0.656   3.703  20.333  0.00  0.00    +0.000 A 
ATOM      4  C   UNL     1       0.898   5.074  20.479  0.00  0.00    +0.000 A 
ATOM      5  C   UNL     1       2.179   5.594  20.257  0.00  0.00    +0.000 A 
ATOM      6  C   UNL     1       3.226   4.722  19.982  0.00  0.00    +0.000 A 
ENDROOT
BRANCH   1   7
ATOM      7  S   UNL     1       4.334   2.331  19.303  0.00  0.00    +0.000 S 
ATOM      8  O   UNL     1       3.851   1.290  18.429  0.00  0.00    +0.000 OA
ATOM      9  O   UNL     1       5.091   2.000  20.496  0.00  0.00    +0.000 OA
BRANCH   7  12
ATOM     10  C   UNL     1       4.942   3.931  17.213  0.00  0.00    +0.000 C 
ATOM     11  O   UNL     1       3.875   3.676  16.662  0.00  0.00    +0.000 OA
ATOM     12  N   UNL     1       5.298   3.391  18.455  0.00  0.00    +0.000 N 
ATOM     13  H   UNL     1       6.178   3.607  18.915  0.00  0.00    +0.000 HD
BRANCH  10  14
ATOM     14  C   UNL     1       5.987   4.827  16.531  0.00  0.00    +0.000 C 
BRANCH  14  15
ATOM     15  N   UNL     1       5.520   5.125  15.154  0.00  0.00    +0.000 NA
ATOM     16  H   UNL     1       5.963   6.003  14.858  0.00  0.00    +0.000 HD
ATOM     17  H   UNL     1       4.522   5.341  15.168  0.00  0.00    +0.000 HD
ENDBRANCH  14  15
BRANCH  14  18
ATOM     18  C   UNL     1       6.124   6.155  17.298  0.00  0.00    +0.000 C 
BRANCH  18  20
ATOM     19  C   UNL     1       7.786   8.081  17.634  0.00  0.00    +0.000 C 
ATOM     20  C   UNL     1       7.564   6.569  17.674  0.00  0.00    +0.000 C 
ATOM     21  C   UNL     1       7.893   6.047  19.077  0.00  0.00    +0.000 C 
ENDBRANCH  18  20
ENDBRANCH  14  18
ENDBRANCH  10  14
ENDBRANCH   7  12
ENDBRANCH   1   7
BRANCH   5  22
ATOM     22  N   UNL     1       2.360   6.986  20.338  0.00  0.00    +0.000 N 
ATOM     23  H   UNL     1       2.693   7.332  21.240  0.00  0.00    +0.000 HD
BRANCH  22  24
ATOM     24  C   UNL     1       2.032   7.982  19.442  0.00  0.00    +0.000 C 
ATOM     25  S   UNL     1       2.461   8.162  17.832  0.00  0.00    +0.000 S 
BRANCH  24  26
ATOM     26  N   UNL     1       1.171   8.942  19.935  0.00  0.00    +0.000 N 
ATOM     27  C   UNL     1       0.862   9.218  21.258  0.00  0.00    +0.000 C 
ATOM     28  O   UNL     1       1.377   8.657  22.219  0.00  0.00    +0.000 OA
ATOM     29  H   UNL     1       0.731   9.493  19.208  0.00  0.00    +0.000 HD
BRANCH  27  30
ATOM     30  C   UNL     1      -0.128  10.295  21.459  0.00  0.00    +0.000 A 
ATOM     31  C   UNL     1      -0.577  10.639  22.740  0.00  0.00    +0.000 A 
ATOM     32  C   UNL     1      -1.575  11.602  22.881  0.00  0.00    +0.000 A 
ATOM     33  C   UNL     1      -2.109  12.224  21.752  0.00  0.00    +0.000 A 
ATOM     34  C   UNL     1      -1.626  11.912  20.479  0.00  0.00    +0.000 A 
ATOM     35  C   UNL     1      -0.627  10.952  20.332  0.00  0.00    +0.000 A 
ENDBRANCH  27  30
ENDBRANCH  24  26
ENDBRANCH  22  24
ENDBRANCH   5  22
TORSDOF 10
ENDMDL
MODEL 2
REMARK VINA RESULT:      -8.4      1.215      2.080
REMARK  Name = 
REMARK  12 active torsions:
REMARK  status: ('A' for Active; 'I' for Inactive)
REMARK    1  A    between atoms: C_1  and  C_2
REMARK    2  A    between atoms: C_2  and  C_3
REMARK    3  A    between atoms: C_2  and  C_4
REMARK    4  A    between atoms: C_4  and  C_5
REMARK    5  A    between atoms: C_5  and  N_6
REMARK    6  A    between atoms: C_5  and  C_7
REMARK    7  A    between atoms: N_9  and  S_10
REMARK    8  A    between atoms: S_10  and  C_13
REMARK    9  A    between atoms: C_17  and  N_18
REMARK   10  A    between atoms: N_18  and  C_19
REMARK   11  A    between atoms: C_19  and  N_21
REMARK   12  A    between atoms: C_22  and  C_24
REMARK                            x       y       z     vdW  Elec       q    Type
REMARK                         _______ _______ _______ _____ _____    ______ ____
ROOT
ATOM      1  C   UNL     1       2.973   3.287  19.819  0.00  0.00    +0.000 A 
ATOM      2  C   UNL     1       1.703   2.718  19.899  0.00  0.00    +0.000 A 
ATOM      3  C   UNL     1       0.617   3.525  20.248  0.00  0.00    +0.000 A 
ATOM      4  C   UNL     1       0.806   4.892  20.485  0.00  0.00    +0.000 A 
ATOM      5  C   UNL     1       2.079   5.462  20.367  0.00  0.00    +0.000 A 
ATOM      6  C   UNL     1       3.167   4.638  20.101  0.00  0.00    +0.000 A 
ENDROOT
BRANCH   1   7
ATOM      7  S   UNL     1       4.389   2.326  19.349  0.00  0.00    +0.000 S 
ATOM      8  O   UNL     1       3.998   1.356  18.356  0.00  0.00    +0.000 OA
ATOM      9  O   UNL     1       5.063   1.906  20.564  0.00  0.00    +0.000 OA
BRANCH   7  12
ATOM     10  C   UNL     1       5.159   4.043  17.412  0.00  0.00    +0.000 C 
ATOM     11  O   UNL     1       4.189   3.752  16.719  0.00  0.00    +0.000 OA
ATOM     12  N   UNL     1       5.386   3.473  18.671  0.00  0.00    +0.000 N 
ATOM     13  H   UNL     1       6.186   3.718  19.247  0.00  0.00    +0.000 HD
BRANCH  10  14
ATOM     14  C   UNL     1       6.226   5.025  16.903  0.00  0.00    +0.000 C 
BRANCH  14  15
ATOM     15  N   UNL     1       7.555   4.375  17.026  0.00  0.00    +0.000 NA
ATOM     16  H   UNL     1       8.050   4.505  16.135  0.00  0.00    +0.000 HD
ATOM     17  H   UNL     1       7.438   3.363  17.102  0.00  0.00    +0.000 HD
ENDBRANCH  14  15
BRANCH  14  18
ATOM     18  C   UNL     1       5.978   5.350  15.419  0.00  0.00    +0.000 C 
BRANCH  18  20
ATOM     19  C   UNL     1       5.781   3.692  13.471  0.00  0.00    +0.000 C 
ATOM     20  C   UNL     1       6.721   4.457  14.401  0.00  0.00    +0.000 C 
ATOM     21  C   UNL     1       7.668   5.322  13.562  0.00  0.00    +0.000 C 
ENDBRANCH  18  20
ENDBRANCH  14  18
ENDBRANCH  10  14
ENDBRANCH   7  12
ENDBRANCH   1   7
BRANCH   5  22
ATOM     22  N   UNL     1       2.210   6.852  20.537  0.00  0.00    +0.000 N 
ATOM     23  H   UNL     1       2.383   7.160  21.495  0.00  0.00    +0.000 HD
BRANCH  22  24
ATOM     24  C   UNL     1       2.007   7.883  19.644  0.00  0.00    +0.000 C 
ATOM     25  S   UNL     1       2.442   8.008  18.030  0.00  0.00    +0.000 S 
BRANCH  24  26
ATOM     26  N   UNL     1       1.283   8.946  20.144  0.00  0.00    +0.000 N 
ATOM     27  C   UNL     1       0.246   8.919  21.065  0.00  0.00    +0.000 C 
ATOM     28  O   UNL     1      -0.152   7.906  21.627  0.00  0.00    +0.000 OA
ATOM     29  H   UNL     1       1.576   9.839  19.769  0.00  0.00    +0.000 HD
BRANCH  27  30
ATOM     30  C   UNL     1      -0.350  10.234  21.376  0.00  0.00    +0.000 A 
ATOM     31  C   UNL     1      -0.497  11.217  20.390  0.00  0.00    +0.000 A 
ATOM     32  C   UNL     1      -0.985  12.475  20.743  0.00  0.00    +0.000 A 
ATOM     33  C   UNL     1      -1.336  12.741  22.066  0.00  0.00    +0.000 A 
ATOM     34  C   UNL     1      -1.233  11.743  23.038  0.00  0.00    +0.000 A 
ATOM     35  C   UNL     1      -0.748  10.484  22.692  0.00  0.00    +0.000 A 
ENDBRANCH  27  30
ENDBRANCH  24  26
ENDBRANCH  22  24
ENDBRANCH   5  22
TORSDOF 10
ENDMDL
MODEL 3
REMARK VINA RESULT:      -8.2      1.195      1.831
REMARK  Name = 
REMARK  12 active torsions:
REMARK  status: ('A' for Active; 'I' for Inactive)
REMARK    1  A    between atoms: C_1  and  C_2
REMARK    2  A    between atoms: C_2  and  C_3
REMARK    3  A    between atoms: C_2  and  C_4
REMARK    4  A    between atoms: C_4  and  C_5
REMARK    5  A    between atoms: C_5  and  N_6
REMARK    6  A    between atoms: C_5  and  C_7
REMARK    7  A    between atoms: N_9  and  S_10
REMARK    8  A    between atoms: S_10  and  C_13
REMARK    9  A    between atoms: C_17  and  N_18
REMARK   10  A    between atoms: N_18  and  C_19
REMARK   11  A    between atoms: C_19  and  N_21
REMARK   12  A    between atoms: C_22  and  C_24
REMARK                            x       y       z     vdW  Elec       q    Type
REMARK                         _______ _______ _______ _____ _____    ______ ____
ROOT
ATOM      1  C   UNL     1       2.974   3.270  19.899  0.00  0.00    +0.000 A 
ATOM      2  C   UNL     1       1.679   2.759  19.964  0.00  0.00    +0.000 A 
ATOM      3  C   UNL     1       0.618   3.625  20.245  0.00  0.00    +0.000 A 
ATOM      4  C   UNL     1       0.859   4.992  20.428  0.00  0.00    +0.000 A 
ATOM      5  C   UNL     1       2.159   5.502  20.324  0.00  0.00    +0.000 A 
ATOM      6  C   UNL     1       3.218   4.624  20.128  0.00  0.00    +0.000 A 
ENDROOT
BRANCH   1   7
ATOM      7  S   UNL     1       4.360   2.231  19.515  0.00  0.00    +0.000 S 
ATOM      8  O   UNL     1       3.955   1.232  18.557  0.00  0.00    +0.000 OA
ATOM      9  O   UNL     1       4.984   1.843  20.767  0.00  0.00    +0.000 OA
BRANCH   7  12
ATOM     10  C   UNL     1       5.252   3.822  17.523  0.00  0.00    +0.000 C 
ATOM     11  O   UNL     1       4.289   3.539  16.817  0.00  0.00    +0.000 OA
ATOM     12  N   UNL     1       5.422   3.303  18.813  0.00  0.00    +0.000 N 
ATOM     13  H   UNL     1       6.217   3.542  19.399  0.00  0.00    +0.000 HD
BRANCH  10  14
ATOM     14  C   UNL     1       6.373   4.735  16.999  0.00  0.00    +0.000 C 
BRANCH  14  15
ATOM     15  N   UNL     1       7.447   4.789  18.022  0.00  0.00    +0.000 NA
ATOM     16  H   UNL     1       8.238   5.304  17.616  0.00  0.00    +0.000 HD
ATOM     17  H   UNL     1       7.816   3.850  18.184  0.00  0.00    +0.000 HD
ENDBRANCH  14  15
BRANCH  14  18
ATOM     18  C   UNL     1       6.963   4.153  15.702  0.00  0.00    +0.000 C 
BRANCH  18  20
ATOM     19  C   UNL     1       7.689   5.239  13.493  0.00  0.00    +0.000 C 
ATOM     20  C   UNL     1       6.518   4.843  14.393  0.00  0.00    +0.000 C 
ATOM     21  C   UNL     1       5.580   3.910  13.620  0.00  0.00    +0.000 C 
ENDBRANCH  18  20
ENDBRANCH  14  18
ENDBRANCH  10  14
ENDBRANCH   7  12
ENDBRANCH   1   7
BRANCH   5  22
ATOM     22  N   UNL     1       2.344   6.892  20.437  0.00  0.00    +0.000 N 
ATOM     23  H   UNL     1       2.637   7.220  21.359  0.00  0.00    +0.000 HD
BRANCH  22  24
ATOM     24  C   UNL     1       2.062   7.905  19.545  0.00  0.00    +0.000 C 
ATOM     25  S   UNL     1       2.555   8.105  17.956  0.00  0.00    +0.000 S 
BRANCH  24  26
ATOM     26  N   UNL     1       1.194   8.868  20.020  0.00  0.00    +0.000 N 
ATOM     27  C   UNL     1       0.979   9.255  21.334  0.00  0.00    +0.000 C 
ATOM     28  O   UNL     1       1.598   8.812  22.294  0.00  0.00    +0.000 OA
ATOM     29  H   UNL     1       0.669   9.327  19.286  0.00  0.00    +0.000 HD
BRANCH  27  30
ATOM     30  C   UNL     1      -0.047  10.301  21.520  0.00  0.00    +0.000 A 
ATOM     31  C   UNL     1      -0.544  10.613  22.791  0.00  0.00    +0.000 A 
ATOM     32  C   UNL     1      -1.573  11.546  22.914  0.00  0.00    +0.000 A 
ATOM     33  C   UNL     1      -2.090  12.169  21.778  0.00  0.00    +0.000 A 
ATOM     34  C   UNL     1      -1.559  11.890  20.517  0.00  0.00    +0.000 A 
ATOM     35  C   UNL     1      -0.529  10.961  20.387  0.00  0.00    +0.000 A 
ENDBRANCH  27  30
ENDBRANCH  24  26
ENDBRANCH  22  24
ENDBRANCH   5  22
TORSDOF 10
ENDMDL
MODEL 4
REMARK VINA RESULT:      -8.0      1.102      1.167
REMARK  Name = 
REMARK  12 active torsions:
REMARK  status: ('A' for Active; 'I' for Inactive)
REMARK    1  A    between atoms: C_1  and  C_2
REMARK    2  A    between atoms: C_2  and  C_3
REMARK    3  A    between atoms: C_2  and  C_4
REMARK    4  A    between atoms: C_4  and  C_5
REMARK    5  A    between atoms: C_5  and  N_6
REMARK    6  A    between atoms: C_5  and  C_7
REMARK    7  A    between atoms: N_9  and  S_10
REMARK    8  A    between atoms: S_10  and  C_13
REMARK    9  A    between atoms: C_17  and  N_18
REMARK   10  A    between atoms: N_18  and  C_19
REMARK   11  A    between atoms: C_19  and  N_21
REMARK   12  A    between atoms: C_22  and  C_24
REMARK                            x       y       z     vdW  Elec       q    Type
REMARK                         _______ _______ _______ _____ _____    ______ ____
ROOT
ATOM      1  C   UNL     1       3.090   4.220  19.359  0.00  0.00    +0.000 A 
ATOM      2  C   UNL     1       2.033   3.409  19.769  0.00  0.00    +0.000 A 
ATOM      3  C   UNL     1       0.971   3.980  20.476  0.00  0.00    +0.000 A 
ATOM      4  C   UNL     1       0.964   5.355  20.740  0.00  0.00    +0.000 A 
ATOM      5  C   UNL     1       2.011   6.168  20.292  0.00  0.00    +0.000 A 
ATOM      6  C   UNL     1       3.103   5.581  19.664  0.00  0.00    +0.000 A 
ENDROOT
BRANCH   1   7
ATOM      7  S   UNL     1       4.452   3.566  18.430  0.00  0.00    +0.000 S 
ATOM      8  O   UNL     1       3.973   2.530  17.548  0.00  0.00    +0.000 OA
ATOM      9  O   UNL     1       5.536   3.300  19.359  0.00  0.00    +0.000 OA
BRANCH   7  12
ATOM     10  C   UNL     1       6.044   4.865  16.677  0.00  0.00    +0.000 C 
ATOM     11  O   UNL     1       6.714   3.856  16.482  0.00  0.00    +0.000 OA
ATOM     12  N   UNL     1       4.947   4.887  17.548  0.00  0.00    +0.000 N 
ATOM     13  H   UNL     1       4.388   5.721  17.705  0.00  0.00    +0.000 HD
BRANCH  10  14
ATOM     14  C   UNL     1       6.412   6.198  16.006  0.00  0.00    +0.000 C 
BRANCH  14  15
ATOM     15  N   UNL     1       5.330   6.559  15.057  0.00  0.00    +0.000 NA
ATOM     16  H   UNL     1       5.045   5.701  14.570  0.00  0.00    +0.000 HD
ATOM     17  H   UNL     1       5.704   7.155  14.317  0.00  0.00    +0.000 HD
ENDBRANCH  14  15
BRANCH  14  18
ATOM     18  C   UNL     1       6.522   7.309  17.066  0.00  0.00    +0.000 C 
BRANCH  18  20
ATOM     19  C   UNL     1       8.212   8.964  18.060  0.00  0.00    +0.000 C 
ATOM     20  C   UNL     1       7.922   7.511  17.687  0.00  0.00    +0.000 C 
ATOM     21  C   UNL     1       8.056   6.632  18.935  0.00  0.00    +0.000 C 
ENDBRANCH  18  20
ENDBRANCH  14  18
ENDBRANCH  10  14
ENDBRANCH   7  12
ENDBRANCH   1   7
BRANCH   5  22
ATOM     22  N   UNL     1       1.924   7.555  20.512  0.00  0.00    +0.000 N 
ATOM     23  H   UNL     1       2.055   7.853  21.480  0.00  0.00    +0.000 HD
BRANCH  22  24
ATOM     24  C   UNL     1       1.553   8.571  19.657  0.00  0.00    +0.000 C 
ATOM     25  S   UNL     1       1.981   8.841  18.059  0.00  0.00    +0.000 S 
BRANCH  24  26
ATOM     26  N   UNL     1       0.645   9.467  20.184  0.00  0.00    +0.000 N 
ATOM     27  C   UNL     1       0.546   9.917  21.492  0.00  0.00    +0.000 C 
ATOM     28  O   UNL     1       1.321   9.608  22.389  0.00  0.00    +0.000 OA
ATOM     29  H   UNL     1      -0.013   9.818  19.499  0.00  0.00    +0.000 HD
BRANCH  27  30
ATOM     30  C   UNL     1      -0.562  10.859  21.749  0.00  0.00    +0.000 A 
ATOM     31  C   UNL     1      -1.100  11.016  23.032  0.00  0.00    +0.000 A 
ATOM     32  C   UNL     1      -2.201  11.851  23.217  0.00  0.00    +0.000 A 
ATOM     33  C   UNL     1      -2.750  12.532  22.130  0.00  0.00    +0.000 A 
ATOM     34  C   UNL     1      -2.182  12.410  20.861  0.00  0.00    +0.000 A 
ATOM     35  C   UNL     1      -1.080  11.579  20.669  0.00  0.00    +0.000 A 
ENDBRANCH  27  30
ENDBRANCH  24  26
ENDBRANCH  22  24
ENDBRANCH   5  22
TORSDOF 10
ENDMDL
MODEL 5
REMARK VINA RESULT:      -7.9      2.533      3.705
REMARK  Name = 
REMARK  12 active torsions:
REMARK  status: ('A' for Active; 'I' for Inactive)
REMARK    1  A    between atoms: C_1  and  C_2
REMARK    2  A    between atoms: C_2  and  C_3
REMARK    3  A    between atoms: C_2  and  C_4
REMARK    4  A    between atoms: C_4  and  C_5
REMARK    5  A    between atoms: C_5  and  N_6
REMARK    6  A    between atoms: C_5  and  C_7
REMARK    7  A    between atoms: N_9  and  S_10
REMARK    8  A    between atoms: S_10  and  C_13
REMARK    9  A    between atoms: C_17  and  N_18
REMARK   10  A    between atoms: N_18  and  C_19
REMARK   11  A    between atoms: C_19  and  N_21
REMARK   12  A    between atoms: C_22  and  C_24
REMARK                            x       y       z     vdW  Elec       q    Type
REMARK                         _______ _______ _______ _____ _____    ______ ____
ROOT
ATOM      1  C   UNL     1       2.691   5.881  18.835  0.00  0.00    +0.000 A 
ATOM      2  C   UNL     1       2.871   6.703  17.724  0.00  0.00    +0.000 A 
ATOM      3  C   UNL     1       2.535   8.056  17.818  0.00  0.00    +0.000 A 
ATOM      4  C   UNL     1       2.051   8.577  19.024  0.00  0.00    +0.000 A 
ATOM      5  C   UNL     1       1.909   7.752  20.146  0.00  0.00    +0.000 A 
ATOM      6  C   UNL     1       2.165   6.391  20.022  0.00  0.00    +0.000 A 
ENDROOT
BRANCH   1   7
ATOM      7  S   UNL     1       3.128   4.161  18.794  0.00  0.00    +0.000 S 
ATOM      8  O   UNL     1       2.097   3.425  18.103  0.00  0.00    +0.000 OA
ATOM      9  O   UNL     1       3.538   3.776  20.132  0.00  0.00    +0.000 OA
BRANCH   7  12
ATOM     10  C   UNL     1       5.712   4.787  18.320  0.00  0.00    +0.000 C 
ATOM     11  O   UNL     1       5.812   5.349  19.407  0.00  0.00    +0.000 OA
ATOM     12  N   UNL     1       4.528   4.173  17.894  0.00  0.00    +0.000 N 
ATOM     13  H   UNL     1       4.446   3.702  16.997  0.00  0.00    +0.000 HD
BRANCH  10  14
ATOM     14  C   UNL     1       6.885   4.775  17.327  0.00  0.00    +0.000 C 
BRANCH  14  15
ATOM     15  N   UNL     1       8.042   4.114  17.980  0.00  0.00    +0.000 NA
ATOM     16  H   UNL     1       8.876   4.682  17.785  0.00  0.00    +0.000 HD
ATOM     17  H   UNL     1       8.234   3.222  17.521  0.00  0.00    +0.000 HD
ENDBRANCH  14  15
BRANCH  14  18
ATOM     18  C   UNL     1       6.505   3.969  16.072  0.00  0.00    +0.000 C 
BRANCH  18  20
ATOM     19  C   UNL     1       5.952   3.932  13.567  0.00  0.00    +0.000 C 
ATOM     20  C   UNL     1       6.389   4.779  14.763  0.00  0.00    +0.000 C 
ATOM     21  C   UNL     1       5.391   5.925  14.961  0.00  0.00    +0.000 C 
ENDBRANCH  18  20
ENDBRANCH  14  18
ENDBRANCH  10  14
ENDBRANCH   7  12
ENDBRANCH   1   7
BRANCH   5  22
ATOM     22  N   UNL     1       1.494   8.333  21.358  0.00  0.00    +0.000 N 
ATOM     23  H   UNL     1       2.082   8.123  22.166  0.00  0.00    +0.000 HD
BRANCH  22  24
ATOM     24  C   UNL     1       0.345   9.030  21.665  0.00  0.00    +0.000 C 
ATOM     25  S   UNL     1      -0.207   9.592  23.144  0.00  0.00    +0.000 S 
BRANCH  24  26
ATOM     26  N   UNL     1      -0.436   9.365  20.577  0.00  0.00    +0.000 N 
ATOM     27  C   UNL     1      -0.519  10.586  19.925  0.00  0.00    +0.000 C 
ATOM     28  O   UNL     1       0.163  11.566  20.204  0.00  0.00    +0.000 OA
ATOM     29  H   UNL     1      -1.004   8.596  20.243  0.00  0.00    +0.000 HD
BRANCH  27  30
ATOM     30  C   UNL     1      -1.479  10.634  18.804  0.00  0.00    +0.000 A 
ATOM     31  C   UNL     1      -1.286   9.869  17.648  0.00  0.00    +0.000 A 
ATOM     32  C   UNL     1      -2.169  10.007  16.578  0.00  0.00    +0.000 A 
ATOM     33  C   UNL     1      -3.243  10.892  16.671  0.00  0.00    +0.000 A 
ATOM     34  C   UNL     1      -3.460  11.619  17.843  0.00  0.00    +0.000 A 
ATOM     35  C   UNL     1      -2.583  11.484  18.917  0.00  0.00    +0.000 A 
ENDBRANCH  27  30
ENDBRANCH  24  26
ENDBRANCH  22  24
ENDBRANCH   5  22
TORSDOF 10
ENDMDL
MODEL 6
REMARK VINA RESULT:      -7.8      2.793      3.754
REMARK  Name = 
REMARK  12 active torsions:
REMARK  status: ('A' for Active; 'I' for Inactive)
REMARK    1  A    between atoms: C_1  and  C_2
REMARK    2  A    between atoms: C_2  and  C_3
REMARK    3  A    between atoms: C_2  and  C_4
REMARK    4  A    between atoms: C_4  and  C_5
REMARK    5  A    between atoms: C_5  and  N_6
REMARK    6  A    between atoms: C_5  and  C_7
REMARK    7  A    between atoms: N_9  and  S_10
REMARK    8  A    between atoms: S_10  and  C_13
REMARK    9  A    between atoms: C_17  and  N_18
REMARK   10  A    between atoms: N_18  and  C_19
REMARK   11  A    between atoms: C_19  and  N_21
REMARK   12  A    between atoms: C_22  and  C_24
REMARK                            x       y       z     vdW  Elec       q    Type
REMARK                         _______ _______ _______ _____ _____    ______ ____
ROOT
ATOM      1  C   UNL     1       2.494   5.637  18.957  0.00  0.00    +0.000 A 
ATOM      2  C   UNL     1       2.068   5.647  20.284  0.00  0.00    +0.000 A 
ATOM      3  C   UNL     1       1.706   6.862  20.873  0.00  0.00    +0.000 A 
ATOM      4  C   UNL     1       1.747   8.044  20.124  0.00  0.00    +0.000 A 
ATOM      5  C   UNL     1       2.141   8.018  18.781  0.00  0.00    +0.000 A 
ATOM      6  C   UNL     1       2.579   6.821  18.226  0.00  0.00    +0.000 A 
ENDROOT
BRANCH   1   7
ATOM      7  S   UNL     1       2.936   4.125  18.139  0.00  0.00    +0.000 S 
ATOM      8  O   UNL     1       1.868   3.735  17.251  0.00  0.00    +0.000 OA
ATOM      9  O   UNL     1       3.432   3.204  19.145  0.00  0.00    +0.000 OA
BRANCH   7  12
ATOM     10  C   UNL     1       5.558   4.685  17.815  0.00  0.00    +0.000 C 
ATOM     11  O   UNL     1       5.794   4.434  18.993  0.00  0.00    +0.000 OA
ATOM     12  N   UNL     1       4.277   4.576  17.261  0.00  0.00    +0.000 N 
ATOM     13  H   UNL     1       4.083   4.778  16.285  0.00  0.00    +0.000 HD
BRANCH  10  14
ATOM     14  C   UNL     1       6.667   5.196  16.881  0.00  0.00    +0.000 C 
BRANCH  14  15
ATOM     15  N   UNL     1       7.763   4.195  16.867  0.00  0.00    +0.000 NA
ATOM     16  H   UNL     1       7.691   3.666  15.989  0.00  0.00    +0.000 HD
ATOM     17  H   UNL     1       7.602   3.497  17.595  0.00  0.00    +0.000 HD
ENDBRANCH  14  15
BRANCH  14  18
ATOM     18  C   UNL     1       6.122   5.343  15.448  0.00  0.00    +0.000 C 
BRANCH  18  20
ATOM     19  C   UNL     1       5.803   3.709  13.496  0.00  0.00    +0.000 C 
ATOM     20  C   UNL     1       6.801   4.461  14.377  0.00  0.00    +0.000 C 
ATOM     21  C   UNL     1       7.697   5.335  13.493  0.00  0.00    +0.000 C 
ENDBRANCH  18  20
ENDBRANCH  14  18
ENDBRANCH  10  14
ENDBRANCH   7  12
ENDBRANCH   1   7
BRANCH   5  22
ATOM     22  N   UNL     1       2.092   9.216  18.045  0.00  0.00    +0.000 N 
ATOM     23  H   UNL     1       2.660   9.231  17.196  0.00  0.00    +0.000 HD
BRANCH  22  24
ATOM     24  C   UNL     1       1.511  10.429  18.353  0.00  0.00    +0.000 C 
ATOM     25  S   UNL     1       2.156  11.761  19.137  0.00  0.00    +0.000 S 
BRANCH  24  26
ATOM     26  N   UNL     1       0.220  10.584  17.890  0.00  0.00    +0.000 N 
ATOM     27  C   UNL     1      -0.958  10.592  18.621  0.00  0.00    +0.000 C 
ATOM     28  O   UNL     1      -1.012  10.514  19.844  0.00  0.00    +0.000 OA
ATOM     29  H   UNL     1       0.169  10.705  16.886  0.00  0.00    +0.000 HD
BRANCH  27  30
ATOM     30  C   UNL     1      -2.191  10.749  17.824  0.00  0.00    +0.000 A 
ATOM     31  C   UNL     1      -3.287  11.470  18.313  0.00  0.00    +0.000 A 
ATOM     32  C   UNL     1      -4.462  11.523  17.566  0.00  0.00    +0.000 A 
ATOM     33  C   UNL     1      -4.536  10.871  16.335  0.00  0.00    +0.000 A 
ATOM     34  C   UNL     1      -3.426  10.192  15.828  0.00  0.00    +0.000 A 
ATOM     35  C   UNL     1      -2.247  10.137  16.569  0.00  0.00    +0.000 A 
ENDBRANCH  27  30
ENDBRANCH  24  26
ENDBRANCH  22  24
ENDBRANCH   5  22
TORSDOF 10
ENDMDL
MODEL 7
REMARK VINA RESULT:      -7.6      2.067      2.612
REMARK  Name = 
REMARK  12 active torsions:
REMARK  status: ('A' for Active; 'I' for Inactive)
REMARK    1  A    between atoms: C_1  and  C_2
REMARK    2  A    between atoms: C_2  and  C_3
REMARK    3  A    between atoms: C_2  and  C_4
REMARK    4  A    between atoms: C_4  and  C_5
REMARK    5  A    between atoms: C_5  and  N_6
REMARK    6  A    between atoms: C_5  and  C_7
REMARK    7  A    between atoms: N_9  and  S_10
REMARK    8  A    between atoms: S_10  and  C_13
REMARK    9  A    between atoms: C_17  and  N_18
REMARK   10  A    between atoms: N_18  and  C_19
REMARK   11  A    between atoms: C_19  and  N_21
REMARK   12  A    between atoms: C_22  and  C_24
REMARK                            x       y       z     vdW  Elec       q    Type
REMARK                         _______ _______ _______ _____ _____    ______ ____
ROOT
ATOM      1  C   UNL     1       2.739   4.007  19.012  0.00  0.00    +0.000 A 
ATOM      2  C   UNL     1       2.294   3.388  20.178  0.00  0.00    +0.000 A 
ATOM      3  C   UNL     1       1.827   4.177  21.233  0.00  0.00    +0.000 A 
ATOM      4  C   UNL     1       1.784   5.570  21.100  0.00  0.00    +0.000 A 
ATOM      5  C   UNL     1       2.198   6.182  19.911  0.00  0.00    +0.000 A 
ATOM      6  C   UNL     1       2.739   5.397  18.899  0.00  0.00    +0.000 A 
ENDROOT
BRANCH   1   7
ATOM      7  S   UNL     1       3.314   3.063  17.624  0.00  0.00    +0.000 S 
ATOM      8  O   UNL     1       2.582   3.458  16.445  0.00  0.00    +0.000 OA
ATOM      9  O   UNL     1       3.367   1.669  18.027  0.00  0.00    +0.000 OA
BRANCH   7  12
ATOM     10  C   UNL     1       5.319   4.642  16.741  0.00  0.00    +0.000 C 
ATOM     11  O   UNL     1       4.534   5.351  16.118  0.00  0.00    +0.000 OA
ATOM     12  N   UNL     1       4.903   3.543  17.502  0.00  0.00    +0.000 N 
ATOM     13  H   UNL     1       5.552   2.960  18.022  0.00  0.00    +0.000 HD
BRANCH  10  14
ATOM     14  C   UNL     1       6.834   4.893  16.671  0.00  0.00    +0.000 C 
BRANCH  14  15
ATOM     15  N   UNL     1       7.337   4.354  15.383  0.00  0.00    +0.000 NA
ATOM     16  H   UNL     1       6.523   4.141  14.795  0.00  0.00    +0.000 HD
ATOM     17  H   UNL     1       7.779   3.446  15.538  0.00  0.00    +0.000 HD
ENDBRANCH  14  15
BRANCH  14  18
ATOM     18  C   UNL     1       7.120   6.405  16.713  0.00  0.00    +0.000 C 
BRANCH  18  20
ATOM     19  C   UNL     1       7.986   6.054  19.103  0.00  0.00    +0.000 C 
ATOM     20  C   UNL     1       7.315   7.013  18.120  0.00  0.00    +0.000 C 
ATOM     21  C   UNL     1       8.154   8.290  18.009  0.00  0.00    +0.000 C 
ENDBRANCH  18  20
ENDBRANCH  14  18
ENDBRANCH  10  14
ENDBRANCH   7  12
ENDBRANCH   1   7
BRANCH   5  22
ATOM     22  N   UNL     1       2.064   7.577  19.793  0.00  0.00    +0.000 N 
ATOM     23  H   UNL     1       2.681   8.019  19.109  0.00  0.00    +0.000 HD
BRANCH  22  24
ATOM     24  C   UNL     1       1.331   8.469  20.547  0.00  0.00    +0.000 C 
ATOM     25  S   UNL     1       1.567   8.994  22.120  0.00  0.00    +0.000 S 
BRANCH  24  26
ATOM     26  N   UNL     1       0.278   9.062  19.879  0.00  0.00    +0.000 N 
ATOM     27  C   UNL     1       0.323   9.866  18.750  0.00  0.00    +0.000 C 
ATOM     28  O   UNL     1       1.347  10.128  18.129  0.00  0.00    +0.000 OA
ATOM     29  H   UNL     1      -0.622   8.859  20.295  0.00  0.00    +0.000 HD
BRANCH  27  30
ATOM     30  C   UNL     1      -0.984  10.376  18.291  0.00  0.00    +0.000 A 
ATOM     31  C   UNL     1      -1.662  11.378  18.995  0.00  0.00    +0.000 A 
ATOM     32  C   UNL     1      -2.932  11.772  18.577  0.00  0.00    +0.000 A 
ATOM     33  C   UNL     1      -3.513  11.177  17.457  0.00  0.00    +0.000 A 
ATOM     34  C   UNL     1      -2.815  10.211  16.729  0.00  0.00    +0.000 A 
ATOM     35  C   UNL     1      -1.545   9.815  17.140  0.00  0.00    +0.000 A 
ENDBRANCH  27  30
ENDBRANCH  24  26
ENDBRANCH  22  24
ENDBRANCH   5  22
TORSDOF 10
ENDMDL
MODEL 8
REMARK VINA RESULT:      -7.6      1.920      2.438
REMARK  Name = 
REMARK  12 active torsions:
REMARK  status: ('A' for Active; 'I' for Inactive)
REMARK    1  A    between atoms: C_1  and  C_2
REMARK    2  A    between atoms: C_2  and  C_3
REMARK    3  A    between atoms: C_2  and  C_4
REMARK    4  A    between atoms: C_4  and  C_5
REMARK    5  A    between atoms: C_5  and  N_6
REMARK    6  A    between atoms: C_5  and  C_7
REMARK    7  A    between atoms: N_9  and  S_10
REMARK    8  A    between atoms: S_10  and  C_13
REMARK    9  A    between atoms: C_17  and  N_18
REMARK   10  A    between atoms: N_18  and  C_19
REMARK   11  A    between atoms: C_19  and  N_21
REMARK   12  A    between atoms: C_22  and  C_24
REMARK                            x       y       z     vdW  Elec       q    Type
REMARK                         _______ _______ _______ _____ _____    ______ ____
ROOT
ATOM      1  C   UNL     1       3.015   3.006  20.104  0.00  0.00    +0.000 A 
ATOM      2  C   UNL     1       1.774   2.379  20.203  0.00  0.00    +0.000 A 
ATOM      3  C   UNL     1       0.634   3.158  20.422  0.00  0.00    +0.000 A 
ATOM      4  C   UNL     1       0.743   4.551  20.510  0.00  0.00    +0.000 A 
ATOM      5  C   UNL     1       1.989   5.175  20.372  0.00  0.00    +0.000 A 
ATOM      6  C   UNL     1       3.128   4.389  20.238  0.00  0.00    +0.000 A 
ENDROOT
BRANCH   1   7
ATOM      7  S   UNL     1       4.497   2.079  19.794  0.00  0.00    +0.000 S 
ATOM      8  O   UNL     1       4.223   1.058  18.812  0.00  0.00    +0.000 OA
ATOM      9  O   UNL     1       5.079   1.732  21.077  0.00  0.00    +0.000 OA
BRANCH   7  12
ATOM     10  C   UNL     1       5.333   3.794  17.882  0.00  0.00    +0.000 C 
ATOM     11  O   UNL     1       4.399   3.486  17.147  0.00  0.00    +0.000 OA
ATOM     12  N   UNL     1       5.509   3.235  19.154  0.00  0.00    +0.000 N 
ATOM     13  H   UNL     1       6.279   3.494  19.765  0.00  0.00    +0.000 HD
BRANCH  10  14
ATOM     14  C   UNL     1       6.410   4.786  17.415  0.00  0.00    +0.000 C 
BRANCH  14  15
ATOM     15  N   UNL     1       7.479   4.833  18.444  0.00  0.00    +0.000 NA
ATOM     16  H   UNL     1       8.046   3.983  18.343  0.00  0.00    +0.000 HD
ATOM     17  H   UNL     1       7.065   4.750  19.374  0.00  0.00    +0.000 HD
ENDBRANCH  14  15
BRANCH  14  18
ATOM     18  C   UNL     1       7.029   4.306  16.090  0.00  0.00    +0.000 C 
BRANCH  18  20
ATOM     19  C   UNL     1       5.814   4.004  13.850  0.00  0.00    +0.000 C 
ATOM     20  C   UNL     1       6.488   4.983  14.811  0.00  0.00    +0.000 C 
ATOM     21  C   UNL     1       5.488   6.077  15.200  0.00  0.00    +0.000 C 
ENDBRANCH  18  20
ENDBRANCH  14  18
ENDBRANCH  10  14
ENDBRANCH   7  12
ENDBRANCH   1   7
BRANCH   5  22
ATOM     22  N   UNL     1       2.041   6.580  20.388  0.00  0.00    +0.000 N 
ATOM     23  H   UNL     1       1.755   7.017  21.266  0.00  0.00    +0.000 HD
BRANCH  22  24
ATOM     24  C   UNL     1       2.283   7.476  19.368  0.00  0.00    +0.000 C 
ATOM     25  S   UNL     1       3.242   7.316  18.003  0.00  0.00    +0.000 S 
BRANCH  24  26
ATOM     26  N   UNL     1       1.581   8.661  19.461  0.00  0.00    +0.000 N 
ATOM     27  C   UNL     1       1.474   9.670  18.516  0.00  0.00    +0.000 C 
ATOM     28  O   UNL     1       1.966   9.620  17.394  0.00  0.00    +0.000 OA
ATOM     29  H   UNL     1       1.098   8.769  20.344  0.00  0.00    +0.000 HD
BRANCH  27  30
ATOM     30  C   UNL     1       0.668  10.835  18.931  0.00  0.00    +0.000 A 
ATOM     31  C   UNL     1      -0.604  10.676  19.493  0.00  0.00    +0.000 A 
ATOM     32  C   UNL     1      -1.368  11.804  19.793  0.00  0.00    +0.000 A 
ATOM     33  C   UNL     1      -0.856  13.078  19.546  0.00  0.00    +0.000 A 
ATOM     34  C   UNL     1       0.432  13.234  19.029  0.00  0.00    +0.000 A 
ATOM     35  C   UNL     1       1.200  12.111  18.729  0.00  0.00    +0.000 A 
ENDBRANCH  27  30
ENDBRANCH  24  26
ENDBRANCH  22  24
ENDBRANCH   5  22
TORSDOF 10
ENDMDL
MODEL 9
REMARK VINA RESULT:      -7.5      2.787      9.068
REMARK  Name = 
REMARK  12 active torsions:
REMARK  status: ('A' for Active; 'I' for Inactive)
REMARK    1  A    between atoms: C_1  and  C_2
REMARK    2  A    between atoms: C_2  and  C_3
REMARK    3  A    between atoms: C_2  and  C_4
REMARK    4  A    between atoms: C_4  and  C_5
REMARK    5  A    between atoms: C_5  and  N_6
REMARK    6  A    between atoms: C_5  and  C_7
REMARK    7  A    between atoms: N_9  and  S_10
REMARK    8  A    between atoms: S_10  and  C_13
REMARK    9  A    between atoms: C_17  and  N_18
REMARK   10  A    between atoms: N_18  and  C_19
REMARK   11  A    between atoms: C_19  and  N_21
REMARK   12  A    between atoms: C_22  and  C_24
REMARK                            x       y       z     vdW  Elec       q    Type
REMARK                         _______ _______ _______ _____ _____    ______ ____
ROOT
ATOM      1  C   UNL     1       1.577   7.038  20.436  0.00  0.00    +0.000 A 
ATOM      2  C   UNL     1       1.330   5.726  20.836  0.00  0.00    +0.000 A 
ATOM      3  C   UNL     1       2.015   4.682  20.207  0.00  0.00    +0.000 A 
ATOM      4  C   UNL     1       2.957   4.962  19.210  0.00  0.00    +0.000 A 
ATOM      5  C   UNL     1       3.226   6.286  18.841  0.00  0.00    +0.000 A 
ATOM      6  C   UNL     1       2.481   7.312  19.410  0.00  0.00    +0.000 A 
ENDROOT
BRANCH   1   7
ATOM      7  S   UNL     1       0.766   8.411  21.215  0.00  0.00    +0.000 S 
ATOM      8  O   UNL     1       1.690   9.064  22.109  0.00  0.00    +0.000 OA
ATOM      9  O   UNL     1      -0.525   7.949  21.694  0.00  0.00    +0.000 OA
BRANCH   7  12
ATOM     10  C   UNL     1      -0.287  10.601  20.037  0.00  0.00    +0.000 C 
ATOM     11  O   UNL     1      -0.694  11.029  21.114  0.00  0.00    +0.000 OA
ATOM     12  N   UNL     1       0.423   9.400  19.921  0.00  0.00    +0.000 N 
ATOM     13  H   UNL     1       0.765   9.049  19.031  0.00  0.00    +0.000 HD
BRANCH  10  14
ATOM     14  C   UNL     1      -0.588  11.348  18.728  0.00  0.00    +0.000 C 
BRANCH  14  15
ATOM     15  N   UNL     1       0.687  11.887  18.194  0.00  0.00    +0.000 NA
ATOM     16  H   UNL     1       1.383  11.848  18.949  0.00  0.00    +0.000 HD
ATOM     17  H   UNL     1       0.585  12.884  17.998  0.00  0.00    +0.000 HD
ENDBRANCH  14  15
BRANCH  14  18
ATOM     18  C   UNL     1      -1.180  10.376  17.691  0.00  0.00    +0.000 C 
BRANCH  18  20
ATOM     19  C   UNL     1      -2.704  10.817  15.674  0.00  0.00    +0.000 C 
ATOM     20  C   UNL     1      -2.605  10.708  17.196  0.00  0.00    +0.000 C 
ATOM     21  C   UNL     1      -3.578   9.632  17.689  0.00  0.00    +0.000 C 
ENDBRANCH  18  20
ENDBRANCH  14  18
ENDBRANCH  10  14
ENDBRANCH   7  12
ENDBRANCH   1   7
BRANCH   5  22
ATOM     22  N   UNL     1       4.235   6.525  17.891  0.00  0.00    +0.000 N 
ATOM     23  H   UNL     1       3.960   7.108  17.099  0.00  0.00    +0.000 HD
BRANCH  22  24
ATOM     24  C   UNL     1       5.501   5.988  17.780  0.00  0.00    +0.000 C 
ATOM     25  S   UNL     1       6.625   5.632  18.970  0.00  0.00    +0.000 S 
BRANCH  24  26
ATOM     26  N   UNL     1       5.869   5.637  16.496  0.00  0.00    +0.000 N 
ATOM     27  C   UNL     1       5.692   4.420  15.856  0.00  0.00    +0.000 C 
ATOM     28  O   UNL     1       5.108   3.460  16.347  0.00  0.00    +0.000 OA
ATOM     29  H   UNL     1       6.319   6.390  15.991  0.00  0.00    +0.000 HD
BRANCH  27  30
ATOM     30  C   UNL     1       6.228   4.350  14.482  0.00  0.00    +0.000 A 
ATOM     31  C   UNL     1       7.343   5.105  14.097  0.00  0.00    +0.000 A 
ATOM     32  C   UNL     1       7.765   5.077  12.769  0.00  0.00    +0.000 A 
ATOM     33  C   UNL     1       7.087   4.290  11.838  0.00  0.00    +0.000 A 
ATOM     34  C   UNL     1       6.004   3.502  12.235  0.00  0.00    +0.000 A 
ATOM     35  C   UNL     1       5.578   3.524  13.561  0.00  0.00    +0.000 A 
ENDBRANCH  27  30
ENDBRANCH  24  26
ENDBRANCH  22  24
ENDBRANCH   5  22
TORSDOF 10
ENDMDL
