MODEL 1
REMARK VINA RESULT:      -7.8      0.000      0.000
REMARK  Name = 
REMARK  11 active torsions:
REMARK  status: ('A' for Active; 'I' for Inactive)
REMARK    1  A    between atoms: C_1  and  C_2
REMARK    2  A    between atoms: C_2  and  O_4
REMARK    3  A    between atoms: O_4  and  C_5
REMARK    4  A    between atoms: C_5  and  C_6
REMARK    5  A    between atoms: C_6  and  C_7
REMARK    6  A    between atoms: C_14  and  C_15
REMARK    7  A    between atoms: C_16  and  C_17
REMARK    8  A    between atoms: C_23  and  C_24
REMARK    9  A    between atoms: C_27  and  O_28
REMARK   10  A    between atoms: O_28  and  C_29
REMARK   11  A    between atoms: C_29  and  C_30
REMARK                            x       y       z     vdW  Elec       q    Type
REMARK                         _______ _______ _______ _____ _____    ______ ____
ROOT
ATOM      1  C   UNL     1       5.618   4.309  16.522  0.00  0.00    +0.000 C 
ATOM      2  C   UNL     1       5.838   2.887  15.961  0.00  0.00    +0.000 C 
ATOM      3  C   UNL     1       4.175   4.414  17.226  0.00  0.00    +0.000 C 
ATOM      4  C   UNL     1       3.724   3.222  18.110  0.00  0.00    +0.000 C 
ATOM      5  C   UNL     1       2.302   3.380  18.691  0.00  0.00    +0.000 C 
ATOM      6  C   UNL     1       2.059   4.741  19.277  0.00  0.00    +0.000 C 
ATOM      7  C   UNL     1       2.012   4.912  20.793  0.00  0.00    +0.000 C 
ATOM      8  O   UNL     1       0.821   4.846  20.002  0.00  0.00    +0.000 OA
ATOM      9  C   UNL     1       2.378   5.913  18.350  0.00  0.00    +0.000 C 
ATOM     10  C   UNL     1       3.921   5.790  17.932  0.00  0.00    +0.000 C 
ATOM     11  C   UNL     1       4.729   5.915  19.262  0.00  0.00    +0.000 C 
ATOM     12  C   UNL     1       4.221   6.936  16.916  0.00  0.00    +0.000 C 
ATOM     13  C   UNL     1       5.335   6.761  15.877  0.00  0.00    +0.000 C 
ATOM     14  C   UNL     1       5.564   5.337  15.345  0.00  0.00    +0.000 C 
ENDROOT
BRANCH   9  15
ATOM     15  C   UNL     1       2.076   7.282  18.942  0.00  0.00    +0.000 C 
ATOM     16  C   UNL     1       1.473   8.336  18.372  0.00  0.00    +0.000 C 
BRANCH  16  17
ATOM     17  C   UNL     1       1.201   9.555  19.099  0.00  0.00    +0.000 C 
ATOM     18  C   UNL     1       0.461   9.680  20.199  0.00  0.00    +0.000 C 
ATOM     19  C   UNL     1       0.522  11.053  20.733  0.00  0.00    +0.000 C 
ATOM     20  O   UNL     1       1.315  11.768  19.795  0.00  0.00    +0.000 OA
ATOM     21  C   UNL     1       1.717  10.921  18.805  0.00  0.00    +0.000 C 
ATOM     22  O   UNL     1       2.376  11.266  17.840  0.00  0.00    +0.000 OA
ENDBRANCH  16  17
ENDBRANCH   9  15
BRANCH   1  23
ATOM     23  C   UNL     1       6.862   4.629  17.411  0.00  0.00    +0.000 C 
BRANCH  23  24
ATOM     24  O   UNL     1       7.490   5.905  17.135  0.00  0.00    +0.000 OA
BRANCH  24  26
ATOM     25  C   UNL     1       7.944   8.109  17.788  0.00  0.00    +0.000 C 
ATOM     26  C   UNL     1       7.902   6.665  18.173  0.00  0.00    +0.000 C 
ATOM     27  O   UNL     1       8.193   6.245  19.281  0.00  0.00    +0.000 OA
ENDBRANCH  24  26
ENDBRANCH  23  24
ENDBRANCH   1  23
BRANCH  14  28
ATOM     28  O   UNL     1       6.806   5.300  14.600  0.00  0.00    +0.000 OA
BRANCH  28  29
ATOM     29  C   UNL     1       6.804   4.753  13.361  0.00  0.00    +0.000 C 
ATOM     30  C   UNL     1       7.852   5.403  12.503  0.00  0.00    +0.000 C 
ATOM     31  O   UNL     1       6.061   3.861  12.982  0.00  0.00    +0.000 OA
ENDBRANCH  28  29
ENDBRANCH  14  28
TORSDOF 7
ENDMDL
MODEL 2
REMARK VINA RESULT:      -7.7      0.833      1.115
REMARK  Name = 
REMARK  11 active torsions:
REMARK  status: ('A' for Active; 'I' for Inactive)
REMARK    1  A    between atoms: C_1  and  C_2
REMARK    2  A    between atoms: C_2  and  O_4
REMARK    3  A    between atoms: O_4  and  C_5
REMARK    4  A    between atoms: C_5  and  C_6
REMARK    5  A    between atoms: C_6  and  C_7
REMARK    6  A    between atoms: C_14  and  C_15
REMARK    7  A    between atoms: C_16  and  C_17
REMARK    8  A    between atoms: C_23  and  C_24
REMARK    9  A    between atoms: C_27  and  O_28
REMARK   10  A    between atoms: O_28  and  C_29
REMARK   11  A    between atoms: C_29  and  C_30
REMARK                            x       y       z     vdW  Elec       q    Type
REMARK                         _______ _______ _______ _____ _____    ______ ____
ROOT
ATOM      1  C   UNL     1       5.648   4.255  16.488  0.00  0.00    +0.000 C 
ATOM      2  C   UNL     1       5.965   2.878  15.863  0.00  0.00    +0.000 C 
ATOM      3  C   UNL     1       4.195   4.233  17.179  0.00  0.00    +0.000 C 
ATOM      4  C   UNL     1       3.814   2.974  17.999  0.00  0.00    +0.000 C 
ATOM      5  C   UNL     1       2.379   3.012  18.569  0.00  0.00    +0.000 C 
ATOM      6  C   UNL     1       2.043   4.325  19.216  0.00  0.00    +0.000 C 
ATOM      7  C   UNL     1       1.971   4.420  20.737  0.00  0.00    +0.000 C 
ATOM      8  O   UNL     1       0.794   4.316  19.929  0.00  0.00    +0.000 OA
ATOM      9  C   UNL     1       2.295   5.558  18.349  0.00  0.00    +0.000 C 
ATOM     10  C   UNL     1       3.846   5.555  17.945  0.00  0.00    +0.000 C 
ATOM     11  C   UNL     1       4.631   5.667  19.289  0.00  0.00    +0.000 C 
ATOM     12  C   UNL     1       4.081   6.765  16.988  0.00  0.00    +0.000 C 
ATOM     13  C   UNL     1       5.214   6.711  15.956  0.00  0.00    +0.000 C 
ATOM     14  C   UNL     1       5.539   5.332  15.361  0.00  0.00    +0.000 C 
ENDROOT
BRANCH   9  15
ATOM     15  C   UNL     1       1.899   6.875  19.001  0.00  0.00    +0.000 C 
ATOM     16  C   UNL     1       1.889   8.110  18.477  0.00  0.00    +0.000 C 
BRANCH  16  17
ATOM     17  C   UNL     1       1.419   9.259  19.217  0.00  0.00    +0.000 C 
ATOM     18  C   UNL     1       1.148  10.468  18.729  0.00  0.00    +0.000 C 
ATOM     19  C   UNL     1       0.563  11.344  19.759  0.00  0.00    +0.000 C 
ATOM     20  O   UNL     1       0.581  10.563  20.947  0.00  0.00    +0.000 OA
ATOM     21  C   UNL     1       1.099   9.332  20.670  0.00  0.00    +0.000 C 
ATOM     22  O   UNL     1       1.276   8.464  21.506  0.00  0.00    +0.000 OA
ENDBRANCH  16  17
ENDBRANCH   9  15
BRANCH   1  23
ATOM     23  C   UNL     1       6.861   4.611  17.406  0.00  0.00    +0.000 C 
BRANCH  23  24
ATOM     24  O   UNL     1       7.476   5.892  17.126  0.00  0.00    +0.000 OA
BRANCH  24  26
ATOM     25  C   UNL     1       7.938   8.101  17.759  0.00  0.00    +0.000 C 
ATOM     26  C   UNL     1       7.877   6.662  18.162  0.00  0.00    +0.000 C 
ATOM     27  O   UNL     1       8.145   6.253  19.279  0.00  0.00    +0.000 OA
ENDBRANCH  24  26
ENDBRANCH  23  24
ENDBRANCH   1  23
BRANCH  14  28
ATOM     28  O   UNL     1       6.788   5.410  14.630  0.00  0.00    +0.000 OA
BRANCH  28  29
ATOM     29  C   UNL     1       6.852   4.862  13.393  0.00  0.00    +0.000 C 
ATOM     30  C   UNL     1       7.965   5.489  12.603  0.00  0.00    +0.000 C 
ATOM     31  O   UNL     1       6.117   3.984  12.969  0.00  0.00    +0.000 OA
ENDBRANCH  28  29
ENDBRANCH  14  28
TORSDOF 7
ENDMDL
MODEL 3
REMARK VINA RESULT:      -7.5      2.222      8.216
REMARK  Name = 
REMARK  11 active torsions:
REMARK  status: ('A' for Active; 'I' for Inactive)
REMARK    1  A    between atoms: C_1  and  C_2
REMARK    2  A    between atoms: C_2  and  O_4
REMARK    3  A    between atoms: O_4  and  C_5
REMARK    4  A    between atoms: C_5  and  C_6
REMARK    5  A    between atoms: C_6  and  C_7
REMARK    6  A    between atoms: C_14  and  C_15
REMARK    7  A    between atoms: C_16  and  C_17
REMARK    8  A    between atoms: C_23  and  C_24
REMARK    9  A    between atoms: C_27  and  O_28
REMARK   10  A    between atoms: O_28  and  C_29
REMARK   11  A    between atoms: C_29  and  C_30
REMARK                            x       y       z     vdW  Elec       q    Type
REMARK                         _______ _______ _______ _____ _____    ______ ____
ROOT
ATOM      1  C   UNL     1       0.422  10.058  19.437  0.00  0.00    +0.000 C 
ATOM      2  C   UNL     1      -0.372  10.531  20.674  0.00  0.00    +0.000 C 
ATOM      3  C   UNL     1       1.311   8.768  19.804  0.00  0.00    +0.000 C 
ATOM      4  C   UNL     1       0.654   7.677  20.689  0.00  0.00    +0.000 C 
ATOM      5  C   UNL     1       1.600   6.509  21.045  0.00  0.00    +0.000 C 
ATOM      6  C   UNL     1       2.367   5.998  19.859  0.00  0.00    +0.000 C 
ATOM      7  C   UNL     1       1.984   4.661  19.232  0.00  0.00    +0.000 C 
ATOM      8  O   UNL     1       3.097   4.787  20.122  0.00  0.00    +0.000 OA
ATOM      9  C   UNL     1       3.125   7.063  19.069  0.00  0.00    +0.000 C 
ATOM     10  C   UNL     1       2.055   8.148  18.572  0.00  0.00    +0.000 C 
ATOM     11  C   UNL     1       1.074   7.373  17.636  0.00  0.00    +0.000 C 
ATOM     12  C   UNL     1       2.842   9.280  17.842  0.00  0.00    +0.000 C 
ATOM     13  C   UNL     1       2.270  10.702  17.801  0.00  0.00    +0.000 C 
ATOM     14  C   UNL     1       1.459  11.154  19.026  0.00  0.00    +0.000 C 
ENDROOT
BRANCH   9  15
ATOM     15  C   UNL     1       3.939   6.520  17.903  0.00  0.00    +0.000 C 
ATOM     16  C   UNL     1       5.211   6.092  17.885  0.00  0.00    +0.000 C 
BRANCH  16  17
ATOM     17  C   UNL     1       5.821   5.539  16.697  0.00  0.00    +0.000 C 
ATOM     18  C   UNL     1       5.327   5.565  15.460  0.00  0.00    +0.000 C 
ATOM     19  C   UNL     1       6.292   5.022  14.487  0.00  0.00    +0.000 C 
ATOM     20  O   UNL     1       7.393   4.590  15.275  0.00  0.00    +0.000 OA
ATOM     21  C   UNL     1       7.143   4.861  16.588  0.00  0.00    +0.000 C 
ATOM     22  O   UNL     1       7.893   4.563  17.500  0.00  0.00    +0.000 OA
ENDBRANCH  16  17
ENDBRANCH   9  15
BRANCH   1  23
ATOM     23  C   UNL     1      -0.618   9.893  18.283  0.00  0.00    +0.000 C 
BRANCH  23  24
ATOM     24  O   UNL     1      -1.960  10.326  18.612  0.00  0.00    +0.000 OA
BRANCH  24  26
ATOM     25  C   UNL     1      -2.336   9.901  16.338  0.00  0.00    +0.000 C 
ATOM     26  C   UNL     1      -2.927  10.217  17.674  0.00  0.00    +0.000 C 
ATOM     27  O   UNL     1      -4.123  10.344  17.879  0.00  0.00    +0.000 OA
ENDBRANCH  24  26
ENDBRANCH  23  24
ENDBRANCH   1  23
BRANCH  14  28
ATOM     28  O   UNL     1       0.772  12.390  18.713  0.00  0.00    +0.000 OA
BRANCH  28  29
ATOM     29  C   UNL     1       1.282  13.553  19.184  0.00  0.00    +0.000 C 
ATOM     30  C   UNL     1       2.151  13.295  20.381  0.00  0.00    +0.000 C 
ATOM     31  O   UNL     1       1.073  14.660  18.712  0.00  0.00    +0.000 OA
ENDBRANCH  28  29
ENDBRANCH  14  28
TORSDOF 7
ENDMDL
MODEL 4
REMARK VINA RESULT:      -7.4      1.222      1.485
REMARK  Name = 
REMARK  11 active torsions:
REMARK  status: ('A' for Active; 'I' for Inactive)
REMARK    1  A    between atoms: C_1  and  C_2
REMARK    2  A    between atoms: C_2  and  O_4
REMARK    3  A    between atoms: O_4  and  C_5
REMARK    4  A    between atoms: C_5  and  C_6
REMARK    5  A    between atoms: C_6  and  C_7
REMARK    6  A    between atoms: C_14  and  C_15
REMARK    7  A    between atoms: C_16  and  C_17
REMARK    8  A    between atoms: C_23  and  C_24
REMARK    9  A    between atoms: C_27  and  O_28
REMARK   10  A    between atoms: O_28  and  C_29
REMARK   11  A    between atoms: C_29  and  C_30
REMARK                            x       y       z     vdW  Elec       q    Type
REMARK                         _______ _______ _______ _____ _____    ______ ____
ROOT
ATOM      1  C   UNL     1       5.779   4.539  16.393  0.00  0.00    +0.000 C 
ATOM      2  C   UNL     1       6.082   3.049  16.127  0.00  0.00    +0.000 C 
ATOM      3  C   UNL     1       4.365   4.698  17.145  0.00  0.00    +0.000 C 
ATOM      4  C   UNL     1       4.046   3.692  18.282  0.00  0.00    +0.000 C 
ATOM      5  C   UNL     1       2.643   3.877  18.901  0.00  0.00    +0.000 C 
ATOM      6  C   UNL     1       2.325   5.312  19.206  0.00  0.00    +0.000 C 
ATOM      7  C   UNL     1       2.332   5.796  20.653  0.00  0.00    +0.000 C 
ATOM      8  O   UNL     1       1.116   5.488  19.965  0.00  0.00    +0.000 OA
ATOM      9  C   UNL     1       2.512   6.280  18.039  0.00  0.00    +0.000 C 
ATOM     10  C   UNL     1       4.040   6.172  17.564  0.00  0.00    +0.000 C 
ATOM     11  C   UNL     1       4.894   6.626  18.789  0.00  0.00    +0.000 C 
ATOM     12  C   UNL     1       4.207   7.094  16.316  0.00  0.00    +0.000 C 
ATOM     13  C   UNL     1       5.284   6.777  15.272  0.00  0.00    +0.000 C 
ATOM     14  C   UNL     1       5.595   5.290  15.035  0.00  0.00    +0.000 C 
ENDROOT
BRANCH   9  15
ATOM     15  C   UNL     1       2.134   7.721  18.351  0.00  0.00    +0.000 C 
ATOM     16  C   UNL     1       1.229   8.508  17.749  0.00  0.00    +0.000 C 
BRANCH  16  17
ATOM     17  C   UNL     1       0.941   9.846  18.214  0.00  0.00    +0.000 C 
ATOM     18  C   UNL     1       1.826  10.802  18.492  0.00  0.00    +0.000 C 
ATOM     19  C   UNL     1       1.156  12.076  18.809  0.00  0.00    +0.000 C 
ATOM     20  O   UNL     1      -0.232  11.771  18.771  0.00  0.00    +0.000 OA
ATOM     21  C   UNL     1      -0.397  10.459  18.443  0.00  0.00    +0.000 C 
ATOM     22  O   UNL     1      -1.480   9.904  18.376  0.00  0.00    +0.000 OA
ENDBRANCH  16  17
ENDBRANCH   9  15
BRANCH   1  23
ATOM     23  C   UNL     1       7.034   5.120  17.121  0.00  0.00    +0.000 C 
BRANCH  23  24
ATOM     24  O   UNL     1       7.233   4.628  18.469  0.00  0.00    +0.000 OA
BRANCH  24  26
ATOM     25  C   UNL     1       8.189   6.748  18.761  0.00  0.00    +0.000 C 
ATOM     26  C   UNL     1       7.788   5.450  19.386  0.00  0.00    +0.000 C 
ATOM     27  O   UNL     1       7.938   5.187  20.568  0.00  0.00    +0.000 OA
ENDBRANCH  24  26
ENDBRANCH  23  24
ENDBRANCH   1  23
BRANCH  14  28
ATOM     28  O   UNL     1       6.802   5.177  14.241  0.00  0.00    +0.000 OA
BRANCH  28  29
ATOM     29  C   UNL     1       6.722   4.609  13.014  0.00  0.00    +0.000 C 
ATOM     30  C   UNL     1       5.457   3.807  12.893  0.00  0.00    +0.000 C 
ATOM     31  O   UNL     1       7.551   4.723  12.125  0.00  0.00    +0.000 OA
ENDBRANCH  28  29
ENDBRANCH  14  28
TORSDOF 7
ENDMDL
MODEL 5
REMARK VINA RESULT:      -7.3      0.905      1.021
REMARK  Name = 
REMARK  11 active torsions:
REMARK  status: ('A' for Active; 'I' for Inactive)
REMARK    1  A    between atoms: C_1  and  C_2
REMARK    2  A    between atoms: C_2  and  O_4
REMARK    3  A    between atoms: O_4  and  C_5
REMARK    4  A    between atoms: C_5  and  C_6
REMARK    5  A    between atoms: C_6  and  C_7
REMARK    6  A    between atoms: C_14  and  C_15
REMARK    7  A    between atoms: C_16  and  C_17
REMARK    8  A    between atoms: C_23  and  C_24
REMARK    9  A    between atoms: C_27  and  O_28
REMARK   10  A    between atoms: O_28  and  C_29
REMARK   11  A    between atoms: C_29  and  C_30
REMARK                            x       y       z     vdW  Elec       q    Type
REMARK                         _______ _______ _______ _____ _____    ______ ____
ROOT
ATOM      1  C   UNL     1       5.708   4.333  16.522  0.00  0.00    +0.000 C 
ATOM      2  C   UNL     1       6.045   2.941  15.943  0.00  0.00    +0.000 C 
ATOM      3  C   UNL     1       4.231   4.329  17.162  0.00  0.00    +0.000 C 
ATOM      4  C   UNL     1       3.821   3.090  17.999  0.00  0.00    +0.000 C 
ATOM      5  C   UNL     1       2.366   3.143  18.518  0.00  0.00    +0.000 C 
ATOM      6  C   UNL     1       2.010   4.472  19.120  0.00  0.00    +0.000 C 
ATOM      7  C   UNL     1       1.884   4.605  20.635  0.00  0.00    +0.000 C 
ATOM      8  O   UNL     1       0.737   4.480  19.789  0.00  0.00    +0.000 OA
ATOM      9  C   UNL     1       2.292   5.683  18.232  0.00  0.00    +0.000 C 
ATOM     10  C   UNL     1       3.857   5.669  17.882  0.00  0.00    +0.000 C 
ATOM     11  C   UNL     1       4.595   5.815  19.250  0.00  0.00    +0.000 C 
ATOM     12  C   UNL     1       4.126   6.855  16.904  0.00  0.00    +0.000 C 
ATOM     13  C   UNL     1       5.295   6.776  15.914  0.00  0.00    +0.000 C 
ATOM     14  C   UNL     1       5.639   5.382  15.365  0.00  0.00    +0.000 C 
ENDROOT
BRANCH   9  15
ATOM     15  C   UNL     1       1.876   7.016  18.836  0.00  0.00    +0.000 C 
ATOM     16  C   UNL     1       1.387   8.107  18.226  0.00  0.00    +0.000 C 
BRANCH  16  17
ATOM     17  C   UNL     1       0.975   9.281  18.961  0.00  0.00    +0.000 C 
ATOM     18  C   UNL     1       1.496   9.733  20.101  0.00  0.00    +0.000 C 
ATOM     19  C   UNL     1       0.908  11.031  20.481  0.00  0.00    +0.000 C 
ATOM     20  O   UNL     1      -0.081  11.280  19.491  0.00  0.00    +0.000 OA
ATOM     21  C   UNL     1      -0.085  10.259  18.589  0.00  0.00    +0.000 C 
ATOM     22  O   UNL     1      -0.859  10.181  17.651  0.00  0.00    +0.000 OA
ENDBRANCH  16  17
ENDBRANCH   9  15
BRANCH   1  23
ATOM     23  C   UNL     1       6.888   4.712  17.473  0.00  0.00    +0.000 C 
BRANCH  23  24
ATOM     24  O   UNL     1       7.458   6.022  17.237  0.00  0.00    +0.000 OA
BRANCH  24  26
ATOM     25  C   UNL     1       8.086   5.839  19.487  0.00  0.00    +0.000 C 
ATOM     26  C   UNL     1       7.943   6.720  18.288  0.00  0.00    +0.000 C 
ATOM     27  O   UNL     1       8.237   7.904  18.271  0.00  0.00    +0.000 OA
ENDBRANCH  24  26
ENDBRANCH  23  24
ENDBRANCH   1  23
BRANCH  14  28
ATOM     28  O   UNL     1       6.913   5.442  14.677  0.00  0.00    +0.000 OA
BRANCH  28  29
ATOM     29  C   UNL     1       7.002   4.924  13.429  0.00  0.00    +0.000 C 
ATOM     30  C   UNL     1       8.089   5.613  12.655  0.00  0.00    +0.000 C 
ATOM     31  O   UNL     1       6.304   4.026  12.983  0.00  0.00    +0.000 OA
ENDBRANCH  28  29
ENDBRANCH  14  28
TORSDOF 7
ENDMDL
MODEL 6
REMARK VINA RESULT:      -7.3      7.053     10.500
REMARK  Name = 
REMARK  11 active torsions:
REMARK  status: ('A' for Active; 'I' for Inactive)
REMARK    1  A    between atoms: C_1  and  C_2
REMARK    2  A    between atoms: C_2  and  O_4
REMARK    3  A    between atoms: O_4  and  C_5
REMARK    4  A    between atoms: C_5  and  C_6
REMARK    5  A    between atoms: C_6  and  C_7
REMARK    6  A    between atoms: C_14  and  C_15
REMARK    7  A    between atoms: C_16  and  C_17
REMARK    8  A    between atoms: C_23  and  C_24
REMARK    9  A    between atoms: C_27  and  O_28
REMARK   10  A    between atoms: O_28  and  C_29
REMARK   11  A    between atoms: C_29  and  C_30
REMARK                            x       y       z     vdW  Elec       q    Type
REMARK                         _______ _______ _______ _____ _____    ______ ____
ROOT
ATOM      1  C   UNL     1      -0.127  13.363  20.033  0.00  0.00    +0.000 C 
ATOM      2  C   UNL     1      -1.571  13.899  20.137  0.00  0.00    +0.000 C 
ATOM      3  C   UNL     1       0.875  14.540  19.586  0.00  0.00    +0.000 C 
ATOM      4  C   UNL     1       0.677  15.932  20.240  0.00  0.00    +0.000 C 
ATOM      5  C   UNL     1       1.639  17.015  19.703  0.00  0.00    +0.000 C 
ATOM      6  C   UNL     1       3.062  16.541  19.619  0.00  0.00    +0.000 C 
ATOM      7  C   UNL     1       4.084  17.039  20.637  0.00  0.00    +0.000 C 
ATOM      8  O   UNL     1       4.002  17.587  19.318  0.00  0.00    +0.000 OA
ATOM      9  C   UNL     1       3.267  15.235  18.854  0.00  0.00    +0.000 C 
ATOM     10  C   UNL     1       2.382  14.110  19.577  0.00  0.00    +0.000 C 
ATOM     11  C   UNL     1       2.956  13.988  21.023  0.00  0.00    +0.000 C 
ATOM     12  C   UNL     1       2.523  12.799  18.742  0.00  0.00    +0.000 C 
ATOM     13  C   UNL     1       1.394  11.762  18.756  0.00  0.00    +0.000 C 
ATOM     14  C   UNL     1      -0.038  12.305  18.886  0.00  0.00    +0.000 C 
ENDROOT
BRANCH   9  15
ATOM     15  C   UNL     1       4.720  14.798  18.734  0.00  0.00    +0.000 C 
ATOM     16  C   UNL     1       5.537  14.859  17.672  0.00  0.00    +0.000 C 
BRANCH  16  17
ATOM     17  C   UNL     1       6.924  14.459  17.742  0.00  0.00    +0.000 C 
ATOM     18  C   UNL     1       7.415  13.240  17.525  0.00  0.00    +0.000 C 
ATOM     19  C   UNL     1       8.889  13.242  17.555  0.00  0.00    +0.000 C 
ATOM     20  O   UNL     1       9.238  14.578  17.892  0.00  0.00    +0.000 OA
ATOM     21  C   UNL     1       8.104  15.321  18.031  0.00  0.00    +0.000 C 
ATOM     22  O   UNL     1       8.093  16.494  18.358  0.00  0.00    +0.000 OA
ENDBRANCH  16  17
ENDBRANCH   9  15
BRANCH   1  23
ATOM     23  C   UNL     1       0.178  12.655  21.392  0.00  0.00    +0.000 C 
BRANCH  23  24
ATOM     24  O   UNL     1      -0.850  12.811  22.400  0.00  0.00    +0.000 OA
BRANCH  24  26
ATOM     25  C   UNL     1      -0.546  10.512  22.733  0.00  0.00    +0.000 C 
ATOM     26  C   UNL     1      -1.428  11.705  22.918  0.00  0.00    +0.000 C 
ATOM     27  O   UNL     1      -2.514  11.672  23.471  0.00  0.00    +0.000 OA
ENDBRANCH  24  26
ENDBRANCH  23  24
ENDBRANCH   1  23
BRANCH  14  28
ATOM     28  O   UNL     1      -0.942  11.206  19.157  0.00  0.00    +0.000 OA
BRANCH  28  29
ATOM     29  C   UNL     1      -1.641  10.670  18.128  0.00  0.00    +0.000 C 
ATOM     30  C   UNL     1      -3.018  11.269  18.065  0.00  0.00    +0.000 C 
ATOM     31  O   UNL     1      -1.224   9.821  17.355  0.00  0.00    +0.000 OA
ENDBRANCH  28  29
ENDBRANCH  14  28
TORSDOF 7
ENDMDL
MODEL 7
REMARK VINA RESULT:      -7.1      7.668     12.758
REMARK  Name = 
REMARK  11 active torsions:
REMARK  status: ('A' for Active; 'I' for Inactive)
REMARK    1  A    between atoms: C_1  and  C_2
REMARK    2  A    between atoms: C_2  and  O_4
REMARK    3  A    between atoms: O_4  and  C_5
REMARK    4  A    between atoms: C_5  and  C_6
REMARK    5  A    between atoms: C_6  and  C_7
REMARK    6  A    between atoms: C_14  and  C_15
REMARK    7  A    between atoms: C_16  and  C_17
REMARK    8  A    between atoms: C_23  and  C_24
REMARK    9  A    between atoms: C_27  and  O_28
REMARK   10  A    between atoms: O_28  and  C_29
REMARK   11  A    between atoms: C_29  and  C_30
REMARK                            x       y       z     vdW  Elec       q    Type
REMARK                         _______ _______ _______ _____ _____    ______ ____
ROOT
ATOM      1  C   UNL     1      -4.076  13.334  23.312  0.00  0.00    +0.000 C 
ATOM      2  C   UNL     1      -4.675  12.542  24.494  0.00  0.00    +0.000 C 
ATOM      3  C   UNL     1      -2.556  12.877  23.047  0.00  0.00    +0.000 C 
ATOM      4  C   UNL     1      -2.244  11.360  23.119  0.00  0.00    +0.000 C 
ATOM      5  C   UNL     1      -0.751  11.020  22.918  0.00  0.00    +0.000 C 
ATOM      6  C   UNL     1      -0.139  11.746  21.754  0.00  0.00    +0.000 C 
ATOM      7  C   UNL     1       0.167  10.986  20.468  0.00  0.00    +0.000 C 
ATOM      8  O   UNL     1       1.186  11.295  21.424  0.00  0.00    +0.000 OA
ATOM      9  C   UNL     1      -0.335  13.261  21.761  0.00  0.00    +0.000 C 
ATOM     10  C   UNL     1      -1.912  13.544  21.784  0.00  0.00    +0.000 C 
ATOM     11  C   UNL     1      -2.469  12.930  20.461  0.00  0.00    +0.000 C 
ATOM     12  C   UNL     1      -2.108  15.089  21.880  0.00  0.00    +0.000 C 
ATOM     13  C   UNL     1      -3.375  15.658  22.529  0.00  0.00    +0.000 C 
ATOM     14  C   UNL     1      -3.979  14.848  23.687  0.00  0.00    +0.000 C 
ENDROOT
BRANCH   9  15
ATOM     15  C   UNL     1       0.337  13.986  20.603  0.00  0.00    +0.000 C 
ATOM     16  C   UNL     1       1.524  14.611  20.569  0.00  0.00    +0.000 C 
BRANCH  16  17
ATOM     17  C   UNL     1       2.051  15.200  19.359  0.00  0.00    +0.000 C 
ATOM     18  C   UNL     1       1.910  16.462  18.958  0.00  0.00    +0.000 C 
ATOM     19  C   UNL     1       2.699  16.730  17.742  0.00  0.00    +0.000 C 
ATOM     20  O   UNL     1       3.271  15.474  17.402  0.00  0.00    +0.000 OA
ATOM     21  C   UNL     1       2.894  14.541  18.322  0.00  0.00    +0.000 C 
ATOM     22  O   UNL     1       3.200  13.364  18.264  0.00  0.00    +0.000 OA
ENDBRANCH  16  17
ENDBRANCH   9  15
BRANCH   1  23
ATOM     23  C   UNL     1      -5.077  13.175  22.123  0.00  0.00    +0.000 C 
BRANCH  23  24
ATOM     24  O   UNL     1      -6.127  12.201  22.342  0.00  0.00    +0.000 OA
BRANCH  24  26
ATOM     25  C   UNL     1      -6.481  12.485  20.043  0.00  0.00    +0.000 C 
ATOM     26  C   UNL     1      -6.765  11.680  21.271  0.00  0.00    +0.000 C 
ATOM     27  O   UNL     1      -7.469  10.684  21.287  0.00  0.00    +0.000 OA
ENDBRANCH  24  26
ENDBRANCH  23  24
ENDBRANCH   1  23
BRANCH  14  28
ATOM     28  O   UNL     1      -5.296  15.366  23.995  0.00  0.00    +0.000 OA
BRANCH  28  29
ATOM     29  C   UNL     1      -5.407  16.645  24.427  0.00  0.00    +0.000 C 
ATOM     30  C   UNL     1      -6.453  17.374  23.632  0.00  0.00    +0.000 C 
ATOM     31  O   UNL     1      -4.756  17.147  25.330  0.00  0.00    +0.000 OA
ENDBRANCH  28  29
ENDBRANCH  14  28
TORSDOF 7
ENDMDL
MODEL 8
REMARK VINA RESULT:      -6.9      8.005     12.993
REMARK  Name = 
REMARK  11 active torsions:
REMARK  status: ('A' for Active; 'I' for Inactive)
REMARK    1  A    between atoms: C_1  and  C_2
REMARK    2  A    between atoms: C_2  and  O_4
REMARK    3  A    between atoms: O_4  and  C_5
REMARK    4  A    between atoms: C_5  and  C_6
REMARK    5  A    between atoms: C_6  and  C_7
REMARK    6  A    between atoms: C_14  and  C_15
REMARK    7  A    between atoms: C_16  and  C_17
REMARK    8  A    between atoms: C_23  and  C_24
REMARK    9  A    between atoms: C_27  and  O_28
REMARK   10  A    between atoms: O_28  and  C_29
REMARK   11  A    between atoms: C_29  and  C_30
REMARK                            x       y       z     vdW  Elec       q    Type
REMARK                         _______ _______ _______ _____ _____    ______ ____
ROOT
ATOM      1  C   UNL     1      -4.048  13.550  23.300  0.00  0.00    +0.000 C 
ATOM      2  C   UNL     1      -4.701  12.687  24.401  0.00  0.00    +0.000 C 
ATOM      3  C   UNL     1      -2.529  13.081  23.050  0.00  0.00    +0.000 C 
ATOM      4  C   UNL     1      -2.250  11.556  23.019  0.00  0.00    +0.000 C 
ATOM      5  C   UNL     1      -0.758  11.198  22.840  0.00  0.00    +0.000 C 
ATOM      6  C   UNL     1      -0.094  11.995  21.753  0.00  0.00    +0.000 C 
ATOM      7  C   UNL     1       0.240  11.325  20.424  0.00  0.00    +0.000 C 
ATOM      8  O   UNL     1       1.232  11.540  21.432  0.00  0.00    +0.000 OA
ATOM      9  C   UNL     1      -0.259  13.509  21.866  0.00  0.00    +0.000 C 
ATOM     10  C   UNL     1      -1.831  13.824  21.860  0.00  0.00    +0.000 C 
ATOM     11  C   UNL     1      -2.356  13.322  20.478  0.00  0.00    +0.000 C 
ATOM     12  C   UNL     1      -1.999  15.362  22.064  0.00  0.00    +0.000 C 
ATOM     13  C   UNL     1      -3.276  15.909  22.713  0.00  0.00    +0.000 C 
ATOM     14  C   UNL     1      -3.933  15.030  23.789  0.00  0.00    +0.000 C 
ENDROOT
BRANCH   9  15
ATOM     15  C   UNL     1       0.464  14.302  20.787  0.00  0.00    +0.000 C 
ATOM     16  C   UNL     1       1.481  15.168  20.910  0.00  0.00    +0.000 C 
BRANCH  16  17
ATOM     17  C   UNL     1       2.105  15.794  19.767  0.00  0.00    +0.000 C 
ATOM     18  C   UNL     1       2.540  15.188  18.663  0.00  0.00    +0.000 C 
ATOM     19  C   UNL     1       2.994  16.165  17.658  0.00  0.00    +0.000 C 
ATOM     20  O   UNL     1       2.862  17.427  18.300  0.00  0.00    +0.000 OA
ATOM     21  C   UNL     1       2.359  17.246  19.554  0.00  0.00    +0.000 C 
ATOM     22  O   UNL     1       2.179  18.148  20.352  0.00  0.00    +0.000 OA
ENDBRANCH  16  17
ENDBRANCH   9  15
BRANCH   1  23
ATOM     23  C   UNL     1      -5.012  13.502  22.072  0.00  0.00    +0.000 C 
BRANCH  23  24
ATOM     24  O   UNL     1      -5.472  12.175  21.716  0.00  0.00    +0.000 OA
BRANCH  24  26
ATOM     25  C   UNL     1      -7.412  13.319  21.068  0.00  0.00    +0.000 C 
ATOM     26  C   UNL     1      -6.769  12.005  21.376  0.00  0.00    +0.000 C 
ATOM     27  O   UNL     1      -7.345  10.931  21.315  0.00  0.00    +0.000 OA
ENDBRANCH  24  26
ENDBRANCH  23  24
ENDBRANCH   1  23
BRANCH  14  28
ATOM     28  O   UNL     1      -5.249  15.553  24.093  0.00  0.00    +0.000 OA
BRANCH  28  29
ATOM     29  C   UNL     1      -5.357  16.833  24.525  0.00  0.00    +0.000 C 
ATOM     30  C   UNL     1      -6.378  17.573  23.709  0.00  0.00    +0.000 C 
ATOM     31  O   UNL     1      -4.720  17.326  25.442  0.00  0.00    +0.000 OA
ENDBRANCH  28  29
ENDBRANCH  14  28
TORSDOF 7
ENDMDL
MODEL 9
REMARK VINA RESULT:      -6.8      7.207     11.024
REMARK  Name = 
REMARK  11 active torsions:
REMARK  status: ('A' for Active; 'I' for Inactive)
REMARK    1  A    between atoms: C_1  and  C_2
REMARK    2  A    between atoms: C_2  and  O_4
REMARK    3  A    between atoms: O_4  and  C_5
REMARK    4  A    between atoms: C_5  and  C_6
REMARK    5  A    between atoms: C_6  and  C_7
REMARK    6  A    between atoms: C_14  and  C_15
REMARK    7  A    between atoms: C_16  and  C_17
REMARK    8  A    between atoms: C_23  and  C_24
REMARK    9  A    between atoms: C_27  and  O_28
REMARK   10  A    between atoms: O_28  and  C_29
REMARK   11  A    between atoms: C_29  and  C_30
REMARK                            x       y       z     vdW  Elec       q    Type
REMARK                         _______ _______ _______ _____ _____    ______ ____
ROOT
ATOM      1  C   UNL     1      -0.902  13.146  20.802  0.00  0.00    +0.000 C 
ATOM      2  C   UNL     1      -2.439  13.140  20.659  0.00  0.00    +0.000 C 
ATOM      3  C   UNL     1      -0.252  14.231  19.806  0.00  0.00    +0.000 C 
ATOM      4  C   UNL     1      -0.962  15.605  19.688  0.00  0.00    +0.000 C 
ATOM      5  C   UNL     1      -0.308  16.557  18.662  0.00  0.00    +0.000 C 
ATOM      6  C   UNL     1       1.187  16.616  18.792  0.00  0.00    +0.000 C 
ATOM      7  C   UNL     1       1.843  17.850  19.405  0.00  0.00    +0.000 C 
ATOM      8  O   UNL     1       1.796  17.643  17.990  0.00  0.00    +0.000 OA
ATOM      9  C   UNL     1       1.894  15.262  18.771  0.00  0.00    +0.000 C 
ATOM     10  C   UNL     1       1.298  14.389  19.977  0.00  0.00    +0.000 C 
ATOM     11  C   UNL     1       1.658  15.170  21.280  0.00  0.00    +0.000 C 
ATOM     12  C   UNL     1       1.956  12.977  19.900  0.00  0.00    +0.000 C 
ATOM     13  C   UNL     1       1.209  11.757  20.452  0.00  0.00    +0.000 C 
ATOM     14  C   UNL     1      -0.323  11.773  20.329  0.00  0.00    +0.000 C 
ENDROOT
BRANCH   9  15
ATOM     15  C   UNL     1       3.411  15.344  18.850  0.00  0.00    +0.000 C 
ATOM     16  C   UNL     1       4.316  15.270  17.861  0.00  0.00    +0.000 C 
BRANCH  16  17
ATOM     17  C   UNL     1       5.732  15.433  18.098  0.00  0.00    +0.000 C 
ATOM     18  C   UNL     1       6.691  14.544  17.846  0.00  0.00    +0.000 C 
ATOM     19  C   UNL     1       8.028  15.114  18.093  0.00  0.00    +0.000 C 
ATOM     20  O   UNL     1       7.775  16.418  18.598  0.00  0.00    +0.000 OA
ATOM     21  C   UNL     1       6.429  16.635  18.635  0.00  0.00    +0.000 C 
ATOM     22  O   UNL     1       5.915  17.653  19.063  0.00  0.00    +0.000 OA
ENDBRANCH  16  17
ENDBRANCH   9  15
BRANCH   1  23
ATOM     23  C   UNL     1      -0.602  13.318  22.325  0.00  0.00    +0.000 C 
BRANCH  23  24
ATOM     24  O   UNL     1      -1.674  13.924  23.088  0.00  0.00    +0.000 OA
BRANCH  24  26
ATOM     25  C   UNL     1      -2.017  16.241  23.177  0.00  0.00    +0.000 C 
ATOM     26  C   UNL     1      -1.410  15.032  23.815  0.00  0.00    +0.000 C 
ATOM     27  O   UNL     1      -0.774  15.056  24.856  0.00  0.00    +0.000 OA
ENDBRANCH  24  26
ENDBRANCH  23  24
ENDBRANCH   1  23
BRANCH  14  28
ATOM     28  O   UNL     1      -0.878  10.702  21.130  0.00  0.00    +0.000 OA
BRANCH  28  29
ATOM     29  C   UNL     1      -0.072   9.671  21.483  0.00  0.00    +0.000 C 
ATOM     30  C   UNL     1       0.026   9.575  22.979  0.00  0.00    +0.000 C 
ATOM     31  O   UNL     1       0.498   8.920  20.707  0.00  0.00    +0.000 OA
ENDBRANCH  28  29
ENDBRANCH  14  28
TORSDOF 7
ENDMDL
