MODEL 1
REMARK VINA RESULT:      -6.7      0.000      0.000
REMARK  Name = 
REMARK  6 active torsions:
REMARK  status: ('A' for Active; 'I' for Inactive)
REMARK    1  A    between atoms: C_1  and  C_2
REMARK    2  A    between atoms: C_2  and  S_3
REMARK    3  A    between atoms: S_3  and  C_4
REMARK    4  A    between atoms: C_6  and  C_7
REMARK    5  A    between atoms: N_10  and  C_11
REMARK    6  A    between atoms: C_17  and  C_18
REMARK                            x       y       z     vdW  Elec       q    Type
REMARK                         _______ _______ _______ _____ _____    ______ ____
ROOT
ATOM      1  C   UNL     1       6.857   5.340  17.210  0.00  0.00    +0.000 C 
ATOM      2  N   UNL     1       7.555   4.871  16.225  0.00  0.00    +0.000 NA
ATOM      3  C   UNL     1       6.613   3.992  15.496  0.00  0.00    +0.000 C 
ATOM      4  C   UNL     1       6.356   4.587  14.123  0.00  0.00    +0.000 C 
ATOM      5  C   UNL     1       5.341   4.025  16.319  0.00  0.00    +0.000 C 
ATOM      6  O   UNL     1       4.307   3.454  16.002  0.00  0.00    +0.000 OA
ATOM      7  N   UNL     1       5.574   4.909  17.345  0.00  0.00    +0.000 N 
ENDROOT
BRANCH   7   8
ATOM      8  C   UNL     1       4.520   5.503  18.086  0.00  0.00    +0.000 A 
ATOM      9  C   UNL     1       3.979   6.713  17.617  0.00  0.00    +0.000 A 
ATOM     10  C   UNL     1       2.933   7.341  18.286  0.00  0.00    +0.000 A 
ATOM     11 CL   UNL     1       2.299   8.821  17.682  0.00  0.00    +0.000 Cl
ATOM     12  C   UNL     1       2.394   6.769  19.429  0.00  0.00    +0.000 A 
ATOM     13  C   UNL     1       2.901   5.559  19.895  0.00  0.00    +0.000 A 
ATOM     14  C   UNL     1       3.968   4.910  19.243  0.00  0.00    +0.000 A 
ATOM     15  C   UNL     1       4.473   3.625  19.840  0.00  0.00    +0.000 C 
ENDBRANCH   7   8
BRANCH   1  16
ATOM     16  S   UNL     1       7.577   6.400  18.387  0.00  0.00    +0.000 S 
BRANCH  16  18
ATOM     17  C   UNL     1       8.381   9.010  18.200  0.00  0.00    +0.000 C 
ATOM     18  C   UNL     1       7.583   7.957  17.451  0.00  0.00    +0.000 C 
ENDBRANCH  16  18
ENDBRANCH   1  16
TORSDOF 3
ENDMDL
MODEL 2
REMARK VINA RESULT:      -6.5      2.957      5.052
REMARK  Name = 
REMARK  6 active torsions:
REMARK  status: ('A' for Active; 'I' for Inactive)
REMARK    1  A    between atoms: C_1  and  C_2
REMARK    2  A    between atoms: C_2  and  S_3
REMARK    3  A    between atoms: S_3  and  C_4
REMARK    4  A    between atoms: C_6  and  C_7
REMARK    5  A    between atoms: N_10  and  C_11
REMARK    6  A    between atoms: C_17  and  C_18
REMARK                            x       y       z     vdW  Elec       q    Type
REMARK                         _______ _______ _______ _____ _____    ______ ____
ROOT
ATOM      1  C   UNL     1       2.941   5.713  18.398  0.00  0.00    +0.000 C 
ATOM      2  N   UNL     1       2.009   5.527  19.277  0.00  0.00    +0.000 NA
ATOM      3  C   UNL     1       2.022   4.067  19.519  0.00  0.00    +0.000 C 
ATOM      4  C   UNL     1       2.464   3.813  20.950  0.00  0.00    +0.000 C 
ATOM      5  C   UNL     1       3.059   3.527  18.556  0.00  0.00    +0.000 C 
ATOM      6  O   UNL     1       3.392   2.351  18.498  0.00  0.00    +0.000 OA
ATOM      7  N   UNL     1       3.598   4.621  17.924  0.00  0.00    +0.000 N 
ENDROOT
BRANCH   7   8
ATOM      8  C   UNL     1       4.848   4.568  17.254  0.00  0.00    +0.000 A 
ATOM      9  C   UNL     1       4.854   4.244  15.886  0.00  0.00    +0.000 A 
ATOM     10  C   UNL     1       6.043   4.191  15.164  0.00  0.00    +0.000 A 
ATOM     11 CL   UNL     1       6.010   3.788  13.493  0.00  0.00    +0.000 Cl
ATOM     12  C   UNL     1       7.249   4.475  15.787  0.00  0.00    +0.000 A 
ATOM     13  C   UNL     1       7.260   4.821  17.135  0.00  0.00    +0.000 A 
ATOM     14  C   UNL     1       6.072   4.869  17.891  0.00  0.00    +0.000 A 
ATOM     15  C   UNL     1       6.186   5.218  19.350  0.00  0.00    +0.000 C 
ENDBRANCH   7   8
BRANCH   1  16
ATOM     16  S   UNL     1       3.261   7.301  17.762  0.00  0.00    +0.000 S 
BRANCH  16  18
ATOM     17  C   UNL     1       1.388   9.293  17.896  0.00  0.00    +0.000 C 
ATOM     18  C   UNL     1       2.114   8.284  18.770  0.00  0.00    +0.000 C 
ENDBRANCH  16  18
ENDBRANCH   1  16
TORSDOF 3
ENDMDL
MODEL 3
REMARK VINA RESULT:      -6.5      1.780      2.406
REMARK  Name = 
REMARK  6 active torsions:
REMARK  status: ('A' for Active; 'I' for Inactive)
REMARK    1  A    between atoms: C_1  and  C_2
REMARK    2  A    between atoms: C_2  and  S_3
REMARK    3  A    between atoms: S_3  and  C_4
REMARK    4  A    between atoms: C_6  and  C_7
REMARK    5  A    between atoms: N_10  and  C_11
REMARK    6  A    between atoms: C_17  and  C_18
REMARK                            x       y       z     vdW  Elec       q    Type
REMARK                         _______ _______ _______ _____ _____    ______ ____
ROOT
ATOM      1  C   UNL     1       6.644   4.927  17.812  0.00  0.00    +0.000 C 
ATOM      2  N   UNL     1       7.408   4.705  16.791  0.00  0.00    +0.000 NA
ATOM      3  C   UNL     1       6.519   4.054  15.803  0.00  0.00    +0.000 C 
ATOM      4  C   UNL     1       6.358   4.977  14.608  0.00  0.00    +0.000 C 
ATOM      5  C   UNL     1       5.193   3.903  16.521  0.00  0.00    +0.000 C 
ATOM      6  O   UNL     1       4.182   3.449  16.002  0.00  0.00    +0.000 OA
ATOM      7  N   UNL     1       5.354   4.498  17.748  0.00  0.00    +0.000 N 
ENDROOT
BRANCH   7   8
ATOM      8  C   UNL     1       4.252   4.908  18.543  0.00  0.00    +0.000 A 
ATOM      9  C   UNL     1       3.810   4.043  19.559  0.00  0.00    +0.000 A 
ATOM     10  C   UNL     1       2.744   4.390  20.385  0.00  0.00    +0.000 A 
ATOM     11 CL   UNL     1       2.232   3.305  21.617  0.00  0.00    +0.000 Cl
ATOM     12  C   UNL     1       2.107   5.611  20.225  0.00  0.00    +0.000 A 
ATOM     13  C   UNL     1       2.546   6.489  19.239  0.00  0.00    +0.000 A 
ATOM     14  C   UNL     1       3.614   6.157  18.381  0.00  0.00    +0.000 A 
ATOM     15  C   UNL     1       3.995   7.155  17.322  0.00  0.00    +0.000 C 
ENDBRANCH   7   8
BRANCH   1  16
ATOM     16  S   UNL     1       7.282   5.645  19.263  0.00  0.00    +0.000 S 
BRANCH  16  18
ATOM     17  C   UNL     1       7.404   7.824  17.610  0.00  0.00    +0.000 C 
ATOM     18  C   UNL     1       8.266   6.991  18.543  0.00  0.00    +0.000 C 
ENDBRANCH  16  18
ENDBRANCH   1  16
TORSDOF 3
ENDMDL
MODEL 4
REMARK VINA RESULT:      -6.4      1.146      1.291
REMARK  Name = 
REMARK  6 active torsions:
REMARK  status: ('A' for Active; 'I' for Inactive)
REMARK    1  A    between atoms: C_1  and  C_2
REMARK    2  A    between atoms: C_2  and  S_3
REMARK    3  A    between atoms: S_3  and  C_4
REMARK    4  A    between atoms: C_6  and  C_7
REMARK    5  A    between atoms: N_10  and  C_11
REMARK    6  A    between atoms: C_17  and  C_18
REMARK                            x       y       z     vdW  Elec       q    Type
REMARK                         _______ _______ _______ _____ _____    ______ ____
ROOT
ATOM      1  C   UNL     1       6.129   4.769  17.919  0.00  0.00    +0.000 C 
ATOM      2  N   UNL     1       6.775   4.440  16.846  0.00  0.00    +0.000 NA
ATOM      3  C   UNL     1       5.752   3.807  15.984  0.00  0.00    +0.000 C 
ATOM      4  C   UNL     1       5.542   4.678  14.757  0.00  0.00    +0.000 C 
ATOM      5  C   UNL     1       4.494   3.792  16.828  0.00  0.00    +0.000 C 
ATOM      6  O   UNL     1       3.410   3.387  16.430  0.00  0.00    +0.000 OA
ATOM      7  N   UNL     1       4.813   4.434  17.999  0.00  0.00    +0.000 N 
ENDROOT
BRANCH   7   8
ATOM      8  C   UNL     1       3.822   4.964  18.866  0.00  0.00    +0.000 A 
ATOM      9  C   UNL     1       3.373   6.276  18.637  0.00  0.00    +0.000 A 
ATOM     10  C   UNL     1       2.391   6.851  19.439  0.00  0.00    +0.000 A 
ATOM     11 CL   UNL     1       1.869   8.460  19.127  0.00  0.00    +0.000 Cl
ATOM     12  C   UNL     1       1.827   6.125  20.477  0.00  0.00    +0.000 A 
ATOM     13  C   UNL     1       2.243   4.817  20.704  0.00  0.00    +0.000 A 
ATOM     14  C   UNL     1       3.244   4.216  19.915  0.00  0.00    +0.000 A 
ATOM     15  C   UNL     1       3.653   2.810  20.258  0.00  0.00    +0.000 C 
ENDBRANCH   7   8
BRANCH   1  16
ATOM     16  S   UNL     1       6.950   5.511  19.261  0.00  0.00    +0.000 S 
BRANCH  16  18
ATOM     17  C   UNL     1       7.074   7.648  17.554  0.00  0.00    +0.000 C 
ATOM     18  C   UNL     1       7.964   6.732  18.377  0.00  0.00    +0.000 C 
ENDBRANCH  16  18
ENDBRANCH   1  16
TORSDOF 3
ENDMDL
MODEL 5
REMARK VINA RESULT:      -6.2      0.933      1.002
REMARK  Name = 
REMARK  6 active torsions:
REMARK  status: ('A' for Active; 'I' for Inactive)
REMARK    1  A    between atoms: C_1  and  C_2
REMARK    2  A    between atoms: C_2  and  S_3
REMARK    3  A    between atoms: S_3  and  C_4
REMARK    4  A    between atoms: C_6  and  C_7
REMARK    5  A    between atoms: N_10  and  C_11
REMARK    6  A    between atoms: C_17  and  C_18
REMARK                            x       y       z     vdW  Elec       q    Type
REMARK                         _______ _______ _______ _____ _____    ______ ____
ROOT
ATOM      1  C   UNL     1       6.840   4.969  17.368  0.00  0.00    +0.000 C 
ATOM      2  N   UNL     1       7.768   4.734  16.496  0.00  0.00    +0.000 NA
ATOM      3  C   UNL     1       7.037   4.250  15.304  0.00  0.00    +0.000 C 
ATOM      4  C   UNL     1       7.205   5.262  14.185  0.00  0.00    +0.000 C 
ATOM      5  C   UNL     1       5.586   4.198  15.739  0.00  0.00    +0.000 C 
ATOM      6  O   UNL     1       4.662   3.891  14.999  0.00  0.00    +0.000 OA
ATOM      7  N   UNL     1       5.555   4.689  17.021  0.00  0.00    +0.000 N 
ENDROOT
BRANCH   7   8
ATOM      8  C   UNL     1       4.359   5.163  17.621  0.00  0.00    +0.000 A 
ATOM      9  C   UNL     1       4.042   6.525  17.482  0.00  0.00    +0.000 A 
ATOM     10  C   UNL     1       2.877   7.052  18.032  0.00  0.00    +0.000 A 
ATOM     11 CL   UNL     1       2.524   8.725  17.842  0.00  0.00    +0.000 Cl
ATOM     12  C   UNL     1       1.996   6.230  18.718  0.00  0.00    +0.000 A 
ATOM     13  C   UNL     1       2.282   4.874  18.846  0.00  0.00    +0.000 A 
ATOM     14  C   UNL     1       3.461   4.318  18.310  0.00  0.00    +0.000 A 
ATOM     15  C   UNL     1       3.702   2.849  18.528  0.00  0.00    +0.000 C 
ENDBRANCH   7   8
BRANCH   1  16
ATOM     16  S   UNL     1       7.239   5.517  18.970  0.00  0.00    +0.000 S 
BRANCH  16  18
ATOM     17  C   UNL     1       7.417   7.836  17.526  0.00  0.00    +0.000 C 
ATOM     18  C   UNL     1       8.169   7.025  18.567  0.00  0.00    +0.000 C 
ENDBRANCH  16  18
ENDBRANCH   1  16
TORSDOF 3
ENDMDL
MODEL 6
REMARK VINA RESULT:      -6.2      2.893      4.807
REMARK  Name = 
REMARK  6 active torsions:
REMARK  status: ('A' for Active; 'I' for Inactive)
REMARK    1  A    between atoms: C_1  and  C_2
REMARK    2  A    between atoms: C_2  and  S_3
REMARK    3  A    between atoms: S_3  and  C_4
REMARK    4  A    between atoms: C_6  and  C_7
REMARK    5  A    between atoms: N_10  and  C_11
REMARK    6  A    between atoms: C_17  and  C_18
REMARK                            x       y       z     vdW  Elec       q    Type
REMARK                         _______ _______ _______ _____ _____    ______ ____
ROOT
ATOM      1  C   UNL     1       2.774   5.342  18.591  0.00  0.00    +0.000 C 
ATOM      2  N   UNL     1       1.798   4.491  18.630  0.00  0.00    +0.000 NA
ATOM      3  C   UNL     1       2.306   3.317  17.886  0.00  0.00    +0.000 C 
ATOM      4  C   UNL     1       2.445   2.152  18.850  0.00  0.00    +0.000 C 
ATOM      5  C   UNL     1       3.673   3.741  17.388  0.00  0.00    +0.000 C 
ATOM      6  O   UNL     1       4.432   3.007  16.769  0.00  0.00    +0.000 OA
ATOM      7  N   UNL     1       3.892   4.997  17.897  0.00  0.00    +0.000 N 
ENDROOT
BRANCH   7   8
ATOM      8  C   UNL     1       5.191   5.563  17.986  0.00  0.00    +0.000 A 
ATOM      9  C   UNL     1       5.980   5.239  19.103  0.00  0.00    +0.000 A 
ATOM     10  C   UNL     1       7.269   5.746  19.244  0.00  0.00    +0.000 A 
ATOM     11 CL   UNL     1       8.204   5.327  20.626  0.00  0.00    +0.000 Cl
ATOM     12  C   UNL     1       7.803   6.574  18.268  0.00  0.00    +0.000 A 
ATOM     13  C   UNL     1       7.044   6.887  17.144  0.00  0.00    +0.000 A 
ATOM     14  C   UNL     1       5.732   6.397  16.984  0.00  0.00    +0.000 A 
ATOM     15  C   UNL     1       4.976   6.818  15.753  0.00  0.00    +0.000 C 
ENDBRANCH   7   8
BRANCH   1  16
ATOM     16  S   UNL     1       2.610   6.919  19.306  0.00  0.00    +0.000 S 
BRANCH  16  18
ATOM     17  C   UNL     1       1.512   9.140  18.141  0.00  0.00    +0.000 C 
ATOM     18  C   UNL     1       2.354   7.920  17.811  0.00  0.00    +0.000 C 
ENDBRANCH  16  18
ENDBRANCH   1  16
TORSDOF 3
ENDMDL
MODEL 7
REMARK VINA RESULT:      -6.0      2.933      5.019
REMARK  Name = 
REMARK  6 active torsions:
REMARK  status: ('A' for Active; 'I' for Inactive)
REMARK    1  A    between atoms: C_1  and  C_2
REMARK    2  A    between atoms: C_2  and  S_3
REMARK    3  A    between atoms: S_3  and  C_4
REMARK    4  A    between atoms: C_6  and  C_7
REMARK    5  A    between atoms: N_10  and  C_11
REMARK    6  A    between atoms: C_17  and  C_18
REMARK                            x       y       z     vdW  Elec       q    Type
REMARK                         _______ _______ _______ _____ _____    ______ ____
ROOT
ATOM      1  C   UNL     1       2.740   5.420  18.525  0.00  0.00    +0.000 C 
ATOM      2  N   UNL     1       1.757   4.584  18.635  0.00  0.00    +0.000 NA
ATOM      3  C   UNL     1       2.289   3.319  18.083  0.00  0.00    +0.000 C 
ATOM      4  C   UNL     1       2.374   2.296  19.203  0.00  0.00    +0.000 C 
ATOM      5  C   UNL     1       3.681   3.667  17.596  0.00  0.00    +0.000 C 
ATOM      6  O   UNL     1       4.461   2.855  17.119  0.00  0.00    +0.000 OA
ATOM      7  N   UNL     1       3.886   4.981  17.938  0.00  0.00    +0.000 N 
ENDROOT
BRANCH   7   8
ATOM      8  C   UNL     1       5.184   5.552  18.008  0.00  0.00    +0.000 A 
ATOM      9  C   UNL     1       5.987   5.238  19.119  0.00  0.00    +0.000 A 
ATOM     10  C   UNL     1       7.275   5.749  19.242  0.00  0.00    +0.000 A 
ATOM     11 CL   UNL     1       8.227   5.343  20.616  0.00  0.00    +0.000 Cl
ATOM     12  C   UNL     1       7.796   6.573  18.255  0.00  0.00    +0.000 A 
ATOM     13  C   UNL     1       7.024   6.875  17.137  0.00  0.00    +0.000 A 
ATOM     14  C   UNL     1       5.712   6.381  16.995  0.00  0.00    +0.000 A 
ATOM     15  C   UNL     1       4.941   6.791  15.769  0.00  0.00    +0.000 C 
ENDBRANCH   7   8
BRANCH   1  16
ATOM     16  S   UNL     1       2.557   7.081  19.009  0.00  0.00    +0.000 S 
BRANCH  16  18
ATOM     17  C   UNL     1       1.259   8.209  21.140  0.00  0.00    +0.000 C 
ATOM     18  C   UNL     1       1.669   6.858  20.578  0.00  0.00    +0.000 C 
ENDBRANCH  16  18
ENDBRANCH   1  16
TORSDOF 3
ENDMDL
MODEL 8
REMARK VINA RESULT:      -6.0      3.006      4.268
REMARK  Name = 
REMARK  6 active torsions:
REMARK  status: ('A' for Active; 'I' for Inactive)
REMARK    1  A    between atoms: C_1  and  C_2
REMARK    2  A    between atoms: C_2  and  S_3
REMARK    3  A    between atoms: S_3  and  C_4
REMARK    4  A    between atoms: C_6  and  C_7
REMARK    5  A    between atoms: N_10  and  C_11
REMARK    6  A    between atoms: C_17  and  C_18
REMARK                            x       y       z     vdW  Elec       q    Type
REMARK                         _______ _______ _______ _____ _____    ______ ____
ROOT
ATOM      1  C   UNL     1       4.051   6.433  18.012  0.00  0.00    +0.000 C 
ATOM      2  N   UNL     1       5.018   7.195  17.613  0.00  0.00    +0.000 NA
ATOM      3  C   UNL     1       6.243   6.427  17.930  0.00  0.00    +0.000 C 
ATOM      4  C   UNL     1       6.930   6.046  16.631  0.00  0.00    +0.000 C 
ATOM      5  C   UNL     1       5.744   5.182  18.635  0.00  0.00    +0.000 C 
ATOM      6  O   UNL     1       6.470   4.270  19.006  0.00  0.00    +0.000 OA
ATOM      7  N   UNL     1       4.373   5.256  18.614  0.00  0.00    +0.000 N 
ENDROOT
BRANCH   7   8
ATOM      8  C   UNL     1       3.550   4.118  18.815  0.00  0.00    +0.000 A 
ATOM      9  C   UNL     1       2.953   3.946  20.076  0.00  0.00    +0.000 A 
ATOM     10  C   UNL     1       2.121   2.860  20.336  0.00  0.00    +0.000 A 
ATOM     11 CL   UNL     1       1.411   2.683  21.893  0.00  0.00    +0.000 Cl
ATOM     12  C   UNL     1       1.856   1.932  19.341  0.00  0.00    +0.000 A 
ATOM     13  C   UNL     1       2.419   2.099  18.079  0.00  0.00    +0.000 A 
ATOM     14  C   UNL     1       3.274   3.182  17.794  0.00  0.00    +0.000 A 
ATOM     15  C   UNL     1       3.865   3.260  16.413  0.00  0.00    +0.000 C 
ENDBRANCH   7   8
BRANCH   1  16
ATOM     16  S   UNL     1       2.396   6.955  17.886  0.00  0.00    +0.000 S 
BRANCH  16  18
ATOM     17  C   UNL     1       1.303   9.462  17.996  0.00  0.00    +0.000 C 
ATOM     18  C   UNL     1       2.635   8.754  17.813  0.00  0.00    +0.000 C 
ENDBRANCH  16  18
ENDBRANCH   1  16
TORSDOF 3
ENDMDL
MODEL 9
REMARK VINA RESULT:      -5.9      3.070      5.294
REMARK  Name = 
REMARK  6 active torsions:
REMARK  status: ('A' for Active; 'I' for Inactive)
REMARK    1  A    between atoms: C_1  and  C_2
REMARK    2  A    between atoms: C_2  and  S_3
REMARK    3  A    between atoms: S_3  and  C_4
REMARK    4  A    between atoms: C_6  and  C_7
REMARK    5  A    between atoms: N_10  and  C_11
REMARK    6  A    between atoms: C_17  and  C_18
REMARK                            x       y       z     vdW  Elec       q    Type
REMARK                         _______ _______ _______ _____ _____    ______ ____
ROOT
ATOM      1  C   UNL     1       2.598   5.107  19.196  0.00  0.00    +0.000 C 
ATOM      2  N   UNL     1       1.627   4.662  19.927  0.00  0.00    +0.000 NA
ATOM      3  C   UNL     1       1.957   3.235  20.143  0.00  0.00    +0.000 C 
ATOM      4  C   UNL     1       2.247   3.020  21.618  0.00  0.00    +0.000 C 
ATOM      5  C   UNL     1       3.215   3.005  19.331  0.00  0.00    +0.000 C 
ATOM      6  O   UNL     1       3.825   1.945  19.302  0.00  0.00    +0.000 OA
ATOM      7  N   UNL     1       3.556   4.226  18.803  0.00  0.00    +0.000 N 
ENDROOT
BRANCH   7   8
ATOM      8  C   UNL     1       4.862   4.503  18.320  0.00  0.00    +0.000 A 
ATOM      9  C   UNL     1       5.826   4.957  19.237  0.00  0.00    +0.000 A 
ATOM     10  C   UNL     1       7.129   5.232  18.834  0.00  0.00    +0.000 A 
ATOM     11 CL   UNL     1       8.280   5.786  19.986  0.00  0.00    +0.000 Cl
ATOM     12  C   UNL     1       7.503   5.048  17.511  0.00  0.00    +0.000 A 
ATOM     13  C   UNL     1       6.568   4.577  16.594  0.00  0.00    +0.000 A 
ATOM     14  C   UNL     1       5.239   4.304  16.974  0.00  0.00    +0.000 A 
ATOM     15  C   UNL     1       4.290   3.833  15.905  0.00  0.00    +0.000 C 
ENDBRANCH   7   8
BRANCH   1  16
ATOM     16  S   UNL     1       2.611   6.756  18.639  0.00  0.00    +0.000 S 
BRANCH  16  18
ATOM     17  C   UNL     1       1.347   8.935  19.710  0.00  0.00    +0.000 C 
ATOM     18  C   UNL     1       1.933   7.590  20.103  0.00  0.00    +0.000 C 
ENDBRANCH  16  18
ENDBRANCH   1  16
TORSDOF 3
ENDMDL
