MODEL 1
REMARK VINA RESULT:      -7.0      0.000      0.000
REMARK  Name = 
REMARK  10 active torsions:
REMARK  status: ('A' for Active; 'I' for Inactive)
REMARK    1  A    between atoms: C_1  and  O_2
REMARK    2  A    between atoms: O_2  and  C_3
REMARK    3  A    between atoms: C_7  and  C_8
REMARK    4  A    between atoms: N_14  and  C_15
REMARK    5  A    between atoms: C_15  and  C_16
REMARK    6  A    between atoms: C_16  and  C_17
REMARK    7  A    between atoms: C_16  and  C_18
REMARK    8  A    between atoms: C_21  and  C_22
REMARK    9  A    between atoms: C_22  and  O_23
REMARK   10  A    between atoms: C_25  and  C_26
REMARK                            x       y       z     vdW  Elec       q    Type
REMARK                         _______ _______ _______ _____ _____    ______ ____
ROOT
ATOM      1  C   UNL     1       2.511   7.306  18.659  0.00  0.00    +0.000 C 
ATOM      2  O   UNL     1       2.938   7.409  17.514  0.00  0.00    +0.000 OA
ATOM      3  N   UNL     1       1.826   8.359  19.287  0.00  0.00    +0.000 N 
ATOM      4  C   UNL     1       1.544   8.496  20.691  0.00  0.00    +0.000 C 
ATOM      5  C   UNL     1       1.229   9.972  20.935  0.00  0.00    +0.000 C 
ATOM      6  C   UNL     1       0.105   9.981  22.012  0.00  0.00    +0.000 C 
ATOM      7  N   UNL     1      -0.443  11.309  22.234  0.00  0.00    +0.000 NA
ATOM      8  C   UNL     1      -0.827  11.937  20.944  0.00  0.00    +0.000 C 
ATOM      9  C   UNL     1      -0.658  11.039  19.681  0.00  0.00    +0.000 C 
ATOM     10  C   UNL     1       0.809  10.549  19.547  0.00  0.00    +0.000 C 
ATOM     11  C   UNL     1       1.091   9.381  18.542  0.00  0.00    +0.000 C 
ENDROOT
BRANCH   1  16
ATOM     12  C   UNL     1       3.742   3.866  19.966  0.00  0.00    +0.000 A 
ATOM     13  C   UNL     1       2.608   3.460  20.675  0.00  0.00    +0.000 A 
ATOM     14  C   UNL     1       1.474   4.256  20.658  0.00  0.00    +0.000 A 
ATOM     15  C   UNL     1       1.482   5.446  19.948  0.00  0.00    +0.000 A 
ATOM     16  C   UNL     1       2.647   5.967  19.375  0.00  0.00    +0.000 A 
ATOM     17  C   UNL     1       3.811   5.150  19.370  0.00  0.00    +0.000 A 
ATOM     18  C   UNL     1       5.097   5.537  18.684  0.00  0.00    +0.000 C 
BRANCH  12  20
ATOM     19  C   UNL     1       4.660   1.754  20.490  0.00  0.00    +0.000 C 
ATOM     20  O   UNL     1       4.831   3.022  19.856  0.00  0.00    +0.000 OA
ENDBRANCH  12  20
ENDBRANCH   1  16
BRANCH   7  21
ATOM     21  C   UNL     1      -1.587  11.333  23.176  0.00  0.00    +0.000 C 
BRANCH  21  22
ATOM     22  C   UNL     1      -2.542  12.560  23.218  0.00  0.00    +0.000 C 
ATOM     23  C   UNL     1      -3.796  12.355  24.074  0.00  0.00    +0.000 C 
ATOM     24  C   UNL     1      -1.775  13.778  23.771  0.00  0.00    +0.000 C 
ENDBRANCH  21  22
ENDBRANCH   7  21
BRANCH  10  25
ATOM     25  C   UNL     1       1.641  11.751  19.022  0.00  0.00    +0.000 C 
BRANCH  25  26
ATOM     26  O   UNL     1       2.204  11.385  17.757  0.00  0.00    +0.000 OA
ATOM     27  H   UNL     1       2.993  11.925  17.594  0.00  0.00    +0.000 HD
ENDBRANCH  25  26
ENDBRANCH  10  25
TORSDOF 6
ENDMDL
MODEL 2
REMARK VINA RESULT:      -7.0      3.095      9.152
REMARK  Name = 
REMARK  10 active torsions:
REMARK  status: ('A' for Active; 'I' for Inactive)
REMARK    1  A    between atoms: C_1  and  O_2
REMARK    2  A    between atoms: O_2  and  C_3
REMARK    3  A    between atoms: C_7  and  C_8
REMARK    4  A    between atoms: N_14  and  C_15
REMARK    5  A    between atoms: C_15  and  C_16
REMARK    6  A    between atoms: C_16  and  C_17
REMARK    7  A    between atoms: C_16  and  C_18
REMARK    8  A    between atoms: C_21  and  C_22
REMARK    9  A    between atoms: C_22  and  O_23
REMARK   10  A    between atoms: C_25  and  C_26
REMARK                            x       y       z     vdW  Elec       q    Type
REMARK                         _______ _______ _______ _____ _____    ______ ____
ROOT
ATOM      1  C   UNL     1       1.836   7.097  20.234  0.00  0.00    +0.000 C 
ATOM      2  O   UNL     1       1.315   6.506  21.174  0.00  0.00    +0.000 OA
ATOM      3  N   UNL     1       2.667   6.432  19.317  0.00  0.00    +0.000 N 
ATOM      4  C   UNL     1       3.569   7.031  18.371  0.00  0.00    +0.000 C 
ATOM      5  C   UNL     1       4.564   5.945  17.962  0.00  0.00    +0.000 C 
ATOM      6  C   UNL     1       4.844   6.190  16.450  0.00  0.00    +0.000 C 
ATOM      7  N   UNL     1       5.638   5.130  15.851  0.00  0.00    +0.000 NA
ATOM      8  C   UNL     1       5.048   3.801  16.155  0.00  0.00    +0.000 C 
ATOM      9  C   UNL     1       3.702   3.825  16.941  0.00  0.00    +0.000 C 
ATOM     10  C   UNL     1       3.862   4.588  18.284  0.00  0.00    +0.000 C 
ATOM     11  C   UNL     1       2.555   4.999  19.041  0.00  0.00    +0.000 C 
ENDROOT
BRANCH   1  16
ATOM     12  C   UNL     1       0.774  10.804  20.666  0.00  0.00    +0.000 A 
ATOM     13  C   UNL     1       0.754  11.204  19.326  0.00  0.00    +0.000 A 
ATOM     14  C   UNL     1       1.011  10.271  18.335  0.00  0.00    +0.000 A 
ATOM     15  C   UNL     1       1.293   8.960  18.681  0.00  0.00    +0.000 A 
ATOM     16  C   UNL     1       1.493   8.565  20.008  0.00  0.00    +0.000 A 
ATOM     17  C   UNL     1       1.213   9.508  21.035  0.00  0.00    +0.000 A 
ATOM     18  C   UNL     1       1.271   9.179  22.506  0.00  0.00    +0.000 C 
BRANCH  12  20
ATOM     19  C   UNL     1      -0.935  12.203  21.500  0.00  0.00    +0.000 C 
ATOM     20  O   UNL     1       0.384  11.683  21.659  0.00  0.00    +0.000 OA
ENDBRANCH  12  20
ENDBRANCH   1  16
BRANCH   7  21
ATOM     21  C   UNL     1       5.832   5.281  14.390  0.00  0.00    +0.000 C 
BRANCH  21  22
ATOM     22  C   UNL     1       6.785   4.323  13.622  0.00  0.00    +0.000 C 
ATOM     23  C   UNL     1       6.086   3.429  12.591  0.00  0.00    +0.000 C 
ATOM     24  C   UNL     1       7.856   5.155  12.889  0.00  0.00    +0.000 C 
ENDBRANCH  21  22
ENDBRANCH   7  21
BRANCH  10  25
ATOM     25  C   UNL     1       4.616   3.639  19.255  0.00  0.00    +0.000 C 
BRANCH  25  26
ATOM     26  O   UNL     1       5.948   4.139  19.424  0.00  0.00    +0.000 OA
ATOM     27  H   UNL     1       5.969   5.073  19.164  0.00  0.00    +0.000 HD
ENDBRANCH  25  26
ENDBRANCH  10  25
TORSDOF 6
ENDMDL
MODEL 3
REMARK VINA RESULT:      -6.6      1.317      1.455
REMARK  Name = 
REMARK  10 active torsions:
REMARK  status: ('A' for Active; 'I' for Inactive)
REMARK    1  A    between atoms: C_1  and  O_2
REMARK    2  A    between atoms: O_2  and  C_3
REMARK    3  A    between atoms: C_7  and  C_8
REMARK    4  A    between atoms: N_14  and  C_15
REMARK    5  A    between atoms: C_15  and  C_16
REMARK    6  A    between atoms: C_16  and  C_17
REMARK    7  A    between atoms: C_16  and  C_18
REMARK    8  A    between atoms: C_21  and  C_22
REMARK    9  A    between atoms: C_22  and  O_23
REMARK   10  A    between atoms: C_25  and  C_26
REMARK                            x       y       z     vdW  Elec       q    Type
REMARK                         _______ _______ _______ _____ _____    ______ ____
ROOT
ATOM      1  C   UNL     1       1.953   8.455  18.340  0.00  0.00    +0.000 C 
ATOM      2  O   UNL     1       2.232   8.618  17.157  0.00  0.00    +0.000 OA
ATOM      3  N   UNL     1       1.166   9.381  19.045  0.00  0.00    +0.000 N 
ATOM      4  C   UNL     1       1.014   9.482  20.472  0.00  0.00    +0.000 C 
ATOM      5  C   UNL     1       0.477  10.884  20.760  0.00  0.00    +0.000 C 
ATOM      6  C   UNL     1      -0.512  10.710  21.949  0.00  0.00    +0.000 C 
ATOM      7  N   UNL     1      -1.255  11.925  22.239  0.00  0.00    +0.000 NA
ATOM      8  C   UNL     1      -1.877  12.463  21.001  0.00  0.00    +0.000 C 
ATOM      9  C   UNL     1      -1.689  11.595  19.721  0.00  0.00    +0.000 C 
ATOM     10  C   UNL     1      -0.181  11.364  19.428  0.00  0.00    +0.000 C 
ATOM     11  C   UNL     1       0.190  10.252  18.390  0.00  0.00    +0.000 C 
ENDROOT
BRANCH   1  16
ATOM     12  C   UNL     1       3.689   5.112  19.271  0.00  0.00    +0.000 A 
ATOM     13  C   UNL     1       2.933   4.755  20.392  0.00  0.00    +0.000 A 
ATOM     14  C   UNL     1       1.862   5.548  20.771  0.00  0.00    +0.000 A 
ATOM     15  C   UNL     1       1.560   6.687  20.042  0.00  0.00    +0.000 A 
ATOM     16  C   UNL     1       2.394   7.168  19.027  0.00  0.00    +0.000 A 
ATOM     17  C   UNL     1       3.484   6.352  18.618  0.00  0.00    +0.000 A 
ATOM     18  C   UNL     1       4.389   6.692  17.459  0.00  0.00    +0.000 C 
BRANCH  12  20
ATOM     19  C   UNL     1       4.219   2.936  18.525  0.00  0.00    +0.000 C 
ATOM     20  O   UNL     1       4.670   4.262  18.796  0.00  0.00    +0.000 OA
ENDBRANCH  12  20
ENDBRANCH   1  16
BRANCH   7  21
ATOM     21  C   UNL     1      -2.280  11.761  23.296  0.00  0.00    +0.000 C 
BRANCH  21  22
ATOM     22  C   UNL     1      -3.324  12.884  23.558  0.00  0.00    +0.000 C 
ATOM     23  C   UNL     1      -4.413  12.512  24.569  0.00  0.00    +0.000 C 
ATOM     24  C   UNL     1      -2.595  14.140  24.076  0.00  0.00    +0.000 C 
ENDBRANCH  21  22
ENDBRANCH   7  21
BRANCH  10  25
ATOM     25  C   UNL     1       0.369  12.686  18.827  0.00  0.00    +0.000 C 
BRANCH  25  26
ATOM     26  O   UNL     1      -0.571  13.161  17.857  0.00  0.00    +0.000 OA
ATOM     27  H   UNL     1      -0.914  12.407  17.354  0.00  0.00    +0.000 HD
ENDBRANCH  25  26
ENDBRANCH  10  25
TORSDOF 6
ENDMDL
MODEL 4
REMARK VINA RESULT:      -6.4      2.760      4.272
REMARK  Name = 
REMARK  10 active torsions:
REMARK  status: ('A' for Active; 'I' for Inactive)
REMARK    1  A    between atoms: C_1  and  O_2
REMARK    2  A    between atoms: O_2  and  C_3
REMARK    3  A    between atoms: C_7  and  C_8
REMARK    4  A    between atoms: N_14  and  C_15
REMARK    5  A    between atoms: C_15  and  C_16
REMARK    6  A    between atoms: C_16  and  C_17
REMARK    7  A    between atoms: C_16  and  C_18
REMARK    8  A    between atoms: C_21  and  C_22
REMARK    9  A    between atoms: C_22  and  O_23
REMARK   10  A    between atoms: C_25  and  C_26
REMARK                            x       y       z     vdW  Elec       q    Type
REMARK                         _______ _______ _______ _____ _____    ______ ____
ROOT
ATOM      1  C   UNL     1       2.882   6.296  19.423  0.00  0.00    +0.000 C 
ATOM      2  O   UNL     1       2.816   5.404  20.262  0.00  0.00    +0.000 OA
ATOM      3  N   UNL     1       2.175   7.501  19.572  0.00  0.00    +0.000 N 
ATOM      4  C   UNL     1       1.916   8.486  18.557  0.00  0.00    +0.000 C 
ATOM      5  C   UNL     1       0.746   9.335  19.055  0.00  0.00    +0.000 C 
ATOM      6  C   UNL     1       1.057  10.784  18.580  0.00  0.00    +0.000 C 
ATOM      7  N   UNL     1       0.129  11.760  19.126  0.00  0.00    +0.000 NA
ATOM      8  C   UNL     1       0.020  11.610  20.600  0.00  0.00    +0.000 C 
ATOM      9  C   UNL     1       0.960  10.543  21.239  0.00  0.00    +0.000 C 
ATOM     10  C   UNL     1       0.718   9.146  20.604  0.00  0.00    +0.000 C 
ATOM     11  C   UNL     1       1.786   8.034  20.878  0.00  0.00    +0.000 C 
ENDROOT
BRANCH   1  16
ATOM     12  C   UNL     1       4.861   4.931  16.377  0.00  0.00    +0.000 A 
ATOM     13  C   UNL     1       5.779   5.971  16.204  0.00  0.00    +0.000 A 
ATOM     14  C   UNL     1       5.782   7.031  17.096  0.00  0.00    +0.000 A 
ATOM     15  C   UNL     1       4.872   7.052  18.141  0.00  0.00    +0.000 A 
ATOM     16  C   UNL     1       3.831   6.124  18.242  0.00  0.00    +0.000 A 
ATOM     17  C   UNL     1       3.829   5.022  17.344  0.00  0.00    +0.000 A 
ATOM     18  C   UNL     1       2.837   3.888  17.420  0.00  0.00    +0.000 C 
BRANCH  12  20
ATOM     19  C   UNL     1       6.025   3.797  14.665  0.00  0.00    +0.000 C 
ATOM     20  O   UNL     1       4.934   3.802  15.584  0.00  0.00    +0.000 OA
ENDBRANCH  12  20
ENDBRANCH   1  16
BRANCH   7  21
ATOM     21  C   UNL     1       0.462  13.162  18.778  0.00  0.00    +0.000 C 
BRANCH  21  22
ATOM     22  C   UNL     1       1.735  13.834  19.365  0.00  0.00    +0.000 C 
ATOM     23  C   UNL     1       2.943  13.831  18.423  0.00  0.00    +0.000 C 
ATOM     24  C   UNL     1       1.411  15.297  19.728  0.00  0.00    +0.000 C 
ENDBRANCH  21  22
ENDBRANCH   7  21
BRANCH  10  25
ATOM     25  C   UNL     1      -0.605   8.600  21.206  0.00  0.00    +0.000 C 
BRANCH  25  26
ATOM     26  O   UNL     1      -0.575   8.816  22.621  0.00  0.00    +0.000 OA
ATOM     27  H   UNL     1      -0.186   8.039  23.051  0.00  0.00    +0.000 HD
ENDBRANCH  25  26
ENDBRANCH  10  25
TORSDOF 6
ENDMDL
MODEL 5
REMARK VINA RESULT:      -6.3      2.504      8.841
REMARK  Name = 
REMARK  10 active torsions:
REMARK  status: ('A' for Active; 'I' for Inactive)
REMARK    1  A    between atoms: C_1  and  O_2
REMARK    2  A    between atoms: O_2  and  C_3
REMARK    3  A    between atoms: C_7  and  C_8
REMARK    4  A    between atoms: N_14  and  C_15
REMARK    5  A    between atoms: C_15  and  C_16
REMARK    6  A    between atoms: C_16  and  C_17
REMARK    7  A    between atoms: C_16  and  C_18
REMARK    8  A    between atoms: C_21  and  C_22
REMARK    9  A    between atoms: C_22  and  O_23
REMARK   10  A    between atoms: C_25  and  C_26
REMARK                            x       y       z     vdW  Elec       q    Type
REMARK                         _______ _______ _______ _____ _____    ______ ____
ROOT
ATOM      1  C   UNL     1       0.737   7.973  20.922  0.00  0.00    +0.000 C 
ATOM      2  O   UNL     1      -0.093   7.837  21.815  0.00  0.00    +0.000 OA
ATOM      3  N   UNL     1       1.456   6.879  20.411  0.00  0.00    +0.000 N 
ATOM      4  C   UNL     1       2.645   6.923  19.604  0.00  0.00    +0.000 C 
ATOM      5  C   UNL     1       3.300   5.546  19.709  0.00  0.00    +0.000 C 
ATOM      6  C   UNL     1       3.889   5.261  18.296  0.00  0.00    +0.000 C 
ATOM      7  N   UNL     1       4.397   3.905  18.167  0.00  0.00    +0.000 NA
ATOM      8  C   UNL     1       3.376   2.922  18.612  0.00  0.00    +0.000 C 
ATOM      9  C   UNL     1       1.995   3.521  19.018  0.00  0.00    +0.000 C 
ATOM     10  C   UNL     1       2.162   4.571  20.150  0.00  0.00    +0.000 C 
ATOM     11  C   UNL     1       0.945   5.509  20.450  0.00  0.00    +0.000 C 
ENDROOT
BRANCH   1  16
ATOM     12  C   UNL     1       0.649  11.772  20.131  0.00  0.00    +0.000 A 
ATOM     13  C   UNL     1       1.233  11.764  18.861  0.00  0.00    +0.000 A 
ATOM     14  C   UNL     1       1.570  10.555  18.275  0.00  0.00    +0.000 A 
ATOM     15  C   UNL     1       1.334   9.372  18.956  0.00  0.00    +0.000 A 
ATOM     16  C   UNL     1       0.917   9.350  20.291  0.00  0.00    +0.000 A 
ATOM     17  C   UNL     1       0.550  10.583  20.896  0.00  0.00    +0.000 A 
ATOM     18  C   UNL     1      -0.029  10.688  22.285  0.00  0.00    +0.000 C 
BRANCH  12  20
ATOM     19  C   UNL     1      -0.465  13.815  19.735  0.00  0.00    +0.000 C 
ATOM     20  O   UNL     1       0.179  12.953  20.672  0.00  0.00    +0.000 OA
ENDBRANCH  12  20
ENDBRANCH   1  16
BRANCH   7  21
ATOM     21  C   UNL     1       4.868   3.571  16.803  0.00  0.00    +0.000 C 
BRANCH  21  22
ATOM     22  C   UNL     1       5.902   4.483  16.084  0.00  0.00    +0.000 C 
ATOM     23  C   UNL     1       7.258   4.581  16.791  0.00  0.00    +0.000 C 
ATOM     24  C   UNL     1       6.139   3.951  14.657  0.00  0.00    +0.000 C 
ENDBRANCH  21  22
ENDBRANCH   7  21
BRANCH  10  25
ATOM     25  C   UNL     1       2.406   3.783  21.465  0.00  0.00    +0.000 C 
BRANCH  25  26
ATOM     26  O   UNL     1       1.356   2.819  21.609  0.00  0.00    +0.000 OA
ATOM     27  H   UNL     1       1.609   2.005  21.147  0.00  0.00    +0.000 HD
ENDBRANCH  25  26
ENDBRANCH  10  25
TORSDOF 6
ENDMDL
MODEL 6
REMARK VINA RESULT:      -6.3      5.185      9.790
REMARK  Name = 
REMARK  10 active torsions:
REMARK  status: ('A' for Active; 'I' for Inactive)
REMARK    1  A    between atoms: C_1  and  O_2
REMARK    2  A    between atoms: O_2  and  C_3
REMARK    3  A    between atoms: C_7  and  C_8
REMARK    4  A    between atoms: N_14  and  C_15
REMARK    5  A    between atoms: C_15  and  C_16
REMARK    6  A    between atoms: C_16  and  C_17
REMARK    7  A    between atoms: C_16  and  C_18
REMARK    8  A    between atoms: C_21  and  C_22
REMARK    9  A    between atoms: C_22  and  O_23
REMARK   10  A    between atoms: C_25  and  C_26
REMARK                            x       y       z     vdW  Elec       q    Type
REMARK                         _______ _______ _______ _____ _____    ______ ____
ROOT
ATOM      1  C   UNL     1      -1.772  14.254  23.292  0.00  0.00    +0.000 C 
ATOM      2  O   UNL     1      -0.945  14.449  24.176  0.00  0.00    +0.000 OA
ATOM      3  N   UNL     1      -1.456  13.520  22.136  0.00  0.00    +0.000 N 
ATOM      4  C   UNL     1      -2.203  13.470  20.908  0.00  0.00    +0.000 C 
ATOM      5  C   UNL     1      -1.247  12.956  19.831  0.00  0.00    +0.000 C 
ATOM      6  C   UNL     1      -2.116  12.053  18.907  0.00  0.00    +0.000 C 
ATOM      7  N   UNL     1      -1.321  11.334  17.925  0.00  0.00    +0.000 NA
ATOM      8  C   UNL     1      -0.193  10.627  18.584  0.00  0.00    +0.000 C 
ATOM      9  C   UNL     1      -0.155  10.722  20.139  0.00  0.00    +0.000 C 
ATOM     10  C   UNL     1      -0.113  12.205  20.599  0.00  0.00    +0.000 C 
ATOM     11  C   UNL     1      -0.406  12.501  22.108  0.00  0.00    +0.000 C 
ENDROOT
BRANCH   1  16
ATOM     12  C   UNL     1      -5.586  14.493  23.969  0.00  0.00    +0.000 A 
ATOM     13  C   UNL     1      -5.792  15.848  23.693  0.00  0.00    +0.000 A 
ATOM     14  C   UNL     1      -4.734  16.619  23.239  0.00  0.00    +0.000 A 
ATOM     15  C   UNL     1      -3.485  16.042  23.074  0.00  0.00    +0.000 A 
ATOM     16  C   UNL     1      -3.201  14.741  23.503  0.00  0.00    +0.000 A 
ATOM     17  C   UNL     1      -4.283  13.935  23.952  0.00  0.00    +0.000 A 
ATOM     18  C   UNL     1      -4.138  12.482  24.330  0.00  0.00    +0.000 C 
BRANCH  12  20
ATOM     19  C   UNL     1      -7.913  14.139  23.795  0.00  0.00    +0.000 C 
ATOM     20  O   UNL     1      -6.656  13.678  24.286  0.00  0.00    +0.000 OA
ENDBRANCH  12  20
ENDBRANCH   1  16
BRANCH   7  21
ATOM     21  C   UNL     1      -2.106  10.387  17.099  0.00  0.00    +0.000 C 
BRANCH  21  22
ATOM     22  C   UNL     1      -2.939  10.902  15.891  0.00  0.00    +0.000 C 
ATOM     23  C   UNL     1      -2.950   9.960  14.683  0.00  0.00    +0.000 C 
ATOM     24  C   UNL     1      -4.396  11.125  16.341  0.00  0.00    +0.000 C 
ENDBRANCH  21  22
ENDBRANCH   7  21
BRANCH  10  25
ATOM     25  C   UNL     1       1.333  12.714  20.355  0.00  0.00    +0.000 C 
BRANCH  25  26
ATOM     26  O   UNL     1       1.801  13.325  21.563  0.00  0.00    +0.000 OA
ATOM     27  H   UNL     1       1.095  13.879  21.931  0.00  0.00    +0.000 HD
ENDBRANCH  25  26
ENDBRANCH  10  25
TORSDOF 6
ENDMDL
MODEL 7
REMARK VINA RESULT:      -6.1      2.562      4.080
REMARK  Name = 
REMARK  10 active torsions:
REMARK  status: ('A' for Active; 'I' for Inactive)
REMARK    1  A    between atoms: C_1  and  O_2
REMARK    2  A    between atoms: O_2  and  C_3
REMARK    3  A    between atoms: C_7  and  C_8
REMARK    4  A    between atoms: N_14  and  C_15
REMARK    5  A    between atoms: C_15  and  C_16
REMARK    6  A    between atoms: C_16  and  C_17
REMARK    7  A    between atoms: C_16  and  C_18
REMARK    8  A    between atoms: C_21  and  C_22
REMARK    9  A    between atoms: C_22  and  O_23
REMARK   10  A    between atoms: C_25  and  C_26
REMARK                            x       y       z     vdW  Elec       q    Type
REMARK                         _______ _______ _______ _____ _____    ______ ____
ROOT
ATOM      1  C   UNL     1       1.848   6.573  20.410  0.00  0.00    +0.000 C 
ATOM      2  O   UNL     1       1.730   5.941  21.455  0.00  0.00    +0.000 OA
ATOM      3  N   UNL     1       1.487   7.928  20.324  0.00  0.00    +0.000 N 
ATOM      4  C   UNL     1       1.285   8.698  19.126  0.00  0.00    +0.000 C 
ATOM      5  C   UNL     1       0.463   9.924  19.523  0.00  0.00    +0.000 C 
ATOM      6  C   UNL     1       1.015  11.090  18.653  0.00  0.00    +0.000 C 
ATOM      7  N   UNL     1       0.462  12.379  19.033  0.00  0.00    +0.000 NA
ATOM      8  C   UNL     1       0.597  12.593  20.497  0.00  0.00    +0.000 C 
ATOM      9  C   UNL     1       1.359  11.476  21.273  0.00  0.00    +0.000 C 
ATOM     10  C   UNL     1       0.679  10.096  21.060  0.00  0.00    +0.000 C 
ATOM     11  C   UNL     1       1.486   8.822  21.482  0.00  0.00    +0.000 C 
ENDROOT
BRANCH   1  16
ATOM     12  C   UNL     1       2.935   4.038  17.680  0.00  0.00    +0.000 A 
ATOM     13  C   UNL     1       3.925   4.788  17.038  0.00  0.00    +0.000 A 
ATOM     14  C   UNL     1       4.258   6.039  17.533  0.00  0.00    +0.000 A 
ATOM     15  C   UNL     1       3.602   6.533  18.649  0.00  0.00    +0.000 A 
ATOM     16  C   UNL     1       2.492   5.890  19.209  0.00  0.00    +0.000 A 
ATOM     17  C   UNL     1       2.154   4.598  18.722  0.00  0.00    +0.000 A 
ATOM     18  C   UNL     1       1.060   3.746  19.314  0.00  0.00    +0.000 C 
BRANCH  12  20
ATOM     19  C   UNL     1       3.486   1.759  17.955  0.00  0.00    +0.000 C 
ATOM     20  O   UNL     1       2.688   2.736  17.289  0.00  0.00    +0.000 OA
ENDBRANCH  12  20
ENDBRANCH   1  16
BRANCH   7  21
ATOM     21  C   UNL     1       1.047  13.522  18.293  0.00  0.00    +0.000 C 
BRANCH  21  22
ATOM     22  C   UNL     1       2.127  14.419  18.962  0.00  0.00    +0.000 C 
ATOM     23  C   UNL     1       3.528  14.280  18.357  0.00  0.00    +0.000 C 
ATOM     24  C   UNL     1       1.698  15.896  18.848  0.00  0.00    +0.000 C 
ENDBRANCH  21  22
ENDBRANCH   7  21
BRANCH  10  25
ATOM     25  C   UNL     1      -0.600  10.082  21.940  0.00  0.00    +0.000 C 
BRANCH  25  26
ATOM     26  O   UNL     1      -0.225  10.432  23.277  0.00  0.00    +0.000 OA
ATOM     27  H   UNL     1       0.095   9.639  23.733  0.00  0.00    +0.000 HD
ENDBRANCH  25  26
ENDBRANCH  10  25
TORSDOF 6
ENDMDL
MODEL 8
REMARK VINA RESULT:      -6.1      2.689      3.979
REMARK  Name = 
REMARK  10 active torsions:
REMARK  status: ('A' for Active; 'I' for Inactive)
REMARK    1  A    between atoms: C_1  and  O_2
REMARK    2  A    between atoms: O_2  and  C_3
REMARK    3  A    between atoms: C_7  and  C_8
REMARK    4  A    between atoms: N_14  and  C_15
REMARK    5  A    between atoms: C_15  and  C_16
REMARK    6  A    between atoms: C_16  and  C_17
REMARK    7  A    between atoms: C_16  and  C_18
REMARK    8  A    between atoms: C_21  and  C_22
REMARK    9  A    between atoms: C_22  and  O_23
REMARK   10  A    between atoms: C_25  and  C_26
REMARK                            x       y       z     vdW  Elec       q    Type
REMARK                         _______ _______ _______ _____ _____    ______ ____
ROOT
ATOM      1  C   UNL     1       2.725   6.162  19.412  0.00  0.00    +0.000 C 
ATOM      2  O   UNL     1       2.580   5.197  20.156  0.00  0.00    +0.000 OA
ATOM      3  N   UNL     1       2.096   7.392  19.669  0.00  0.00    +0.000 N 
ATOM      4  C   UNL     1       1.928   8.489  18.754  0.00  0.00    +0.000 C 
ATOM      5  C   UNL     1       0.805   9.362  19.314  0.00  0.00    +0.000 C 
ATOM      6  C   UNL     1       1.223  10.827  18.994  0.00  0.00    +0.000 C 
ATOM      7  N   UNL     1       0.349  11.805  19.619  0.00  0.00    +0.000 NA
ATOM      8  C   UNL     1       0.195  11.516  21.068  0.00  0.00    +0.000 C 
ATOM      9  C   UNL     1       1.045  10.329  21.613  0.00  0.00    +0.000 C 
ATOM     10  C   UNL     1       0.727   9.022  20.836  0.00  0.00    +0.000 C 
ATOM     11  C   UNL     1       1.712   7.818  21.015  0.00  0.00    +0.000 C 
ENDROOT
BRANCH   1  16
ATOM     12  C   UNL     1       4.807   4.906  16.387  0.00  0.00    +0.000 A 
ATOM     13  C   UNL     1       5.653   6.005  16.207  0.00  0.00    +0.000 A 
ATOM     14  C   UNL     1       5.579   7.071  17.089  0.00  0.00    +0.000 A 
ATOM     15  C   UNL     1       4.665   7.040  18.130  0.00  0.00    +0.000 A 
ATOM     16  C   UNL     1       3.689   6.044  18.237  0.00  0.00    +0.000 A 
ATOM     17  C   UNL     1       3.767   4.935  17.350  0.00  0.00    +0.000 A 
ATOM     18  C   UNL     1       2.855   3.737  17.433  0.00  0.00    +0.000 C 
BRANCH  12  20
ATOM     19  C   UNL     1       6.016   3.861  14.650  0.00  0.00    +0.000 C 
ATOM     20  O   UNL     1       4.961   3.777  15.606  0.00  0.00    +0.000 OA
ENDBRANCH  12  20
ENDBRANCH   1  16
BRANCH   7  21
ATOM     21  C   UNL     1       0.782  13.208  19.420  0.00  0.00    +0.000 C 
BRANCH  21  22
ATOM     22  C   UNL     1      -0.258  14.308  19.069  0.00  0.00    +0.000 C 
ATOM     23  C   UNL     1      -1.321  14.541  20.148  0.00  0.00    +0.000 C 
ATOM     24  C   UNL     1       0.479  15.640  18.823  0.00  0.00    +0.000 C 
ENDBRANCH  21  22
ENDBRANCH   7  21
BRANCH  10  25
ATOM     25  C   UNL     1      -0.644   8.510  21.356  0.00  0.00    +0.000 C 
BRANCH  25  26
ATOM     26  O   UNL     1      -0.698   8.737  22.769  0.00  0.00    +0.000 OA
ATOM     27  H   UNL     1      -1.567   8.462  23.101  0.00  0.00    +0.000 HD
ENDBRANCH  25  26
ENDBRANCH  10  25
TORSDOF 6
ENDMDL
MODEL 9
REMARK VINA RESULT:      -6.1      2.880      4.515
REMARK  Name = 
REMARK  10 active torsions:
REMARK  status: ('A' for Active; 'I' for Inactive)
REMARK    1  A    between atoms: C_1  and  O_2
REMARK    2  A    between atoms: O_2  and  C_3
REMARK    3  A    between atoms: C_7  and  C_8
REMARK    4  A    between atoms: N_14  and  C_15
REMARK    5  A    between atoms: C_15  and  C_16
REMARK    6  A    between atoms: C_16  and  C_17
REMARK    7  A    between atoms: C_16  and  C_18
REMARK    8  A    between atoms: C_21  and  C_22
REMARK    9  A    between atoms: C_22  and  O_23
REMARK   10  A    between atoms: C_25  and  C_26
REMARK                            x       y       z     vdW  Elec       q    Type
REMARK                         _______ _______ _______ _____ _____    ______ ____
ROOT
ATOM      1  C   UNL     1       2.466   6.792  18.994  0.00  0.00    +0.000 C 
ATOM      2  O   UNL     1       2.013   5.914  19.721  0.00  0.00    +0.000 OA
ATOM      3  N   UNL     1       2.033   8.125  19.092  0.00  0.00    +0.000 N 
ATOM      4  C   UNL     1       2.238   9.178  18.133  0.00  0.00    +0.000 C 
ATOM      5  C   UNL     1       1.207  10.263  18.442  0.00  0.00    +0.000 C 
ATOM      6  C   UNL     1       1.935  11.612  18.171  0.00  0.00    +0.000 C 
ATOM      7  N   UNL     1       1.150  12.762  18.588  0.00  0.00    +0.000 NA
ATOM      8  C   UNL     1       0.680  12.592  19.987  0.00  0.00    +0.000 C 
ATOM      9  C   UNL     1       1.186  11.312  20.717  0.00  0.00    +0.000 C 
ATOM     10  C   UNL     1       0.787  10.034  19.929  0.00  0.00    +0.000 C 
ATOM     11  C   UNL     1       1.489   8.692  20.326  0.00  0.00    +0.000 C 
ENDROOT
BRANCH   1  16
ATOM     12  C   UNL     1       4.891   4.972  16.572  0.00  0.00    +0.000 A 
ATOM     13  C   UNL     1       5.851   5.973  16.399  0.00  0.00    +0.000 A 
ATOM     14  C   UNL     1       5.732   7.159  17.105  0.00  0.00    +0.000 A 
ATOM     15  C   UNL     1       4.661   7.342  17.965  0.00  0.00    +0.000 A 
ATOM     16  C   UNL     1       3.594   6.439  18.031  0.00  0.00    +0.000 A 
ATOM     17  C   UNL     1       3.714   5.211  17.326  0.00  0.00    +0.000 A 
ATOM     18  C   UNL     1       2.695   4.101  17.407  0.00  0.00    +0.000 C 
BRANCH  12  20
ATOM     19  C   UNL     1       6.164   3.661  15.078  0.00  0.00    +0.000 C 
ATOM     20  O   UNL     1       5.066   3.732  15.987  0.00  0.00    +0.000 OA
ENDBRANCH  12  20
ENDBRANCH   1  16
BRANCH   7  21
ATOM     21  C   UNL     1       1.859  14.055  18.440  0.00  0.00    +0.000 C 
BRANCH  21  22
ATOM     22  C   UNL     1       3.402  14.128  18.615  0.00  0.00    +0.000 C 
ATOM     23  C   UNL     1       4.100  15.114  17.672  0.00  0.00    +0.000 C 
ATOM     24  C   UNL     1       3.727  14.536  20.066  0.00  0.00    +0.000 C 
ENDBRANCH  21  22
ENDBRANCH   7  21
BRANCH  10  25
ATOM     25  C   UNL     1      -0.726   9.799  20.187  0.00  0.00    +0.000 C 
BRANCH  25  26
ATOM     26  O   UNL     1      -1.431  10.048  18.965  0.00  0.00    +0.000 OA
ATOM     27  H   UNL     1      -1.036  10.816  18.524  0.00  0.00    +0.000 HD
ENDBRANCH  25  26
ENDBRANCH  10  25
TORSDOF 6
ENDMDL
