MODEL 1
REMARK VINA RESULT:      -6.2      0.000      0.000
REMARK  Name = 
REMARK  1 active torsions:
REMARK  status: ('A' for Active; 'I' for Inactive)
REMARK    1  A    between atoms: C_1  and  C_2
REMARK                            x       y       z     vdW  Elec       q    Type
REMARK                         _______ _______ _______ _____ _____    ______ ____
ROOT
ATOM      1  C   UNL     1       2.873   8.140  17.811  0.00  0.00    +0.000 C 
ATOM      2  C   UNL     1       3.542   6.792  17.886  0.00  0.00    +0.000 A 
ATOM      3  C   UNL     1       4.585   6.517  17.000  0.00  0.00    +0.000 A 
ATOM      4  C   UNL     1       5.213   5.295  17.086  0.00  0.00    +0.000 A 
ATOM      5  N   UNL     1       4.882   4.350  17.985  0.00  0.00    +0.000 NA
ATOM      6  C   UNL     1       3.870   4.579  18.852  0.00  0.00    +0.000 A 
ATOM      7  C   UNL     1       3.495   3.605  19.797  0.00  0.00    +0.000 A 
ATOM      8 CL   UNL     1       4.389   2.108  19.861  0.00  0.00    +0.000 Cl
ATOM      9  C   UNL     1       2.429   3.817  20.681  0.00  0.00    +0.000 A 
ATOM     10 CL   UNL     1       1.919   2.638  21.840  0.00  0.00    +0.000 Cl
ATOM     11  C   UNL     1       1.726   5.016  20.647  0.00  0.00    +0.000 A 
ATOM     12  C   UNL     1       2.091   6.002  19.736  0.00  0.00    +0.000 A 
ATOM     13  C   UNL     1       3.156   5.806  18.829  0.00  0.00    +0.000 A 
ENDROOT
TORSDOF 0
ENDMDL
MODEL 2
REMARK VINA RESULT:      -6.1      2.864      4.361
REMARK  Name = 
REMARK  1 active torsions:
REMARK  status: ('A' for Active; 'I' for Inactive)
REMARK    1  A    between atoms: C_1  and  C_2
REMARK                            x       y       z     vdW  Elec       q    Type
REMARK                         _______ _______ _______ _____ _____    ______ ____
ROOT
ATOM      1  C   UNL     1       1.594   4.334  17.755  0.00  0.00    +0.000 C 
ATOM      2  C   UNL     1       2.966   4.129  18.342  0.00  0.00    +0.000 A 
ATOM      3  C   UNL     1       3.186   3.006  19.141  0.00  0.00    +0.000 A 
ATOM      4  C   UNL     1       4.447   2.806  19.657  0.00  0.00    +0.000 A 
ATOM      5  N   UNL     1       5.485   3.630  19.427  0.00  0.00    +0.000 NA
ATOM      6  C   UNL     1       5.305   4.733  18.665  0.00  0.00    +0.000 A 
ATOM      7  C   UNL     1       6.369   5.620  18.415  0.00  0.00    +0.000 A 
ATOM      8 CL   UNL     1       7.943   5.248  19.071  0.00  0.00    +0.000 Cl
ATOM      9  C   UNL     1       6.190   6.782  17.653  0.00  0.00    +0.000 A 
ATOM     10 CL   UNL     1       7.464   7.910  17.343  0.00  0.00    +0.000 Cl
ATOM     11  C   UNL     1       4.942   7.071  17.113  0.00  0.00    +0.000 A 
ATOM     12  C   UNL     1       3.879   6.200  17.328  0.00  0.00    +0.000 A 
ATOM     13  C   UNL     1       4.036   5.029  18.101  0.00  0.00    +0.000 A 
ENDROOT
TORSDOF 0
ENDMDL
MODEL 3
REMARK VINA RESULT:      -6.1      1.704      2.889
REMARK  Name = 
REMARK  1 active torsions:
REMARK  status: ('A' for Active; 'I' for Inactive)
REMARK    1  A    between atoms: C_1  and  C_2
REMARK                            x       y       z     vdW  Elec       q    Type
REMARK                         _______ _______ _______ _____ _____    ______ ____
ROOT
ATOM      1  C   UNL     1       5.544   4.027  15.445  0.00  0.00    +0.000 C 
ATOM      2  C   UNL     1       4.840   4.868  16.477  0.00  0.00    +0.000 A 
ATOM      3  C   UNL     1       4.964   6.256  16.400  0.00  0.00    +0.000 A 
ATOM      4  C   UNL     1       4.299   7.025  17.328  0.00  0.00    +0.000 A 
ATOM      5  N   UNL     1       3.526   6.514  18.304  0.00  0.00    +0.000 NA
ATOM      6  C   UNL     1       3.391   5.172  18.413  0.00  0.00    +0.000 A 
ATOM      7  C   UNL     1       2.597   4.607  19.429  0.00  0.00    +0.000 A 
ATOM      8 CL   UNL     1       1.752   5.670  20.524  0.00  0.00    +0.000 Cl
ATOM      9  C   UNL     1       2.473   3.219  19.572  0.00  0.00    +0.000 A 
ATOM     10 CL   UNL     1       1.529   2.483  20.821  0.00  0.00    +0.000 Cl
ATOM     11  C   UNL     1       3.129   2.368  18.690  0.00  0.00    +0.000 A 
ATOM     12  C   UNL     1       3.902   2.903  17.664  0.00  0.00    +0.000 A 
ATOM     13  C   UNL     1       4.050   4.299  17.508  0.00  0.00    +0.000 A 
ENDROOT
TORSDOF 0
ENDMDL
MODEL 4
REMARK VINA RESULT:      -6.1      2.616      4.249
REMARK  Name = 
REMARK  1 active torsions:
REMARK  status: ('A' for Active; 'I' for Inactive)
REMARK    1  A    between atoms: C_1  and  C_2
REMARK                            x       y       z     vdW  Elec       q    Type
REMARK                         _______ _______ _______ _____ _____    ______ ____
ROOT
ATOM      1  C   UNL     1       0.865   4.114  20.395  0.00  0.00    +0.000 C 
ATOM      2  C   UNL     1       1.905   3.530  19.475  0.00  0.00    +0.000 A 
ATOM      3  C   UNL     1       2.040   2.142  19.422  0.00  0.00    +0.000 A 
ATOM      4  C   UNL     1       2.973   1.607  18.562  0.00  0.00    +0.000 A 
ATOM      5  N   UNL     1       3.759   2.349  17.760  0.00  0.00    +0.000 NA
ATOM      6  C   UNL     1       3.661   3.698  17.793  0.00  0.00    +0.000 A 
ATOM      7  C   UNL     1       4.476   4.501  16.974  0.00  0.00    +0.000 A 
ATOM      8 CL   UNL     1       5.590   3.724  15.879  0.00  0.00    +0.000 Cl
ATOM      9  C   UNL     1       4.407   5.900  17.020  0.00  0.00    +0.000 A 
ATOM     10 CL   UNL     1       5.407   6.923  16.049  0.00  0.00    +0.000 Cl
ATOM     11  C   UNL     1       3.507   6.522  17.877  0.00  0.00    +0.000 A 
ATOM     12  C   UNL     1       2.675   5.750  18.681  0.00  0.00    +0.000 A 
ATOM     13  C   UNL     1       2.736   4.339  18.659  0.00  0.00    +0.000 A 
ENDROOT
TORSDOF 0
ENDMDL
MODEL 5
REMARK VINA RESULT:      -6.0      2.824      4.475
REMARK  Name = 
REMARK  1 active torsions:
REMARK  status: ('A' for Active; 'I' for Inactive)
REMARK    1  A    between atoms: C_1  and  C_2
REMARK                            x       y       z     vdW  Elec       q    Type
REMARK                         _______ _______ _______ _____ _____    ______ ____
ROOT
ATOM      1  C   UNL     1       1.437   2.997  20.965  0.00  0.00    +0.000 C 
ATOM      2  C   UNL     1       1.933   4.241  20.275  0.00  0.00    +0.000 A 
ATOM      3  C   UNL     1       1.561   5.482  20.794  0.00  0.00    +0.000 A 
ATOM      4  C   UNL     1       2.036   6.618  20.178  0.00  0.00    +0.000 A 
ATOM      5  N   UNL     1       2.847   6.600  19.105  0.00  0.00    +0.000 NA
ATOM      6  C   UNL     1       3.220   5.415  18.570  0.00  0.00    +0.000 A 
ATOM      7  C   UNL     1       4.060   5.364  17.442  0.00  0.00    +0.000 A 
ATOM      8 CL   UNL     1       4.651   6.861  16.767  0.00  0.00    +0.000 Cl
ATOM      9  C   UNL     1       4.429   4.145  16.859  0.00  0.00    +0.000 A 
ATOM     10 CL   UNL     1       5.438   4.038  15.459  0.00  0.00    +0.000 Cl
ATOM     11  C   UNL     1       3.976   2.949  17.405  0.00  0.00    +0.000 A 
ATOM     12  C   UNL     1       3.162   2.972  18.533  0.00  0.00    +0.000 A 
ATOM     13  C   UNL     1       2.769   4.190  19.130  0.00  0.00    +0.000 A 
ENDROOT
TORSDOF 0
ENDMDL
MODEL 6
REMARK VINA RESULT:      -5.9      2.413      4.148
REMARK  Name = 
REMARK  1 active torsions:
REMARK  status: ('A' for Active; 'I' for Inactive)
REMARK    1  A    between atoms: C_1  and  C_2
REMARK                            x       y       z     vdW  Elec       q    Type
REMARK                         _______ _______ _______ _____ _____    ______ ____
ROOT
ATOM      1  C   UNL     1       0.929   4.044  20.374  0.00  0.00    +0.000 C 
ATOM      2  C   UNL     1       2.380   3.739  20.107  0.00  0.00    +0.000 A 
ATOM      3  C   UNL     1       2.934   2.592  20.677  0.00  0.00    +0.000 A 
ATOM      4  C   UNL     1       4.253   2.301  20.412  0.00  0.00    +0.000 A 
ATOM      5  N   UNL     1       5.040   3.058  19.625  0.00  0.00    +0.000 NA
ATOM      6  C   UNL     1       4.538   4.181  19.065  0.00  0.00    +0.000 A 
ATOM      7  C   UNL     1       5.339   4.998  18.244  0.00  0.00    +0.000 A 
ATOM      8 CL   UNL     1       6.984   4.513  17.927  0.00  0.00    +0.000 Cl
ATOM      9  C   UNL     1       4.841   6.181  17.682  0.00  0.00    +0.000 A 
ATOM     10 CL   UNL     1       5.798   7.226  16.690  0.00  0.00    +0.000 Cl
ATOM     11  C   UNL     1       3.525   6.561  17.916  0.00  0.00    +0.000 A 
ATOM     12  C   UNL     1       2.707   5.759  18.706  0.00  0.00    +0.000 A 
ATOM     13  C   UNL     1       3.191   4.569  19.292  0.00  0.00    +0.000 A 
ENDROOT
TORSDOF 0
ENDMDL
MODEL 7
REMARK VINA RESULT:      -5.9      2.268      3.261
REMARK  Name = 
REMARK  1 active torsions:
REMARK  status: ('A' for Active; 'I' for Inactive)
REMARK    1  A    between atoms: C_1  and  C_2
REMARK                            x       y       z     vdW  Elec       q    Type
REMARK                         _______ _______ _______ _____ _____    ______ ____
ROOT
ATOM      1  C   UNL     1       6.836   4.447  15.675  0.00  0.00    +0.000 C 
ATOM      2  C   UNL     1       6.329   4.682  17.073  0.00  0.00    +0.000 A 
ATOM      3  C   UNL     1       7.168   5.323  17.986  0.00  0.00    +0.000 A 
ATOM      4  C   UNL     1       6.694   5.560  19.257  0.00  0.00    +0.000 A 
ATOM      5  N   UNL     1       5.459   5.216  19.668  0.00  0.00    +0.000 NA
ATOM      6  C   UNL     1       4.623   4.586  18.812  0.00  0.00    +0.000 A 
ATOM      7  C   UNL     1       3.330   4.205  19.216  0.00  0.00    +0.000 A 
ATOM      8 CL   UNL     1       2.804   4.600  20.832  0.00  0.00    +0.000 Cl
ATOM      9  C   UNL     1       2.464   3.524  18.350  0.00  0.00    +0.000 A 
ATOM     10 CL   UNL     1       0.877   3.016  18.813  0.00  0.00    +0.000 Cl
ATOM     11  C   UNL     1       2.871   3.225  17.055  0.00  0.00    +0.000 A 
ATOM     12  C   UNL     1       4.138   3.610  16.625  0.00  0.00    +0.000 A 
ATOM     13  C   UNL     1       5.030   4.287  17.485  0.00  0.00    +0.000 A 
ENDROOT
TORSDOF 0
ENDMDL
MODEL 8
REMARK VINA RESULT:      -5.8      1.907      2.971
REMARK  Name = 
REMARK  1 active torsions:
REMARK  status: ('A' for Active; 'I' for Inactive)
REMARK    1  A    between atoms: C_1  and  C_2
REMARK                            x       y       z     vdW  Elec       q    Type
REMARK                         _______ _______ _______ _____ _____    ______ ____
ROOT
ATOM      1  C   UNL     1       5.207   6.120  15.573  0.00  0.00    +0.000 C 
ATOM      2  C   UNL     1       4.631   5.323  16.713  0.00  0.00    +0.000 A 
ATOM      3  C   UNL     1       4.926   3.961  16.789  0.00  0.00    +0.000 A 
ATOM      4  C   UNL     1       4.420   3.239  17.845  0.00  0.00    +0.000 A 
ATOM      5  N   UNL     1       3.660   3.774  18.819  0.00  0.00    +0.000 NA
ATOM      6  C   UNL     1       3.347   5.089  18.772  0.00  0.00    +0.000 A 
ATOM      7  C   UNL     1       2.547   5.676  19.770  0.00  0.00    +0.000 A 
ATOM      8 CL   UNL     1       1.999   4.686  21.097  0.00  0.00    +0.000 Cl
ATOM      9  C   UNL     1       2.189   7.030  19.718  0.00  0.00    +0.000 A 
ATOM     10 CL   UNL     1       1.187   7.785  20.909  0.00  0.00    +0.000 Cl
ATOM     11  C   UNL     1       2.640   7.828  18.672  0.00  0.00    +0.000 A 
ATOM     12  C   UNL     1       3.450   7.276  17.685  0.00  0.00    +0.000 A 
ATOM     13  C   UNL     1       3.814   5.911  17.712  0.00  0.00    +0.000 A 
ENDROOT
TORSDOF 0
ENDMDL
MODEL 9
REMARK VINA RESULT:      -5.8      1.485      1.736
REMARK  Name = 
REMARK  1 active torsions:
REMARK  status: ('A' for Active; 'I' for Inactive)
REMARK    1  A    between atoms: C_1  and  C_2
REMARK                            x       y       z     vdW  Elec       q    Type
REMARK                         _______ _______ _______ _____ _____    ______ ____
ROOT
ATOM      1  C   UNL     1       4.637   7.137  16.287  0.00  0.00    +0.000 C 
ATOM      2  C   UNL     1       5.101   6.030  17.197  0.00  0.00    +0.000 A 
ATOM      3  C   UNL     1       6.473   5.822  17.345  0.00  0.00    +0.000 A 
ATOM      4  C   UNL     1       6.897   4.826  18.196  0.00  0.00    +0.000 A 
ATOM      5  N   UNL     1       6.060   4.045  18.904  0.00  0.00    +0.000 NA
ATOM      6  C   UNL     1       4.724   4.213  18.778  0.00  0.00    +0.000 A 
ATOM      7  C   UNL     1       3.824   3.405  19.497  0.00  0.00    +0.000 A 
ATOM      8 CL   UNL     1       4.463   2.205  20.592  0.00  0.00    +0.000 Cl
ATOM      9  C   UNL     1       2.438   3.547  19.353  0.00  0.00    +0.000 A 
ATOM     10 CL   UNL     1       1.297   2.559  20.198  0.00  0.00    +0.000 Cl
ATOM     11  C   UNL     1       1.924   4.514  18.496  0.00  0.00    +0.000 A 
ATOM     12  C   UNL     1       2.794   5.340  17.791  0.00  0.00    +0.000 A 
ATOM     13  C   UNL     1       4.194   5.206  17.913  0.00  0.00    +0.000 A 
ENDROOT
TORSDOF 0
ENDMDL
