MODEL 1
REMARK VINA RESULT:      -7.2      0.000      0.000
REMARK  Name = 
REMARK  12 active torsions:
REMARK  status: ('A' for Active; 'I' for Inactive)
REMARK    1  A    between atoms: C_1  and  S_2
REMARK    2  A    between atoms: S_2  and  C_3
REMARK    3  A    between atoms: C_6  and  O_7
REMARK    4  A    between atoms: O_7  and  C_8
REMARK    5  A    between atoms: C_11  and  N_12
REMARK    6  A    between atoms: N_12  and  S_13
REMARK    7  A    between atoms: S_13  and  C_14
REMARK    8  A    between atoms: C_18  and  C_19
REMARK    9  A    between atoms: C_19  and  N_20
REMARK   10  A    between atoms: N_20  and  C_21
REMARK   11  A    between atoms: N_20  and  C_22
REMARK   12  A    between atoms: C_24  and  C_25
REMARK                            x       y       z     vdW  Elec       q    Type
REMARK                         _______ _______ _______ _____ _____    ______ ____
ROOT
ATOM      1  C   UNL     1       3.795   5.499  18.850  0.00  0.00    +0.000 A 
ATOM      2  C   UNL     1       5.070   6.085  18.776  0.00  0.00    +0.000 A 
ATOM      3  C   UNL     1       5.999   5.672  17.832  0.00  0.00    +0.000 A 
ATOM      4  C   UNL     1       5.628   4.749  16.867  0.00  0.00    +0.000 A 
ATOM      5  C   UNL     1       4.317   4.268  16.827  0.00  0.00    +0.000 A 
ATOM      6  C   UNL     1       3.396   4.580  17.856  0.00  0.00    +0.000 A 
ENDROOT
BRANCH   4   7
ATOM      7  N   UNL     1       6.591   4.283  15.946  0.00  0.00    +0.000 N 
ATOM      8  H   UNL     1       7.322   3.633  16.234  0.00  0.00    +0.000 HD
BRANCH   7   9
ATOM      9  S   UNL     1       6.748   5.000  14.436  0.00  0.00    +0.000 S 
ATOM     10  C   UNL     1       6.240   3.697  13.336  0.00  0.00    +0.000 C 
ATOM     11  O   UNL     1       5.752   6.042  14.385  0.00  0.00    +0.000 OA
ATOM     12  O   UNL     1       8.150   5.295  14.198  0.00  0.00    +0.000 OA
ENDBRANCH   7   9
ENDBRANCH   4   7
BRANCH   1  13
ATOM     13  O   UNL     1       2.913   5.844  19.862  0.00  0.00    +0.000 OA
BRANCH  13  17
ATOM     14  C   UNL     1       0.910   9.535  19.570  0.00  0.00    +0.000 A 
ATOM     15  C   UNL     1       1.651   9.007  18.500  0.00  0.00    +0.000 A 
ATOM     16  C   UNL     1       2.315   7.778  18.617  0.00  0.00    +0.000 A 
ATOM     17  C   UNL     1       2.282   7.078  19.820  0.00  0.00    +0.000 A 
ATOM     18  C   UNL     1       1.544   7.602  20.888  0.00  0.00    +0.000 A 
ATOM     19  C   UNL     1       0.817   8.800  20.765  0.00  0.00    +0.000 A 
ATOM     20  C   UNL     1      -0.096   9.180  21.898  0.00  0.00    +0.000 C 
BRANCH  14  22
ATOM     21  C   UNL     1      -1.420  10.439  18.393  0.00  0.00    +0.000 C 
ATOM     22  S   UNL     1       0.017  11.066  19.306  0.00  0.00    +0.000 S 
ENDBRANCH  14  22
ENDBRANCH  13  17
ENDBRANCH   1  13
BRANCH   6  23
ATOM     23  C   UNL     1       2.040   3.881  17.853  0.00  0.00    +0.000 C 
BRANCH  23  24
ATOM     24  N   UNL     1       1.903   2.828  18.889  0.00  0.00    +0.000 NA
ATOM     25  C   UNL     1       0.570   2.216  18.893  0.00  0.00    +0.000 C 
ATOM     26  C   UNL     1       2.895   1.762  18.668  0.00  0.00    +0.000 C 
ENDBRANCH  23  24
ENDBRANCH   6  23
TORSDOF 7
ENDMDL
MODEL 2
REMARK VINA RESULT:      -7.2      0.805      1.736
REMARK  Name = 
REMARK  12 active torsions:
REMARK  status: ('A' for Active; 'I' for Inactive)
REMARK    1  A    between atoms: C_1  and  S_2
REMARK    2  A    between atoms: S_2  and  C_3
REMARK    3  A    between atoms: C_6  and  O_7
REMARK    4  A    between atoms: O_7  and  C_8
REMARK    5  A    between atoms: C_11  and  N_12
REMARK    6  A    between atoms: N_12  and  S_13
REMARK    7  A    between atoms: S_13  and  C_14
REMARK    8  A    between atoms: C_18  and  C_19
REMARK    9  A    between atoms: C_19  and  N_20
REMARK   10  A    between atoms: N_20  and  C_21
REMARK   11  A    between atoms: N_20  and  C_22
REMARK   12  A    between atoms: C_24  and  C_25
REMARK                            x       y       z     vdW  Elec       q    Type
REMARK                         _______ _______ _______ _____ _____    ______ ____
ROOT
ATOM      1  C   UNL     1       3.566   5.341  19.117  0.00  0.00    +0.000 A 
ATOM      2  C   UNL     1       4.914   5.742  19.128  0.00  0.00    +0.000 A 
ATOM      3  C   UNL     1       5.805   5.299  18.161  0.00  0.00    +0.000 A 
ATOM      4  C   UNL     1       5.339   4.543  17.097  0.00  0.00    +0.000 A 
ATOM      5  C   UNL     1       3.975   4.262  16.983  0.00  0.00    +0.000 A 
ATOM      6  C   UNL     1       3.075   4.596  18.024  0.00  0.00    +0.000 A 
ENDROOT
BRANCH   4   7
ATOM      7  N   UNL     1       6.257   4.042  16.149  0.00  0.00    +0.000 N 
ATOM      8  H   UNL     1       6.889   3.278  16.383  0.00  0.00    +0.000 HD
BRANCH   7   9
ATOM      9  S   UNL     1       6.543   4.867  14.716  0.00  0.00    +0.000 S 
ATOM     10  C   UNL     1       6.075   3.673  13.482  0.00  0.00    +0.000 C 
ATOM     11  O   UNL     1       5.585   5.945  14.679  0.00  0.00    +0.000 OA
ATOM     12  O   UNL     1       7.967   5.129  14.599  0.00  0.00    +0.000 OA
ENDBRANCH   7   9
ENDBRANCH   4   7
BRANCH   1  13
ATOM     13  O   UNL     1       2.710   5.703  20.145  0.00  0.00    +0.000 OA
BRANCH  13  17
ATOM     14  C   UNL     1       0.690   9.396  20.067  0.00  0.00    +0.000 A 
ATOM     15  C   UNL     1       0.582   8.514  21.155  0.00  0.00    +0.000 A 
ATOM     16  C   UNL     1       1.259   7.287  21.162  0.00  0.00    +0.000 A 
ATOM     17  C   UNL     1       2.022   6.903  20.062  0.00  0.00    +0.000 A 
ATOM     18  C   UNL     1       2.131   7.780  18.976  0.00  0.00    +0.000 A 
ATOM     19  C   UNL     1       1.513   9.043  18.983  0.00  0.00    +0.000 A 
ATOM     20  C   UNL     1       1.846   9.988  17.860  0.00  0.00    +0.000 C 
BRANCH  14  22
ATOM     21  C   UNL     1       1.217  11.992  20.851  0.00  0.00    +0.000 C 
ATOM     22  S   UNL     1      -0.133  10.983  20.179  0.00  0.00    +0.000 S 
ENDBRANCH  14  22
ENDBRANCH  13  17
ENDBRANCH   1  13
BRANCH   6  23
ATOM     23  C   UNL     1       1.635   4.103  17.922  0.00  0.00    +0.000 C 
BRANCH  23  24
ATOM     24  N   UNL     1       1.419   2.752  18.498  0.00  0.00    +0.000 NA
ATOM     25  C   UNL     1       2.661   1.976  18.587  0.00  0.00    +0.000 C 
ATOM     26  C   UNL     1       0.847   2.859  19.851  0.00  0.00    +0.000 C 
ENDBRANCH  23  24
ENDBRANCH   6  23
TORSDOF 7
ENDMDL
MODEL 3
REMARK VINA RESULT:      -7.1      0.998      1.250
REMARK  Name = 
REMARK  12 active torsions:
REMARK  status: ('A' for Active; 'I' for Inactive)
REMARK    1  A    between atoms: C_1  and  S_2
REMARK    2  A    between atoms: S_2  and  C_3
REMARK    3  A    between atoms: C_6  and  O_7
REMARK    4  A    between atoms: O_7  and  C_8
REMARK    5  A    between atoms: C_11  and  N_12
REMARK    6  A    between atoms: N_12  and  S_13
REMARK    7  A    between atoms: S_13  and  C_14
REMARK    8  A    between atoms: C_18  and  C_19
REMARK    9  A    between atoms: C_19  and  N_20
REMARK   10  A    between atoms: N_20  and  C_21
REMARK   11  A    between atoms: N_20  and  C_22
REMARK   12  A    between atoms: C_24  and  C_25
REMARK                            x       y       z     vdW  Elec       q    Type
REMARK                         _______ _______ _______ _____ _____    ______ ____
ROOT
ATOM      1  C   UNL     1       3.422   5.315  19.134  0.00  0.00    +0.000 A 
ATOM      2  C   UNL     1       4.786   5.642  19.049  0.00  0.00    +0.000 A 
ATOM      3  C   UNL     1       5.612   5.046  18.107  0.00  0.00    +0.000 A 
ATOM      4  C   UNL     1       5.064   4.201  17.154  0.00  0.00    +0.000 A 
ATOM      5  C   UNL     1       3.685   3.982  17.124  0.00  0.00    +0.000 A 
ATOM      6  C   UNL     1       2.848   4.479  18.153  0.00  0.00    +0.000 A 
ENDROOT
BRANCH   4   7
ATOM      7  N   UNL     1       5.915   3.548  16.236  0.00  0.00    +0.000 N 
ATOM      8  H   UNL     1       6.337   2.647  16.460  0.00  0.00    +0.000 HD
BRANCH   7   9
ATOM      9  S   UNL     1       6.491   4.354  14.881  0.00  0.00    +0.000 S 
ATOM     10  C   UNL     1       5.409   5.762  14.781  0.00  0.00    +0.000 C 
ATOM     11  O   UNL     1       7.809   4.825  15.230  0.00  0.00    +0.000 OA
ATOM     12  O   UNL     1       6.283   3.517  13.712  0.00  0.00    +0.000 OA
ENDBRANCH   7   9
ENDBRANCH   4   7
BRANCH   1  13
ATOM     13  O   UNL     1       2.629   5.835  20.145  0.00  0.00    +0.000 OA
BRANCH  13  17
ATOM     14  C   UNL     1       0.938   9.645  19.554  0.00  0.00    +0.000 A 
ATOM     15  C   UNL     1       1.656   8.988  18.542  0.00  0.00    +0.000 A 
ATOM     16  C   UNL     1       2.216   7.720  18.758  0.00  0.00    +0.000 A 
ATOM     17  C   UNL     1       2.101   7.109  20.004  0.00  0.00    +0.000 A 
ATOM     18  C   UNL     1       1.387   7.763  21.014  0.00  0.00    +0.000 A 
ATOM     19  C   UNL     1       0.762   9.003  20.793  0.00  0.00    +0.000 A 
ATOM     20  C   UNL     1      -0.141   9.532  21.874  0.00  0.00    +0.000 C 
BRANCH  14  22
ATOM     21  C   UNL     1      -1.221  10.655  18.159  0.00  0.00    +0.000 C 
ATOM     22  S   UNL     1       0.178  11.220  19.166  0.00  0.00    +0.000 S 
ENDBRANCH  14  22
ENDBRANCH  13  17
ENDBRANCH   1  13
BRANCH   6  23
ATOM     23  C   UNL     1       1.382   4.055  18.163  0.00  0.00    +0.000 C 
BRANCH  23  24
ATOM     24  N   UNL     1       1.118   2.818  18.939  0.00  0.00    +0.000 NA
ATOM     25  C   UNL     1       2.268   1.907  18.949  0.00  0.00    +0.000 C 
ATOM     26  C   UNL     1       0.786   3.152  20.334  0.00  0.00    +0.000 C 
ENDBRANCH  23  24
ENDBRANCH   6  23
TORSDOF 7
ENDMDL
MODEL 4
REMARK VINA RESULT:      -7.1      0.895      1.153
REMARK  Name = 
REMARK  12 active torsions:
REMARK  status: ('A' for Active; 'I' for Inactive)
REMARK    1  A    between atoms: C_1  and  S_2
REMARK    2  A    between atoms: S_2  and  C_3
REMARK    3  A    between atoms: C_6  and  O_7
REMARK    4  A    between atoms: O_7  and  C_8
REMARK    5  A    between atoms: C_11  and  N_12
REMARK    6  A    between atoms: N_12  and  S_13
REMARK    7  A    between atoms: S_13  and  C_14
REMARK    8  A    between atoms: C_18  and  C_19
REMARK    9  A    between atoms: C_19  and  N_20
REMARK   10  A    between atoms: N_20  and  C_21
REMARK   11  A    between atoms: N_20  and  C_22
REMARK   12  A    between atoms: C_24  and  C_25
REMARK                            x       y       z     vdW  Elec       q    Type
REMARK                         _______ _______ _______ _____ _____    ______ ____
ROOT
ATOM      1  C   UNL     1       3.317   5.450  19.002  0.00  0.00    +0.000 A 
ATOM      2  C   UNL     1       4.629   5.894  18.761  0.00  0.00    +0.000 A 
ATOM      3  C   UNL     1       5.415   5.317  17.773  0.00  0.00    +0.000 A 
ATOM      4  C   UNL     1       4.862   4.366  16.929  0.00  0.00    +0.000 A 
ATOM      5  C   UNL     1       3.514   4.021  17.052  0.00  0.00    +0.000 A 
ATOM      6  C   UNL     1       2.735   4.504  18.131  0.00  0.00    +0.000 A 
ENDROOT
BRANCH   4   7
ATOM      7  N   UNL     1       5.680   3.736  15.966  0.00  0.00    +0.000 N 
ATOM      8  H   UNL     1       5.956   2.760  16.070  0.00  0.00    +0.000 HD
BRANCH   7   9
ATOM      9  S   UNL     1       6.460   4.637  14.785  0.00  0.00    +0.000 S 
ATOM     10  C   UNL     1       6.246   3.635  13.330  0.00  0.00    +0.000 C 
ATOM     11  O   UNL     1       5.679   5.838  14.619  0.00  0.00    +0.000 OA
ATOM     12  O   UNL     1       7.876   4.705  15.104  0.00  0.00    +0.000 OA
ENDBRANCH   7   9
ENDBRANCH   4   7
BRANCH   1  13
ATOM     13  O   UNL     1       2.579   5.959  20.058  0.00  0.00    +0.000 OA
BRANCH  13  17
ATOM     14  C   UNL     1       0.865   9.776  19.588  0.00  0.00    +0.000 A 
ATOM     15  C   UNL     1       1.590   9.157  18.556  0.00  0.00    +0.000 A 
ATOM     16  C   UNL     1       2.157   7.887  18.732  0.00  0.00    +0.000 A 
ATOM     17  C   UNL     1       2.043   7.234  19.957  0.00  0.00    +0.000 A 
ATOM     18  C   UNL     1       1.321   7.849  20.987  0.00  0.00    +0.000 A 
ATOM     19  C   UNL     1       0.689   9.092  20.804  0.00  0.00    +0.000 A 
ATOM     20  C   UNL     1      -0.221   9.579  21.899  0.00  0.00    +0.000 C 
BRANCH  14  22
ATOM     21  C   UNL     1       1.573  12.394  19.068  0.00  0.00    +0.000 C 
ATOM     22  S   UNL     1       0.095  11.358  19.249  0.00  0.00    +0.000 S 
ENDBRANCH  14  22
ENDBRANCH  13  17
ENDBRANCH   1  13
BRANCH   6  23
ATOM     23  C   UNL     1       1.326   3.950  18.313  0.00  0.00    +0.000 C 
BRANCH  23  24
ATOM     24  N   UNL     1       1.271   2.686  19.089  0.00  0.00    +0.000 NA
ATOM     25  C   UNL     1       2.505   1.902  18.970  0.00  0.00    +0.000 C 
ATOM     26  C   UNL     1       1.046   2.973  20.516  0.00  0.00    +0.000 C 
ENDBRANCH  23  24
ENDBRANCH   6  23
TORSDOF 7
ENDMDL
MODEL 5
REMARK VINA RESULT:      -7.0      1.141      1.892
REMARK  Name = 
REMARK  12 active torsions:
REMARK  status: ('A' for Active; 'I' for Inactive)
REMARK    1  A    between atoms: C_1  and  S_2
REMARK    2  A    between atoms: S_2  and  C_3
REMARK    3  A    between atoms: C_6  and  O_7
REMARK    4  A    between atoms: O_7  and  C_8
REMARK    5  A    between atoms: C_11  and  N_12
REMARK    6  A    between atoms: N_12  and  S_13
REMARK    7  A    between atoms: S_13  and  C_14
REMARK    8  A    between atoms: C_18  and  C_19
REMARK    9  A    between atoms: C_19  and  N_20
REMARK   10  A    between atoms: N_20  and  C_21
REMARK   11  A    between atoms: N_20  and  C_22
REMARK   12  A    between atoms: C_24  and  C_25
REMARK                            x       y       z     vdW  Elec       q    Type
REMARK                         _______ _______ _______ _____ _____    ______ ____
ROOT
ATOM      1  C   UNL     1       3.368   5.216  19.321  0.00  0.00    +0.000 A 
ATOM      2  C   UNL     1       4.739   5.514  19.236  0.00  0.00    +0.000 A 
ATOM      3  C   UNL     1       5.547   4.922  18.275  0.00  0.00    +0.000 A 
ATOM      4  C   UNL     1       4.974   4.114  17.306  0.00  0.00    +0.000 A 
ATOM      5  C   UNL     1       3.590   3.927  17.278  0.00  0.00    +0.000 A 
ATOM      6  C   UNL     1       2.770   4.417  18.323  0.00  0.00    +0.000 A 
ENDROOT
BRANCH   4   7
ATOM      7  N   UNL     1       5.804   3.463  16.367  0.00  0.00    +0.000 N 
ATOM      8  H   UNL     1       6.138   2.514  16.530  0.00  0.00    +0.000 HD
BRANCH   7   9
ATOM      9  S   UNL     1       6.506   4.321  15.106  0.00  0.00    +0.000 S 
ATOM     10  C   UNL     1       5.493   5.782  15.023  0.00  0.00    +0.000 C 
ATOM     11  O   UNL     1       7.815   4.711  15.570  0.00  0.00    +0.000 OA
ATOM     12  O   UNL     1       6.343   3.567  13.876  0.00  0.00    +0.000 OA
ENDBRANCH   7   9
ENDBRANCH   4   7
BRANCH   1  13
ATOM     13  O   UNL     1       2.593   5.730  20.349  0.00  0.00    +0.000 OA
BRANCH  13  17
ATOM     14  C   UNL     1       0.780   9.514  20.011  0.00  0.00    +0.000 A 
ATOM     15  C   UNL     1       0.599   8.704  21.144  0.00  0.00    +0.000 A 
ATOM     16  C   UNL     1       1.207   7.444  21.237  0.00  0.00    +0.000 A 
ATOM     17  C   UNL     1       1.973   6.958  20.181  0.00  0.00    +0.000 A 
ATOM     18  C   UNL     1       2.156   7.764  19.051  0.00  0.00    +0.000 A 
ATOM     19  C   UNL     1       1.607   9.057  18.970  0.00  0.00    +0.000 A 
ATOM     20  C   UNL     1       2.017   9.916  17.806  0.00  0.00    +0.000 C 
BRANCH  14  22
ATOM     21  C   UNL     1      -1.439  10.824  19.016  0.00  0.00    +0.000 C 
ATOM     22  S   UNL     1       0.042  11.147  20.013  0.00  0.00    +0.000 S 
ENDBRANCH  14  22
ENDBRANCH  13  17
ENDBRANCH   1  13
BRANCH   6  23
ATOM     23  C   UNL     1       1.295   4.027  18.332  0.00  0.00    +0.000 C 
BRANCH  23  24
ATOM     24  N   UNL     1       1.005   2.782  19.086  0.00  0.00    +0.000 NA
ATOM     25  C   UNL     1       2.050   1.767  18.913  0.00  0.00    +0.000 C 
ATOM     26  C   UNL     1       0.885   3.074  20.525  0.00  0.00    +0.000 C 
ENDBRANCH  23  24
ENDBRANCH   6  23
TORSDOF 7
ENDMDL
MODEL 6
REMARK VINA RESULT:      -6.9      0.750      1.579
REMARK  Name = 
REMARK  12 active torsions:
REMARK  status: ('A' for Active; 'I' for Inactive)
REMARK    1  A    between atoms: C_1  and  S_2
REMARK    2  A    between atoms: S_2  and  C_3
REMARK    3  A    between atoms: C_6  and  O_7
REMARK    4  A    between atoms: O_7  and  C_8
REMARK    5  A    between atoms: C_11  and  N_12
REMARK    6  A    between atoms: N_12  and  S_13
REMARK    7  A    between atoms: S_13  and  C_14
REMARK    8  A    between atoms: C_18  and  C_19
REMARK    9  A    between atoms: C_19  and  N_20
REMARK   10  A    between atoms: N_20  and  C_21
REMARK   11  A    between atoms: N_20  and  C_22
REMARK   12  A    between atoms: C_24  and  C_25
REMARK                            x       y       z     vdW  Elec       q    Type
REMARK                         _______ _______ _______ _____ _____    ______ ____
ROOT
ATOM      1  C   UNL     1       3.502   5.614  19.219  0.00  0.00    +0.000 A 
ATOM      2  C   UNL     1       4.801   6.108  19.010  0.00  0.00    +0.000 A 
ATOM      3  C   UNL     1       5.624   5.578  18.027  0.00  0.00    +0.000 A 
ATOM      4  C   UNL     1       5.121   4.624  17.156  0.00  0.00    +0.000 A 
ATOM      5  C   UNL     1       3.784   4.230  17.247  0.00  0.00    +0.000 A 
ATOM      6  C   UNL     1       2.970   4.665  18.321  0.00  0.00    +0.000 A 
ENDROOT
BRANCH   4   7
ATOM      7  N   UNL     1       5.978   4.041  16.197  0.00  0.00    +0.000 N 
ATOM      8  H   UNL     1       6.490   3.184  16.403  0.00  0.00    +0.000 HD
BRANCH   7   9
ATOM      9  S   UNL     1       6.408   4.883  14.810  0.00  0.00    +0.000 S 
ATOM     10  C   UNL     1       6.136   3.680  13.528  0.00  0.00    +0.000 C 
ATOM     11  O   UNL     1       5.426   5.928  14.658  0.00  0.00    +0.000 OA
ATOM     12  O   UNL     1       7.826   5.194  14.869  0.00  0.00    +0.000 OA
ENDBRANCH   7   9
ENDBRANCH   4   7
BRANCH   1  13
ATOM     13  O   UNL     1       2.727   6.078  20.270  0.00  0.00    +0.000 OA
BRANCH  13  17
ATOM     14  C   UNL     1       0.692   9.753  20.002  0.00  0.00    +0.000 A 
ATOM     15  C   UNL     1       0.613   8.944  21.147  0.00  0.00    +0.000 A 
ATOM     16  C   UNL     1       1.294   7.721  21.217  0.00  0.00    +0.000 A 
ATOM     17  C   UNL     1       2.033   7.269  20.126  0.00  0.00    +0.000 A 
ATOM     18  C   UNL     1       2.114   8.073  18.984  0.00  0.00    +0.000 A 
ATOM     19  C   UNL     1       1.491   9.333  18.923  0.00  0.00    +0.000 A 
ATOM     20  C   UNL     1       1.794  10.204  17.735  0.00  0.00    +0.000 C 
BRANCH  14  22
ATOM     21  C   UNL     1      -1.605  10.951  19.044  0.00  0.00    +0.000 C 
ATOM     22  S   UNL     1      -0.134  11.343  20.030  0.00  0.00    +0.000 S 
ENDBRANCH  14  22
ENDBRANCH  13  17
ENDBRANCH   1  13
BRANCH   6  23
ATOM     23  C   UNL     1       1.577   4.058  18.466  0.00  0.00    +0.000 C 
BRANCH  23  24
ATOM     24  N   UNL     1       1.542   2.823  19.289  0.00  0.00    +0.000 NA
ATOM     25  C   UNL     1       1.191   3.093  20.688  0.00  0.00    +0.000 C 
ATOM     26  C   UNL     1       0.555   1.875  18.743  0.00  0.00    +0.000 C 
ENDBRANCH  23  24
ENDBRANCH   6  23
TORSDOF 7
ENDMDL
MODEL 7
REMARK VINA RESULT:      -6.7      2.065      2.550
REMARK  Name = 
REMARK  12 active torsions:
REMARK  status: ('A' for Active; 'I' for Inactive)
REMARK    1  A    between atoms: C_1  and  S_2
REMARK    2  A    between atoms: S_2  and  C_3
REMARK    3  A    between atoms: C_6  and  O_7
REMARK    4  A    between atoms: O_7  and  C_8
REMARK    5  A    between atoms: C_11  and  N_12
REMARK    6  A    between atoms: N_12  and  S_13
REMARK    7  A    between atoms: S_13  and  C_14
REMARK    8  A    between atoms: C_18  and  C_19
REMARK    9  A    between atoms: C_19  and  N_20
REMARK   10  A    between atoms: N_20  and  C_21
REMARK   11  A    between atoms: N_20  and  C_22
REMARK   12  A    between atoms: C_24  and  C_25
REMARK                            x       y       z     vdW  Elec       q    Type
REMARK                         _______ _______ _______ _____ _____    ______ ____
ROOT
ATOM      1  C   UNL     1       2.653   7.116  18.419  0.00  0.00    +0.000 A 
ATOM      2  C   UNL     1       3.578   7.595  17.476  0.00  0.00    +0.000 A 
ATOM      3  C   UNL     1       4.878   7.113  17.431  0.00  0.00    +0.000 A 
ATOM      4  C   UNL     1       5.242   6.056  18.252  0.00  0.00    +0.000 A 
ATOM      5  C   UNL     1       4.295   5.462  19.089  0.00  0.00    +0.000 A 
ATOM      6  C   UNL     1       3.003   6.023  19.239  0.00  0.00    +0.000 A 
ENDROOT
BRANCH   4   7
ATOM      7  N   UNL     1       6.581   5.608  18.251  0.00  0.00    +0.000 N 
ATOM      8  H   UNL     1       7.212   5.837  19.018  0.00  0.00    +0.000 HD
BRANCH   7   9
ATOM      9  S   UNL     1       7.258   4.941  16.867  0.00  0.00    +0.000 S 
ATOM     10  C   UNL     1       5.911   3.990  16.198  0.00  0.00    +0.000 C 
ATOM     11  O   UNL     1       7.512   6.046  15.976  0.00  0.00    +0.000 OA
ATOM     12  O   UNL     1       8.325   4.035  17.255  0.00  0.00    +0.000 OA
ENDBRANCH   7   9
ENDBRANCH   4   7
BRANCH   1  13
ATOM     13  O   UNL     1       1.390   7.679  18.524  0.00  0.00    +0.000 OA
BRANCH  13  17
ATOM     14  C   UNL     1       0.813  11.395  20.417  0.00  0.00    +0.000 A 
ATOM     15  C   UNL     1       1.182  11.301  19.065  0.00  0.00    +0.000 A 
ATOM     16  C   UNL     1       1.374  10.055  18.452  0.00  0.00    +0.000 A 
ATOM     17  C   UNL     1       1.240   8.883  19.193  0.00  0.00    +0.000 A 
ATOM     18  C   UNL     1       0.872   8.974  20.541  0.00  0.00    +0.000 A 
ATOM     19  C   UNL     1       0.611  10.214  21.153  0.00  0.00    +0.000 A 
ATOM     20  C   UNL     1       0.037  10.197  22.543  0.00  0.00    +0.000 C 
BRANCH  14  22
ATOM     21  C   UNL     1       1.345  14.048  19.863  0.00  0.00    +0.000 C 
ATOM     22  S   UNL     1       0.499  13.023  21.097  0.00  0.00    +0.000 S 
ENDBRANCH  14  22
ENDBRANCH  13  17
ENDBRANCH   1  13
BRANCH   6  23
ATOM     23  C   UNL     1       2.077   5.437  20.301  0.00  0.00    +0.000 C 
BRANCH  23  24
ATOM     24  N   UNL     1       2.083   3.954  20.353  0.00  0.00    +0.000 NA
ATOM     25  C   UNL     1       2.113   3.442  21.728  0.00  0.00    +0.000 C 
ATOM     26  C   UNL     1       0.883   3.416  19.690  0.00  0.00    +0.000 C 
ENDBRANCH  23  24
ENDBRANCH   6  23
TORSDOF 7
ENDMDL
MODEL 8
REMARK VINA RESULT:      -6.7      3.103      5.767
REMARK  Name = 
REMARK  12 active torsions:
REMARK  status: ('A' for Active; 'I' for Inactive)
REMARK    1  A    between atoms: C_1  and  S_2
REMARK    2  A    between atoms: S_2  and  C_3
REMARK    3  A    between atoms: C_6  and  O_7
REMARK    4  A    between atoms: O_7  and  C_8
REMARK    5  A    between atoms: C_11  and  N_12
REMARK    6  A    between atoms: N_12  and  S_13
REMARK    7  A    between atoms: S_13  and  C_14
REMARK    8  A    between atoms: C_18  and  C_19
REMARK    9  A    between atoms: C_19  and  N_20
REMARK   10  A    between atoms: N_20  and  C_21
REMARK   11  A    between atoms: N_20  and  C_22
REMARK   12  A    between atoms: C_24  and  C_25
REMARK                            x       y       z     vdW  Elec       q    Type
REMARK                         _______ _______ _______ _____ _____    ______ ____
ROOT
ATOM      1  C   UNL     1       1.177   9.528  19.075  0.00  0.00    +0.000 A 
ATOM      2  C   UNL     1       2.044   9.202  18.018  0.00  0.00    +0.000 A 
ATOM      3  C   UNL     1       2.788   8.030  18.032  0.00  0.00    +0.000 A 
ATOM      4  C   UNL     1       2.587   7.106  19.046  0.00  0.00    +0.000 A 
ATOM      5  C   UNL     1       1.618   7.340  20.024  0.00  0.00    +0.000 A 
ATOM      6  C   UNL     1       0.945   8.583  20.097  0.00  0.00    +0.000 A 
ENDROOT
BRANCH   4   7
ATOM      7  N   UNL     1       3.388   5.944  19.092  0.00  0.00    +0.000 N 
ATOM      8  H   UNL     1       4.198   5.889  19.709  0.00  0.00    +0.000 HD
BRANCH   7   9
ATOM      9  S   UNL     1       3.216   4.740  17.936  0.00  0.00    +0.000 S 
ATOM     10  C   UNL     1       3.679   3.275  18.832  0.00  0.00    +0.000 C 
ATOM     11  O   UNL     1       1.804   4.662  17.650  0.00  0.00    +0.000 OA
ATOM     12  O   UNL     1       4.180   4.965  16.873  0.00  0.00    +0.000 OA
ENDBRANCH   7   9
ENDBRANCH   4   7
BRANCH   1  13
ATOM     13  O   UNL     1       0.521  10.748  19.103  0.00  0.00    +0.000 OA
BRANCH  13  17
ATOM     14  C   UNL     1      -3.434  11.173  17.722  0.00  0.00    +0.000 A 
ATOM     15  C   UNL     1      -2.972  11.844  18.866  0.00  0.00    +0.000 A 
ATOM     16  C   UNL     1      -1.652  11.688  19.313  0.00  0.00    +0.000 A 
ATOM     17  C   UNL     1      -0.786  10.825  18.647  0.00  0.00    +0.000 A 
ATOM     18  C   UNL     1      -1.245  10.154  17.507  0.00  0.00    +0.000 A 
ATOM     19  C   UNL     1      -2.544  10.352  17.007  0.00  0.00    +0.000 A 
ATOM     20  C   UNL     1      -2.878   9.740  15.674  0.00  0.00    +0.000 C 
BRANCH  14  22
ATOM     21  C   UNL     1      -6.041  10.817  18.563  0.00  0.00    +0.000 C 
ATOM     22  S   UNL     1      -5.106  11.500  17.167  0.00  0.00    +0.000 S 
ENDBRANCH  14  22
ENDBRANCH  13  17
ENDBRANCH   1  13
BRANCH   6  23
ATOM     23  C   UNL     1       0.033   8.845  21.292  0.00  0.00    +0.000 C 
BRANCH  23  24
ATOM     24  N   UNL     1       0.519   9.915  22.198  0.00  0.00    +0.000 NA
ATOM     25  C   UNL     1      -0.549  10.464  23.040  0.00  0.00    +0.000 C 
ATOM     26  C   UNL     1       1.577   9.395  23.080  0.00  0.00    +0.000 C 
ENDBRANCH  23  24
ENDBRANCH   6  23
TORSDOF 7
ENDMDL
MODEL 9
REMARK VINA RESULT:      -6.6      1.753      2.006
REMARK  Name = 
REMARK  12 active torsions:
REMARK  status: ('A' for Active; 'I' for Inactive)
REMARK    1  A    between atoms: C_1  and  S_2
REMARK    2  A    between atoms: S_2  and  C_3
REMARK    3  A    between atoms: C_6  and  O_7
REMARK    4  A    between atoms: O_7  and  C_8
REMARK    5  A    between atoms: C_11  and  N_12
REMARK    6  A    between atoms: N_12  and  S_13
REMARK    7  A    between atoms: S_13  and  C_14
REMARK    8  A    between atoms: C_18  and  C_19
REMARK    9  A    between atoms: C_19  and  N_20
REMARK   10  A    between atoms: N_20  and  C_21
REMARK   11  A    between atoms: N_20  and  C_22
REMARK   12  A    between atoms: C_24  and  C_25
REMARK                            x       y       z     vdW  Elec       q    Type
REMARK                         _______ _______ _______ _____ _____    ______ ____
ROOT
ATOM      1  C   UNL     1       2.742   6.412  19.035  0.00  0.00    +0.000 A 
ATOM      2  C   UNL     1       3.476   7.398  18.353  0.00  0.00    +0.000 A 
ATOM      3  C   UNL     1       4.375   7.062  17.351  0.00  0.00    +0.000 A 
ATOM      4  C   UNL     1       4.469   5.744  16.932  0.00  0.00    +0.000 A 
ATOM      5  C   UNL     1       3.637   4.771  17.490  0.00  0.00    +0.000 A 
ATOM      6  C   UNL     1       2.808   5.072  18.598  0.00  0.00    +0.000 A 
ENDROOT
BRANCH   4   7
ATOM      7  N   UNL     1       5.429   5.394  15.957  0.00  0.00    +0.000 N 
ATOM      8  H   UNL     1       5.151   4.951  15.082  0.00  0.00    +0.000 HD
BRANCH   7   9
ATOM      9  S   UNL     1       7.067   5.423  16.320  0.00  0.00    +0.000 S 
ATOM     10  C   UNL     1       7.122   4.644  17.919  0.00  0.00    +0.000 C 
ATOM     11  O   UNL     1       7.701   4.541  15.371  0.00  0.00    +0.000 OA
ATOM     12  O   UNL     1       7.495   6.805  16.456  0.00  0.00    +0.000 OA
ENDBRANCH   7   9
ENDBRANCH   4   7
BRANCH   1  13
ATOM     13  O   UNL     1       1.926   6.748  20.104  0.00  0.00    +0.000 OA
BRANCH  13  17
ATOM     14  C   UNL     1       0.464  10.689  20.339  0.00  0.00    +0.000 A 
ATOM     15  C   UNL     1       0.985  10.162  19.146  0.00  0.00    +0.000 A 
ATOM     16  C   UNL     1       1.472   8.848  19.087  0.00  0.00    +0.000 A 
ATOM     17  C   UNL     1       1.482   8.055  20.232  0.00  0.00    +0.000 A 
ATOM     18  C   UNL     1       0.963   8.579  21.422  0.00  0.00    +0.000 A 
ATOM     19  C   UNL     1       0.410   9.871  21.481  0.00  0.00    +0.000 A 
ATOM     20  C   UNL     1      -0.295  10.270  22.749  0.00  0.00    +0.000 C 
BRANCH  14  22
ATOM     21  C   UNL     1      -1.922  11.972  19.798  0.00  0.00    +0.000 C 
ATOM     22  S   UNL     1      -0.220  12.345  20.304  0.00  0.00    +0.000 S 
ENDBRANCH  14  22
ENDBRANCH  13  17
ENDBRANCH   1  13
BRANCH   6  23
ATOM     23  C   UNL     1       2.061   3.928  19.277  0.00  0.00    +0.000 C 
BRANCH  23  24
ATOM     24  N   UNL     1       2.658   3.502  20.567  0.00  0.00    +0.000 NA
ATOM     25  C   UNL     1       1.678   2.862  21.452  0.00  0.00    +0.000 C 
ATOM     26  C   UNL     1       3.754   2.547  20.331  0.00  0.00    +0.000 C 
ENDBRANCH  23  24
ENDBRANCH   6  23
TORSDOF 7
ENDMDL
