MODEL 1
REMARK VINA RESULT:      -7.4      0.000      0.000
REMARK  Name = 
REMARK  7 active torsions:
REMARK  status: ('A' for Active; 'I' for Inactive)
REMARK    1  A    between atoms: C_2  and  C_3
REMARK    2  A    between atoms: C_3  and  N_4
REMARK    3  A    between atoms: N_4  and  C_21
REMARK    4  A    between atoms: C_5  and  C_7
REMARK    5  A    between atoms: C_7  and  C_8
REMARK    6  A    between atoms: C_8  and  S_9
REMARK    7  A    between atoms: S_9  and  C_12
REMARK                            x       y       z     vdW  Elec       q    Type
REMARK                         _______ _______ _______ _____ _____    ______ ____
ROOT
ATOM      1  C   UNL     1       2.277   7.425  17.932  0.00  0.00    +0.000 C 
ENDROOT
BRANCH   1   3
ATOM      2  N   UNL     1       3.864   5.586  18.452  0.00  0.00    +0.000 N 
ATOM      3  C   UNL     1       3.670   6.810  17.805  0.00  0.00    +0.000 C 
ATOM      4  O   UNL     1       4.533   7.350  17.113  0.00  0.00    +0.000 OA
BRANCH   2   5
ATOM      5  C   UNL     1       2.762   4.835  18.931  0.00  0.00    +0.000 A 
ATOM      6  C   UNL     1       2.444   4.846  20.295  0.00  0.00    +0.000 A 
ATOM      7  C   UNL     1       1.458   3.986  20.781  0.00  0.00    +0.000 A 
ATOM      8  C   UNL     1       0.793   3.123  19.909  0.00  0.00    +0.000 A 
ATOM      9  C   UNL     1       1.101   3.126  18.548  0.00  0.00    +0.000 A 
ATOM     10  C   UNL     1       2.084   3.986  18.056  0.00  0.00    +0.000 A 
ENDBRANCH   2   5
BRANCH   2  11
ATOM     11  C   UNL     1       5.125   4.863  18.283  0.00  0.00    +0.000 C 
BRANCH  11  13
ATOM     12  C   UNL     1       7.404   5.782  18.974  0.00  0.00    +0.000 C 
ATOM     13  C   UNL     1       6.186   5.299  19.256  0.00  0.00    +0.000 C 
ENDBRANCH  11  13
ENDBRANCH   2  11
ENDBRANCH   1   3
BRANCH   1  14
ATOM     14  C   UNL     1       2.075   8.283  19.165  0.00  0.00    +0.000 C 
BRANCH  14  15
ATOM     15  S   UNL     1       1.097   9.735  18.819  0.00  0.00    +0.000 S 
ATOM     16  O   UNL     1       1.976  10.839  18.482  0.00  0.00    +0.000 OA
ATOM     17  O   UNL     1       0.019   9.375  17.918  0.00  0.00    +0.000 OA
BRANCH  15  18
ATOM     18  C   UNL     1       0.337  10.133  20.361  0.00  0.00    +0.000 A 
ATOM     19  C   UNL     1       0.547   9.321  21.496  0.00  0.00    +0.000 A 
ATOM     20  C   UNL     1      -0.058   9.576  22.749  0.00  0.00    +0.000 A 
ATOM     21  C   UNL     1      -0.928  10.655  22.971  0.00  0.00    +0.000 A 
ATOM     22  C   UNL     1      -1.175  11.500  21.863  0.00  0.00    +0.000 A 
ATOM     23  N   UNL     1      -1.974  12.579  21.867  0.00  0.00    +0.000 NA
ATOM     24  S   UNL     1      -1.930  13.205  20.332  0.00  0.00    +0.000 S 
ATOM     25  N   UNL     1      -0.858  12.165  19.606  0.00  0.00    +0.000 NA
ATOM     26  C   UNL     1      -0.525  11.242  20.521  0.00  0.00    +0.000 A 
ENDBRANCH  15  18
ENDBRANCH  14  15
ENDBRANCH   1  14
TORSDOF 7
ENDMDL
MODEL 2
REMARK VINA RESULT:      -7.3      1.829      2.397
REMARK  Name = 
REMARK  7 active torsions:
REMARK  status: ('A' for Active; 'I' for Inactive)
REMARK    1  A    between atoms: C_2  and  C_3
REMARK    2  A    between atoms: C_3  and  N_4
REMARK    3  A    between atoms: N_4  and  C_21
REMARK    4  A    between atoms: C_5  and  C_7
REMARK    5  A    between atoms: C_7  and  C_8
REMARK    6  A    between atoms: C_8  and  S_9
REMARK    7  A    between atoms: S_9  and  C_12
REMARK                            x       y       z     vdW  Elec       q    Type
REMARK                         _______ _______ _______ _____ _____    ______ ____
ROOT
ATOM      1  C   UNL     1       2.126   7.692  18.486  0.00  0.00    +0.000 C 
ENDROOT
BRANCH   1   3
ATOM      2  N   UNL     1       3.589   5.705  18.195  0.00  0.00    +0.000 N 
ATOM      3  C   UNL     1       3.321   7.022  17.808  0.00  0.00    +0.000 C 
ATOM      4  O   UNL     1       3.952   7.607  16.929  0.00  0.00    +0.000 OA
BRANCH   2   5
ATOM      5  C   UNL     1       2.639   4.958  18.935  0.00  0.00    +0.000 A 
ATOM      6  C   UNL     1       2.686   4.951  20.334  0.00  0.00    +0.000 A 
ATOM      7  C   UNL     1       1.849   4.094  21.050  0.00  0.00    +0.000 A 
ATOM      8  C   UNL     1       0.969   3.251  20.370  0.00  0.00    +0.000 A 
ATOM      9  C   UNL     1       0.912   3.272  18.976  0.00  0.00    +0.000 A 
ATOM     10  C   UNL     1       1.745   4.130  18.256  0.00  0.00    +0.000 A 
ENDBRANCH   2   5
BRANCH   2  11
ATOM     11  C   UNL     1       4.632   4.942  17.511  0.00  0.00    +0.000 C 
BRANCH  11  13
ATOM     12  C   UNL     1       6.408   5.374  19.294  0.00  0.00    +0.000 C 
ATOM     13  C   UNL     1       6.014   5.254  18.018  0.00  0.00    +0.000 C 
ENDBRANCH  11  13
ENDBRANCH   2  11
ENDBRANCH   1   3
BRANCH   1  14
ATOM     14  C   UNL     1       1.645   8.960  17.807  0.00  0.00    +0.000 C 
BRANCH  14  15
ATOM     15  S   UNL     1       1.016  10.151  18.978  0.00  0.00    +0.000 S 
ATOM     16  O   UNL     1       0.991   9.557  20.302  0.00  0.00    +0.000 OA
ATOM     17  O   UNL     1       1.692  11.417  18.773  0.00  0.00    +0.000 OA
BRANCH  15  18
ATOM     18  C   UNL     1      -0.662  10.404  18.494  0.00  0.00    +0.000 A 
ATOM     19  C   UNL     1      -1.181   9.767  17.345  0.00  0.00    +0.000 A 
ATOM     20  C   UNL     1      -2.509   9.955  16.895  0.00  0.00    +0.000 A 
ATOM     21  C   UNL     1      -3.424  10.799  17.544  0.00  0.00    +0.000 A 
ATOM     22  C   UNL     1      -2.951  11.464  18.701  0.00  0.00    +0.000 A 
ATOM     23  N   UNL     1      -3.664  12.311  19.460  0.00  0.00    +0.000 NA
ATOM     24  S   UNL     1      -2.656  12.821  20.674  0.00  0.00    +0.000 S 
ATOM     25  N   UNL     1      -1.286  11.953  20.320  0.00  0.00    +0.000 NA
ATOM     26  C   UNL     1      -1.536  11.262  19.198  0.00  0.00    +0.000 A 
ENDBRANCH  15  18
ENDBRANCH  14  15
ENDBRANCH   1  14
TORSDOF 7
ENDMDL
MODEL 3
REMARK VINA RESULT:      -7.2      1.860      2.591
REMARK  Name = 
REMARK  7 active torsions:
REMARK  status: ('A' for Active; 'I' for Inactive)
REMARK    1  A    between atoms: C_2  and  C_3
REMARK    2  A    between atoms: C_3  and  N_4
REMARK    3  A    between atoms: N_4  and  C_21
REMARK    4  A    between atoms: C_5  and  C_7
REMARK    5  A    between atoms: C_7  and  C_8
REMARK    6  A    between atoms: C_8  and  S_9
REMARK    7  A    between atoms: S_9  and  C_12
REMARK                            x       y       z     vdW  Elec       q    Type
REMARK                         _______ _______ _______ _____ _____    ______ ____
ROOT
ATOM      1  C   UNL     1       2.185   7.618  18.431  0.00  0.00    +0.000 C 
ENDROOT
BRANCH   1   3
ATOM      2  N   UNL     1       3.804   5.757  18.133  0.00  0.00    +0.000 N 
ATOM      3  C   UNL     1       3.453   7.064  17.781  0.00  0.00    +0.000 C 
ATOM      4  O   UNL     1       4.073   7.727  16.951  0.00  0.00    +0.000 OA
BRANCH   2   5
ATOM      5  C   UNL     1       2.884   4.913  18.804  0.00  0.00    +0.000 A 
ATOM      6  C   UNL     1       2.036   4.074  18.071  0.00  0.00    +0.000 A 
ATOM      7  C   UNL     1       1.030   3.364  18.728  0.00  0.00    +0.000 A 
ATOM      8  C   UNL     1       0.875   3.491  20.109  0.00  0.00    +0.000 A 
ATOM      9  C   UNL     1       1.732   4.315  20.839  0.00  0.00    +0.000 A 
ATOM     10  C   UNL     1       2.741   5.025  20.187  0.00  0.00    +0.000 A 
ENDBRANCH   2   5
BRANCH   2  11
ATOM     11  C   UNL     1       4.928   5.099  17.468  0.00  0.00    +0.000 C 
BRANCH  11  13
ATOM     12  C   UNL     1       7.426   4.784  17.890  0.00  0.00    +0.000 C 
ATOM     13  C   UNL     1       6.246   5.367  18.143  0.00  0.00    +0.000 C 
ENDBRANCH  11  13
ENDBRANCH   2  11
ENDBRANCH   1   3
BRANCH   1  14
ATOM     14  C   UNL     1       1.641   8.875  17.782  0.00  0.00    +0.000 C 
BRANCH  14  15
ATOM     15  S   UNL     1       1.000  10.028  18.985  0.00  0.00    +0.000 S 
ATOM     16  O   UNL     1       0.935   9.381  20.283  0.00  0.00    +0.000 OA
ATOM     17  O   UNL     1       1.697  11.291  18.847  0.00  0.00    +0.000 OA
BRANCH  15  18
ATOM     18  C   UNL     1      -0.662  10.323  18.472  0.00  0.00    +0.000 A 
ATOM     19  C   UNL     1      -1.175   9.708  17.309  0.00  0.00    +0.000 A 
ATOM     20  C   UNL     1      -2.489   9.930  16.836  0.00  0.00    +0.000 A 
ATOM     21  C   UNL     1      -3.396  10.790  17.476  0.00  0.00    +0.000 A 
ATOM     22  C   UNL     1      -2.930  11.434  18.647  0.00  0.00    +0.000 A 
ATOM     23  N   UNL     1      -3.637  12.291  19.400  0.00  0.00    +0.000 NA
ATOM     24  S   UNL     1      -2.640  12.768  20.636  0.00  0.00    +0.000 S 
ATOM     25  N   UNL     1      -1.284  11.871  20.300  0.00  0.00    +0.000 NA
ATOM     26  C   UNL     1      -1.530  11.196  19.167  0.00  0.00    +0.000 A 
ENDBRANCH  15  18
ENDBRANCH  14  15
ENDBRANCH   1  14
TORSDOF 7
ENDMDL
MODEL 4
REMARK VINA RESULT:      -7.0      1.479      1.862
REMARK  Name = 
REMARK  7 active torsions:
REMARK  status: ('A' for Active; 'I' for Inactive)
REMARK    1  A    between atoms: C_2  and  C_3
REMARK    2  A    between atoms: C_3  and  N_4
REMARK    3  A    between atoms: N_4  and  C_21
REMARK    4  A    between atoms: C_5  and  C_7
REMARK    5  A    between atoms: C_7  and  C_8
REMARK    6  A    between atoms: C_8  and  S_9
REMARK    7  A    between atoms: S_9  and  C_12
REMARK                            x       y       z     vdW  Elec       q    Type
REMARK                         _______ _______ _______ _____ _____    ______ ____
ROOT
ATOM      1  C   UNL     1       2.089   7.256  18.198  0.00  0.00    +0.000 C 
ENDROOT
BRANCH   1   3
ATOM      2  N   UNL     1       3.805   5.507  18.605  0.00  0.00    +0.000 N 
ATOM      3  C   UNL     1       3.506   6.725  17.987  0.00  0.00    +0.000 C 
ATOM      4  O   UNL     1       4.297   7.321  17.257  0.00  0.00    +0.000 OA
BRANCH   2   5
ATOM      5  C   UNL     1       2.776   4.688  19.133  0.00  0.00    +0.000 A 
ATOM      6  C   UNL     1       2.560   4.635  20.516  0.00  0.00    +0.000 A 
ATOM      7  C   UNL     1       1.652   3.713  21.039  0.00  0.00    +0.000 A 
ATOM      8  C   UNL     1       0.963   2.852  20.184  0.00  0.00    +0.000 A 
ATOM      9  C   UNL     1       1.168   2.919  18.805  0.00  0.00    +0.000 A 
ATOM     10  C   UNL     1       2.072   3.841  18.277  0.00  0.00    +0.000 A 
ENDBRANCH   2   5
BRANCH   2  11
ATOM     11  C   UNL     1       5.093   4.860  18.358  0.00  0.00    +0.000 C 
BRANCH  11  13
ATOM     12  C   UNL     1       7.430   5.699  18.952  0.00  0.00    +0.000 C 
ATOM     13  C   UNL     1       6.179   5.345  19.279  0.00  0.00    +0.000 C 
ENDBRANCH  11  13
ENDBRANCH   2  11
ENDBRANCH   1   3
BRANCH   1  14
ATOM     14  C   UNL     1       2.000   8.481  19.087  0.00  0.00    +0.000 C 
BRANCH  14  15
ATOM     15  S   UNL     1       1.279   9.876  18.238  0.00  0.00    +0.000 S 
ATOM     16  O   UNL     1       2.295  10.524  17.429  0.00  0.00    +0.000 OA
ATOM     17  O   UNL     1       0.031   9.463  17.626  0.00  0.00    +0.000 OA
BRANCH  15  18
ATOM     18  C   UNL     1       0.847  11.002  19.525  0.00  0.00    +0.000 A 
ATOM     19  C   UNL     1       1.032  12.392  19.356  0.00  0.00    +0.000 A 
ATOM     20  C   UNL     1       0.729  13.337  20.363  0.00  0.00    +0.000 A 
ATOM     21  C   UNL     1       0.228  12.977  21.624  0.00  0.00    +0.000 A 
ATOM     22  C   UNL     1       0.027  11.593  21.846  0.00  0.00    +0.000 A 
ATOM     23  N   UNL     1      -0.440  11.045  22.979  0.00  0.00    +0.000 NA
ATOM     24  S   UNL     1      -0.474   9.406  22.731  0.00  0.00    +0.000 S 
ATOM     25  N   UNL     1       0.055   9.321  21.160  0.00  0.00    +0.000 NA
ATOM     26  C   UNL     1       0.337  10.574  20.772  0.00  0.00    +0.000 A 
ENDBRANCH  15  18
ENDBRANCH  14  15
ENDBRANCH   1  14
TORSDOF 7
ENDMDL
MODEL 5
REMARK VINA RESULT:      -6.9      1.782      2.450
REMARK  Name = 
REMARK  7 active torsions:
REMARK  status: ('A' for Active; 'I' for Inactive)
REMARK    1  A    between atoms: C_2  and  C_3
REMARK    2  A    between atoms: C_3  and  N_4
REMARK    3  A    between atoms: N_4  and  C_21
REMARK    4  A    between atoms: C_5  and  C_7
REMARK    5  A    between atoms: C_7  and  C_8
REMARK    6  A    between atoms: C_8  and  S_9
REMARK    7  A    between atoms: S_9  and  C_12
REMARK                            x       y       z     vdW  Elec       q    Type
REMARK                         _______ _______ _______ _____ _____    ______ ____
ROOT
ATOM      1  C   UNL     1       1.975   7.511  19.932  0.00  0.00    +0.000 C 
ENDROOT
BRANCH   1   3
ATOM      2  N   UNL     1       3.066   5.685  18.648  0.00  0.00    +0.000 N 
ATOM      3  C   UNL     1       2.794   7.055  18.725  0.00  0.00    +0.000 C 
ATOM      4  O   UNL     1       3.126   7.857  17.853  0.00  0.00    +0.000 OA
BRANCH   2   5
ATOM      5  C   UNL     1       2.375   4.760  19.469  0.00  0.00    +0.000 A 
ATOM      6  C   UNL     1       2.766   4.575  20.801  0.00  0.00    +0.000 A 
ATOM      7  C   UNL     1       2.184   3.555  21.556  0.00  0.00    +0.000 A 
ATOM      8  C   UNL     1       1.217   2.728  20.983  0.00  0.00    +0.000 A 
ATOM      9  C   UNL     1       0.818   2.926  19.661  0.00  0.00    +0.000 A 
ATOM     10  C   UNL     1       1.394   3.947  18.903  0.00  0.00    +0.000 A 
ENDBRANCH   2   5
BRANCH   2  11
ATOM     11  C   UNL     1       3.735   5.140  17.467  0.00  0.00    +0.000 C 
BRANCH  11  13
ATOM     12  C   UNL     1       6.130   4.867  18.307  0.00  0.00    +0.000 C 
ATOM     13  C   UNL     1       4.989   4.378  17.803  0.00  0.00    +0.000 C 
ENDBRANCH  11  13
ENDBRANCH   2  11
ENDBRANCH   1   3
BRANCH   1  14
ATOM     14  C   UNL     1       1.427   8.921  19.827  0.00  0.00    +0.000 C 
BRANCH  14  15
ATOM     15  S   UNL     1       0.503   9.392  21.279  0.00  0.00    +0.000 S 
ATOM     16  O   UNL     1      -0.466   8.357  21.589  0.00  0.00    +0.000 OA
ATOM     17  O   UNL     1       1.427   9.838  22.302  0.00  0.00    +0.000 OA
BRANCH  15  18
ATOM     18  C   UNL     1      -0.406  10.819  20.780  0.00  0.00    +0.000 A 
ATOM     19  C   UNL     1      -0.281  11.329  19.470  0.00  0.00    +0.000 A 
ATOM     20  C   UNL     1      -0.964  12.485  19.024  0.00  0.00    +0.000 A 
ATOM     21  C   UNL     1      -1.819  13.232  19.849  0.00  0.00    +0.000 A 
ATOM     22  C   UNL     1      -1.977  12.765  21.175  0.00  0.00    +0.000 A 
ATOM     23  N   UNL     1      -2.745  13.335  22.117  0.00  0.00    +0.000 NA
ATOM     24  S   UNL     1      -2.574  12.415  23.486  0.00  0.00    +0.000 S 
ATOM     25  N   UNL     1      -1.559  11.225  22.933  0.00  0.00    +0.000 NA
ATOM     26  C   UNL     1      -1.260  11.524  21.659  0.00  0.00    +0.000 A 
ENDBRANCH  15  18
ENDBRANCH  14  15
ENDBRANCH   1  14
TORSDOF 7
ENDMDL
MODEL 6
REMARK VINA RESULT:      -6.9      1.981      2.506
REMARK  Name = 
REMARK  7 active torsions:
REMARK  status: ('A' for Active; 'I' for Inactive)
REMARK    1  A    between atoms: C_2  and  C_3
REMARK    2  A    between atoms: C_3  and  N_4
REMARK    3  A    between atoms: N_4  and  C_21
REMARK    4  A    between atoms: C_5  and  C_7
REMARK    5  A    between atoms: C_7  and  C_8
REMARK    6  A    between atoms: C_8  and  S_9
REMARK    7  A    between atoms: S_9  and  C_12
REMARK                            x       y       z     vdW  Elec       q    Type
REMARK                         _______ _______ _______ _____ _____    ______ ____
ROOT
ATOM      1  C   UNL     1       2.101   7.691  18.244  0.00  0.00    +0.000 C 
ENDROOT
BRANCH   1   3
ATOM      2  N   UNL     1       3.734   5.827  18.411  0.00  0.00    +0.000 N 
ATOM      3  C   UNL     1       3.483   7.118  17.936  0.00  0.00    +0.000 C 
ATOM      4  O   UNL     1       4.286   7.751  17.251  0.00  0.00    +0.000 OA
BRANCH   2   5
ATOM      5  C   UNL     1       2.677   5.006  18.878  0.00  0.00    +0.000 A 
ATOM      6  C   UNL     1       2.341   5.000  20.237  0.00  0.00    +0.000 A 
ATOM      7  C   UNL     1       1.407   4.078  20.714  0.00  0.00    +0.000 A 
ATOM      8  C   UNL     1       0.811   3.172  19.835  0.00  0.00    +0.000 A 
ATOM      9  C   UNL     1       1.136   3.193  18.478  0.00  0.00    +0.000 A 
ATOM     10  C   UNL     1       2.067   4.114  17.997  0.00  0.00    +0.000 A 
ENDBRANCH   2   5
BRANCH   2  11
ATOM     11  C   UNL     1       4.981   5.148  18.058  0.00  0.00    +0.000 C 
BRANCH  11  13
ATOM     12  C   UNL     1       7.308   5.705  18.950  0.00  0.00    +0.000 C 
ATOM     13  C   UNL     1       6.044   5.290  19.114  0.00  0.00    +0.000 C 
ENDBRANCH  11  13
ENDBRANCH   2  11
ENDBRANCH   1   3
BRANCH   1  14
ATOM     14  C   UNL     1       1.894   9.122  17.787  0.00  0.00    +0.000 C 
BRANCH  14  15
ATOM     15  S   UNL     1       0.658   9.966  18.759  0.00  0.00    +0.000 S 
ATOM     16  O   UNL     1      -0.555  10.108  17.976  0.00  0.00    +0.000 OA
ATOM     17  O   UNL     1       0.596   9.358  20.074  0.00  0.00    +0.000 OA
BRANCH  15  18
ATOM     18  C   UNL     1       1.313  11.586  18.996  0.00  0.00    +0.000 A 
ATOM     19  C   UNL     1       2.352  12.069  18.171  0.00  0.00    +0.000 A 
ATOM     20  C   UNL     1       2.933  13.349  18.333  0.00  0.00    +0.000 A 
ATOM     21  C   UNL     1       2.535  14.247  19.335  0.00  0.00    +0.000 A 
ATOM     22  C   UNL     1       1.497  13.810  20.193  0.00  0.00    +0.000 A 
ATOM     23  N   UNL     1       0.977  14.514  21.210  0.00  0.00    +0.000 NA
ATOM     24  S   UNL     1      -0.189  13.557  21.900  0.00  0.00    +0.000 S 
ATOM     25  N   UNL     1      -0.120  12.227  20.910  0.00  0.00    +0.000 NA
ATOM     26  C   UNL     1       0.862  12.448  20.022  0.00  0.00    +0.000 A 
ENDBRANCH  15  18
ENDBRANCH  14  15
ENDBRANCH   1  14
TORSDOF 7
ENDMDL
MODEL 7
REMARK VINA RESULT:      -6.8      1.958      2.669
REMARK  Name = 
REMARK  7 active torsions:
REMARK  status: ('A' for Active; 'I' for Inactive)
REMARK    1  A    between atoms: C_2  and  C_3
REMARK    2  A    between atoms: C_3  and  N_4
REMARK    3  A    between atoms: N_4  and  C_21
REMARK    4  A    between atoms: C_5  and  C_7
REMARK    5  A    between atoms: C_7  and  C_8
REMARK    6  A    between atoms: C_8  and  S_9
REMARK    7  A    between atoms: S_9  and  C_12
REMARK                            x       y       z     vdW  Elec       q    Type
REMARK                         _______ _______ _______ _____ _____    ______ ____
ROOT
ATOM      1  C   UNL     1       2.273   7.566  18.069  0.00  0.00    +0.000 C 
ENDROOT
BRANCH   1   3
ATOM      2  N   UNL     1       3.826   5.643  18.325  0.00  0.00    +0.000 N 
ATOM      3  C   UNL     1       3.608   6.896  17.743  0.00  0.00    +0.000 C 
ATOM      4  O   UNL     1       4.397   7.421  16.958  0.00  0.00    +0.000 OA
BRANCH   2   5
ATOM      5  C   UNL     1       2.762   4.925  18.924  0.00  0.00    +0.000 A 
ATOM      6  C   UNL     1       2.631   4.896  20.318  0.00  0.00    +0.000 A 
ATOM      7  C   UNL     1       1.677   4.064  20.905  0.00  0.00    +0.000 A 
ATOM      8  C   UNL     1       0.858   3.268  20.103  0.00  0.00    +0.000 A 
ATOM      9  C   UNL     1       0.980   3.312  18.714  0.00  0.00    +0.000 A 
ATOM     10  C   UNL     1       1.930   4.145  18.122  0.00  0.00    +0.000 A 
ENDBRANCH   2   5
BRANCH   2  11
ATOM     11  C   UNL     1       5.018   4.873  17.971  0.00  0.00    +0.000 C 
BRANCH  11  13
ATOM     12  C   UNL     1       5.702   4.137  15.624  0.00  0.00    +0.000 C 
ATOM     13  C   UNL     1       4.869   4.125  16.674  0.00  0.00    +0.000 C 
ENDBRANCH  11  13
ENDBRANCH   2  11
ENDBRANCH   1   3
BRANCH   1  14
ATOM     14  C   UNL     1       2.270   9.074  17.917  0.00  0.00    +0.000 C 
BRANCH  14  15
ATOM     15  S   UNL     1       0.831   9.821  18.664  0.00  0.00    +0.000 S 
ATOM     16  O   UNL     1      -0.313   9.641  17.790  0.00  0.00    +0.000 OA
ATOM     17  O   UNL     1       0.748   9.402  20.050  0.00  0.00    +0.000 OA
BRANCH  15  18
ATOM     18  C   UNL     1       1.194  11.547  18.692  0.00  0.00    +0.000 A 
ATOM     19  C   UNL     1       2.412  12.034  18.170  0.00  0.00    +0.000 A 
ATOM     20  C   UNL     1       2.767  13.403  18.191  0.00  0.00    +0.000 A 
ATOM     21  C   UNL     1       1.943  14.397  18.742  0.00  0.00    +0.000 A 
ATOM     22  C   UNL     1       0.709  13.961  19.282  0.00  0.00    +0.000 A 
ATOM     23  N   UNL     1      -0.214  14.749  19.854  0.00  0.00    +0.000 NA
ATOM     24  S   UNL     1      -1.454  13.756  20.328  0.00  0.00    +0.000 S 
ATOM     25  N   UNL     1      -0.898  12.289  19.787  0.00  0.00    +0.000 NA
ATOM     26  C   UNL     1       0.316  12.500  19.256  0.00  0.00    +0.000 A 
ENDBRANCH  15  18
ENDBRANCH  14  15
ENDBRANCH   1  14
TORSDOF 7
ENDMDL
MODEL 8
REMARK VINA RESULT:      -6.8      2.177      2.974
REMARK  Name = 
REMARK  7 active torsions:
REMARK  status: ('A' for Active; 'I' for Inactive)
REMARK    1  A    between atoms: C_2  and  C_3
REMARK    2  A    between atoms: C_3  and  N_4
REMARK    3  A    between atoms: N_4  and  C_21
REMARK    4  A    between atoms: C_5  and  C_7
REMARK    5  A    between atoms: C_7  and  C_8
REMARK    6  A    between atoms: C_8  and  S_9
REMARK    7  A    between atoms: S_9  and  C_12
REMARK                            x       y       z     vdW  Elec       q    Type
REMARK                         _______ _______ _______ _____ _____    ______ ____
ROOT
ATOM      1  C   UNL     1       1.438   7.361  20.449  0.00  0.00    +0.000 C 
ENDROOT
BRANCH   1   3
ATOM      2  N   UNL     1       2.943   6.062  18.959  0.00  0.00    +0.000 N 
ATOM      3  C   UNL     1       2.379   7.309  19.246  0.00  0.00    +0.000 C 
ATOM      4  O   UNL     1       2.561   8.306  18.548  0.00  0.00    +0.000 OA
BRANCH   2   5
ATOM      5  C   UNL     1       2.438   4.881  19.559  0.00  0.00    +0.000 A 
ATOM      6  C   UNL     1       1.517   4.082  18.870  0.00  0.00    +0.000 A 
ATOM      7  C   UNL     1       0.908   3.010  19.524  0.00  0.00    +0.000 A 
ATOM      8  C   UNL     1       1.221   2.737  20.856  0.00  0.00    +0.000 A 
ATOM      9  C   UNL     1       2.151   3.526  21.534  0.00  0.00    +0.000 A 
ATOM     10  C   UNL     1       2.765   4.597  20.884  0.00  0.00    +0.000 A 
ENDBRANCH   2   5
BRANCH   2  11
ATOM     11  C   UNL     1       3.755   5.888  17.754  0.00  0.00    +0.000 C 
BRANCH  11  13
ATOM     12  C   UNL     1       6.304   5.854  17.886  0.00  0.00    +0.000 C 
ATOM     13  C   UNL     1       5.102   5.281  18.039  0.00  0.00    +0.000 C 
ENDBRANCH  11  13
ENDBRANCH   2  11
ENDBRANCH   1   3
BRANCH   1  14
ATOM     14  C   UNL     1       1.666   8.538  21.377  0.00  0.00    +0.000 C 
BRANCH  14  15
ATOM     15  S   UNL     1       0.135   9.317  21.861  0.00  0.00    +0.000 S 
ATOM     16  O   UNL     1      -0.937   8.339  21.817  0.00  0.00    +0.000 OA
ATOM     17  O   UNL     1       0.357  10.083  23.072  0.00  0.00    +0.000 OA
BRANCH  15  18
ATOM     18  C   UNL     1      -0.185  10.493  20.586  0.00  0.00    +0.000 A 
ATOM     19  C   UNL     1      -1.198  10.257  19.630  0.00  0.00    +0.000 A 
ATOM     20  C   UNL     1      -1.479  11.151  18.571  0.00  0.00    +0.000 A 
ATOM     21  C   UNL     1      -0.771  12.346  18.371  0.00  0.00    +0.000 A 
ATOM     22  C   UNL     1       0.258  12.628  19.301  0.00  0.00    +0.000 A 
ATOM     23  N   UNL     1       1.049  13.712  19.285  0.00  0.00    +0.000 NA
ATOM     24  S   UNL     1       2.086  13.560  20.569  0.00  0.00    +0.000 S 
ATOM     25  N   UNL     1       1.547  12.137  21.233  0.00  0.00    +0.000 NA
ATOM     26  C   UNL     1       0.561  11.684  20.444  0.00  0.00    +0.000 A 
ENDBRANCH  15  18
ENDBRANCH  14  15
ENDBRANCH   1  14
TORSDOF 7
ENDMDL
MODEL 9
REMARK VINA RESULT:      -6.8      1.123      1.469
REMARK  Name = 
REMARK  7 active torsions:
REMARK  status: ('A' for Active; 'I' for Inactive)
REMARK    1  A    between atoms: C_2  and  C_3
REMARK    2  A    between atoms: C_3  and  N_4
REMARK    3  A    between atoms: N_4  and  C_21
REMARK    4  A    between atoms: C_5  and  C_7
REMARK    5  A    between atoms: C_7  and  C_8
REMARK    6  A    between atoms: C_8  and  S_9
REMARK    7  A    between atoms: S_9  and  C_12
REMARK                            x       y       z     vdW  Elec       q    Type
REMARK                         _______ _______ _______ _____ _____    ______ ____
ROOT
ATOM      1  C   UNL     1       2.624   6.546  17.938  0.00  0.00    +0.000 C 
ENDROOT
BRANCH   1   3
ATOM      2  N   UNL     1       4.638   5.101  17.784  0.00  0.00    +0.000 N 
ATOM      3  C   UNL     1       4.056   6.328  17.452  0.00  0.00    +0.000 C 
ATOM      4  O   UNL     1       4.618   7.173  16.756  0.00  0.00    +0.000 OA
BRANCH   2   5
ATOM      5  C   UNL     1       3.848   4.030  18.270  0.00  0.00    +0.000 A 
ATOM      6  C   UNL     1       3.095   3.253  17.382  0.00  0.00    +0.000 A 
ATOM      7  C   UNL     1       2.201   2.303  17.880  0.00  0.00    +0.000 A 
ATOM      8  C   UNL     1       2.064   2.131  19.258  0.00  0.00    +0.000 A 
ATOM      9  C   UNL     1       2.828   2.895  20.140  0.00  0.00    +0.000 A 
ATOM     10  C   UNL     1       3.725   3.843  19.647  0.00  0.00    +0.000 A 
ENDBRANCH   2   5
BRANCH   2  11
ATOM     11  C   UNL     1       5.958   4.752  17.257  0.00  0.00    +0.000 C 
BRANCH  11  13
ATOM     12  C   UNL     1       7.636   6.188  18.539  0.00  0.00    +0.000 C 
ATOM     13  C   UNL     1       7.068   5.011  18.239  0.00  0.00    +0.000 C 
ENDBRANCH  11  13
ENDBRANCH   2  11
ENDBRANCH   1   3
BRANCH   1  14
ATOM     14  C   UNL     1       2.483   7.561  19.055  0.00  0.00    +0.000 C 
BRANCH  14  15
ATOM     15  S   UNL     1       1.597   9.019  18.530  0.00  0.00    +0.000 S 
ATOM     16  O   UNL     1       2.546  10.043  18.135  0.00  0.00    +0.000 OA
ATOM     17  O   UNL     1       0.543   8.627  17.616  0.00  0.00    +0.000 OA
BRANCH  15  18
ATOM     18  C   UNL     1       0.792   9.596  19.990  0.00  0.00    +0.000 A 
ATOM     19  C   UNL     1       0.937   8.902  21.212  0.00  0.00    +0.000 A 
ATOM     20  C   UNL     1       0.293   9.303  22.406  0.00  0.00    +0.000 A 
ATOM     21  C   UNL     1      -0.554  10.421  22.479  0.00  0.00    +0.000 A 
ATOM     22  C   UNL     1      -0.735  11.150  21.280  0.00  0.00    +0.000 A 
ATOM     23  N   UNL     1      -1.502  12.242  21.139  0.00  0.00    +0.000 NA
ATOM     24  S   UNL     1      -1.383  12.701  19.550  0.00  0.00    +0.000 S 
ATOM     25  N   UNL     1      -0.315  11.565  18.981  0.00  0.00    +0.000 NA
ATOM     26  C   UNL     1      -0.043  10.736  19.999  0.00  0.00    +0.000 A 
ENDBRANCH  15  18
ENDBRANCH  14  15
ENDBRANCH   1  14
TORSDOF 7
ENDMDL
