MODEL 1
REMARK VINA RESULT:      -7.7      0.000      0.000
REMARK  Name = 
REMARK  8 active torsions:
REMARK  status: ('A' for Active; 'I' for Inactive)
REMARK    1  A    between atoms: C_1  and  C_2
REMARK    2  A    between atoms: C_4  and  C_5
REMARK    3  A    between atoms: N_6  and  C_7
REMARK    4  A    between atoms: C_7  and  C_8
REMARK    5  A    between atoms: C_8  and  C_9
REMARK    6  A    between atoms: C_15  and  N_16
REMARK    7  A    between atoms: C_18  and  C_19
REMARK    8  A    between atoms: C_21  and  C_22
REMARK                            x       y       z     vdW  Elec       q    Type
REMARK                         _______ _______ _______ _____ _____    ______ ____
ROOT
ATOM      1  C   UNL     1       2.001   5.899  20.153  0.00  0.00    +0.000 C 
ATOM      2  O   UNL     1       1.056   5.456  20.808  0.00  0.00    +0.000 OA
ATOM      3  N   UNL     1       2.986   5.067  19.614  0.00  0.00    +0.000 N 
ATOM      4  C   UNL     1       2.751   3.634  19.751  0.00  0.00    +0.000 C 
ATOM      5  C   UNL     1       4.054   2.862  19.855  0.00  0.00    +0.000 C 
ATOM      6  C   UNL     1       4.972   3.149  18.667  0.00  0.00    +0.000 C 
ATOM      7  C   UNL     1       5.177   4.658  18.417  0.00  0.00    +0.000 C 
ATOM      8  C   UNL     1       3.854   5.452  18.483  0.00  0.00    +0.000 C 
ENDROOT
BRANCH   7   9
ATOM      9  N   UNL     1       5.890   4.912  17.165  0.00  0.00    +0.000 N 
ATOM     10  N   UNL     1       5.617   4.188  16.053  0.00  0.00    +0.000 NA
ATOM     11  C   UNL     1       6.463   4.712  15.158  0.00  0.00    +0.000 A 
ATOM     12  C   UNL     1       6.596   4.275  13.753  0.00  0.00    +0.000 C 
ATOM     13  N   UNL     1       7.244   5.719  15.640  0.00  0.00    +0.000 NA
ATOM     14  C   UNL     1       6.877   5.838  16.891  0.00  0.00    +0.000 A 
ATOM     15  C   UNL     1       7.443   6.820  17.845  0.00  0.00    +0.000 C 
ENDBRANCH   7   9
BRANCH   1  16
ATOM     16  C   UNL     1       2.111   7.382  19.885  0.00  0.00    +0.000 C 
BRANCH  16  17
ATOM     17  C   UNL     1       1.640   8.170  21.106  0.00  0.00    +0.000 C 
BRANCH  17  23
ATOM     18  C   UNL     1      -0.777  11.404  18.418  0.00  0.00    +0.000 C 
ATOM     19  C   UNL     1      -0.341  10.664  19.626  0.00  0.00    +0.000 A 
ATOM     20  C   UNL     1      -0.787  10.839  20.952  0.00  0.00    +0.000 A 
ATOM     21  C   UNL     1      -0.097   9.910  21.700  0.00  0.00    +0.000 A 
ATOM     22  C   UNL     1      -0.145   9.622  23.152  0.00  0.00    +0.000 C 
ATOM     23  N   UNL     1       0.702   9.238  20.806  0.00  0.00    +0.000 N 
ATOM     24  N   UNL     1       0.584   9.700  19.541  0.00  0.00    +0.000 NA
ENDBRANCH  17  23
ENDBRANCH  16  17
ENDBRANCH   1  16
TORSDOF 4
ENDMDL
MODEL 2
REMARK VINA RESULT:      -7.7      1.156      1.994
REMARK  Name = 
REMARK  8 active torsions:
REMARK  status: ('A' for Active; 'I' for Inactive)
REMARK    1  A    between atoms: C_1  and  C_2
REMARK    2  A    between atoms: C_4  and  C_5
REMARK    3  A    between atoms: N_6  and  C_7
REMARK    4  A    between atoms: C_7  and  C_8
REMARK    5  A    between atoms: C_8  and  C_9
REMARK    6  A    between atoms: C_15  and  N_16
REMARK    7  A    between atoms: C_18  and  C_19
REMARK    8  A    between atoms: C_21  and  C_22
REMARK                            x       y       z     vdW  Elec       q    Type
REMARK                         _______ _______ _______ _____ _____    ______ ____
ROOT
ATOM      1  C   UNL     1       1.834   5.004  20.105  0.00  0.00    +0.000 C 
ATOM      2  O   UNL     1       0.692   4.688  20.442  0.00  0.00    +0.000 OA
ATOM      3  N   UNL     1       2.591   4.226  19.225  0.00  0.00    +0.000 N 
ATOM      4  C   UNL     1       1.897   3.095  18.620  0.00  0.00    +0.000 C 
ATOM      5  C   UNL     1       2.847   1.947  18.327  0.00  0.00    +0.000 C 
ATOM      6  C   UNL     1       4.016   2.397  17.452  0.00  0.00    +0.000 C 
ATOM      7  C   UNL     1       4.727   3.653  17.996  0.00  0.00    +0.000 C 
ATOM      8  C   UNL     1       3.733   4.745  18.447  0.00  0.00    +0.000 C 
ENDROOT
BRANCH   7   9
ATOM      9  N   UNL     1       5.707   4.181  17.046  0.00  0.00    +0.000 N 
ATOM     10  N   UNL     1       5.554   3.988  15.714  0.00  0.00    +0.000 NA
ATOM     11  C   UNL     1       6.633   4.602  15.213  0.00  0.00    +0.000 A 
ATOM     12  C   UNL     1       6.975   4.687  13.778  0.00  0.00    +0.000 C 
ATOM     13  N   UNL     1       7.447   5.168  16.148  0.00  0.00    +0.000 NA
ATOM     14  C   UNL     1       6.859   4.903  17.287  0.00  0.00    +0.000 A 
ATOM     15  C   UNL     1       7.367   5.322  18.613  0.00  0.00    +0.000 C 
ENDBRANCH   7   9
BRANCH   1  16
ATOM     16  C   UNL     1       2.452   6.283  20.621  0.00  0.00    +0.000 C 
BRANCH  16  17
ATOM     17  C   UNL     1       2.109   7.443  19.688  0.00  0.00    +0.000 C 
BRANCH  17  23
ATOM     18  C   UNL     1      -0.313   9.791  23.172  0.00  0.00    +0.000 C 
ATOM     19  C   UNL     1       0.217   9.493  21.820  0.00  0.00    +0.000 A 
ATOM     20  C   UNL     1       0.029  10.238  20.638  0.00  0.00    +0.000 A 
ATOM     21  C   UNL     1       0.728   9.561  19.661  0.00  0.00    +0.000 A 
ATOM     22  C   UNL     1       0.898   9.864  18.221  0.00  0.00    +0.000 C 
ATOM     23  N   UNL     1       1.290   8.478  20.294  0.00  0.00    +0.000 N 
ATOM     24  N   UNL     1       0.969   8.408  21.605  0.00  0.00    +0.000 NA
ENDBRANCH  17  23
ENDBRANCH  16  17
ENDBRANCH   1  16
TORSDOF 4
ENDMDL
MODEL 3
REMARK VINA RESULT:      -7.4      3.708      8.729
REMARK  Name = 
REMARK  8 active torsions:
REMARK  status: ('A' for Active; 'I' for Inactive)
REMARK    1  A    between atoms: C_1  and  C_2
REMARK    2  A    between atoms: C_4  and  C_5
REMARK    3  A    between atoms: N_6  and  C_7
REMARK    4  A    between atoms: C_7  and  C_8
REMARK    5  A    between atoms: C_8  and  C_9
REMARK    6  A    between atoms: C_15  and  N_16
REMARK    7  A    between atoms: C_18  and  C_19
REMARK    8  A    between atoms: C_21  and  C_22
REMARK                            x       y       z     vdW  Elec       q    Type
REMARK                         _______ _______ _______ _____ _____    ______ ____
ROOT
ATOM      1  C   UNL     1       6.693   4.900  15.113  0.00  0.00    +0.000 C 
ATOM      2  O   UNL     1       7.622   5.474  14.540  0.00  0.00    +0.000 OA
ATOM      3  N   UNL     1       6.466   5.041  16.485  0.00  0.00    +0.000 N 
ATOM      4  C   UNL     1       7.304   6.017  17.170  0.00  0.00    +0.000 C 
ATOM      5  C   UNL     1       7.554   5.623  18.615  0.00  0.00    +0.000 C 
ATOM      6  C   UNL     1       6.243   5.408  19.371  0.00  0.00    +0.000 C 
ATOM      7  C   UNL     1       5.275   4.456  18.639  0.00  0.00    +0.000 C 
ATOM      8  C   UNL     1       5.166   4.771  17.131  0.00  0.00    +0.000 C 
ENDROOT
BRANCH   7   9
ATOM      9  N   UNL     1       3.957   4.422  19.274  0.00  0.00    +0.000 N 
ATOM     10  N   UNL     1       3.566   3.346  19.998  0.00  0.00    +0.000 NA
ATOM     11  C   UNL     1       2.335   3.700  20.389  0.00  0.00    +0.000 A 
ATOM     12  C   UNL     1       1.430   2.871  21.212  0.00  0.00    +0.000 C 
ATOM     13  N   UNL     1       1.937   4.930  19.958  0.00  0.00    +0.000 NA
ATOM     14  C   UNL     1       2.956   5.373  19.266  0.00  0.00    +0.000 A 
ATOM     15  C   UNL     1       3.007   6.690  18.591  0.00  0.00    +0.000 C 
ENDBRANCH   7   9
BRANCH   1  16
ATOM     16  C   UNL     1       5.737   4.032  14.327  0.00  0.00    +0.000 C 
BRANCH  16  17
ATOM     17  C   UNL     1       6.400   3.563  13.034  0.00  0.00    +0.000 C 
BRANCH  17  23
ATOM     18  C   UNL     1       2.765   4.226   9.892  0.00  0.00    +0.000 C 
ATOM     19  C   UNL     1       3.866   3.533  10.602  0.00  0.00    +0.000 A 
ATOM     20  C   UNL     1       4.341   2.223  10.387  0.00  0.00    +0.000 A 
ATOM     21  C   UNL     1       5.375   2.054  11.282  0.00  0.00    +0.000 A 
ATOM     22  C   UNL     1       6.254   0.885  11.521  0.00  0.00    +0.000 C 
ATOM     23  N   UNL     1       5.470   3.243  11.965  0.00  0.00    +0.000 N 
ATOM     24  N   UNL     1       4.542   4.148  11.580  0.00  0.00    +0.000 NA
ENDBRANCH  17  23
ENDBRANCH  16  17
ENDBRANCH   1  16
TORSDOF 4
ENDMDL
MODEL 4
REMARK VINA RESULT:      -7.2      1.113      1.143
REMARK  Name = 
REMARK  8 active torsions:
REMARK  status: ('A' for Active; 'I' for Inactive)
REMARK    1  A    between atoms: C_1  and  C_2
REMARK    2  A    between atoms: C_4  and  C_5
REMARK    3  A    between atoms: N_6  and  C_7
REMARK    4  A    between atoms: C_7  and  C_8
REMARK    5  A    between atoms: C_8  and  C_9
REMARK    6  A    between atoms: C_15  and  N_16
REMARK    7  A    between atoms: C_18  and  C_19
REMARK    8  A    between atoms: C_21  and  C_22
REMARK                            x       y       z     vdW  Elec       q    Type
REMARK                         _______ _______ _______ _____ _____    ______ ____
ROOT
ATOM      1  C   UNL     1       1.607   5.089  20.057  0.00  0.00    +0.000 C 
ATOM      2  O   UNL     1       0.476   4.747  20.407  0.00  0.00    +0.000 OA
ATOM      3  N   UNL     1       2.421   4.267  19.272  0.00  0.00    +0.000 N 
ATOM      4  C   UNL     1       1.799   3.045  18.775  0.00  0.00    +0.000 C 
ATOM      5  C   UNL     1       2.813   1.927  18.614  0.00  0.00    +0.000 C 
ATOM      6  C   UNL     1       3.975   2.348  17.716  0.00  0.00    +0.000 C 
ATOM      7  C   UNL     1       4.609   3.689  18.141  0.00  0.00    +0.000 C 
ATOM      8  C   UNL     1       3.551   4.766  18.463  0.00  0.00    +0.000 C 
ENDROOT
BRANCH   7   9
ATOM      9  N   UNL     1       5.579   4.170  17.157  0.00  0.00    +0.000 N 
ATOM     10  N   UNL     1       5.405   3.927  15.836  0.00  0.00    +0.000 NA
ATOM     11  C   UNL     1       6.482   4.511  15.296  0.00  0.00    +0.000 A 
ATOM     12  C   UNL     1       6.805   4.537  13.854  0.00  0.00    +0.000 C 
ATOM     13  N   UNL     1       7.314   5.107  16.196  0.00  0.00    +0.000 NA
ATOM     14  C   UNL     1       6.741   4.891  17.353  0.00  0.00    +0.000 A 
ATOM     15  C   UNL     1       7.271   5.357  18.655  0.00  0.00    +0.000 C 
ENDBRANCH   7   9
BRANCH   1  16
ATOM     16  C   UNL     1       2.147   6.444  20.450  0.00  0.00    +0.000 C 
BRANCH  16  17
ATOM     17  C   UNL     1       1.118   7.192  21.295  0.00  0.00    +0.000 C 
BRANCH  17  23
ATOM     18  C   UNL     1       1.267  11.152  18.500  0.00  0.00    +0.000 C 
ATOM     19  C   UNL     1       1.015  10.318  19.699  0.00  0.00    +0.000 A 
ATOM     20  C   UNL     1       0.462  10.724  20.931  0.00  0.00    +0.000 A 
ATOM     21  C   UNL     1       0.421   9.587  21.709  0.00  0.00    +0.000 A 
ATOM     22  C   UNL     1      -0.059   9.393  23.097  0.00  0.00    +0.000 C 
ATOM     23  N   UNL     1       0.932   8.583  20.922  0.00  0.00    +0.000 N 
ATOM     24  N   UNL     1       1.321   9.015  19.702  0.00  0.00    +0.000 NA
ENDBRANCH  17  23
ENDBRANCH  16  17
ENDBRANCH   1  16
TORSDOF 4
ENDMDL
MODEL 5
REMARK VINA RESULT:      -7.2      3.636      8.819
REMARK  Name = 
REMARK  8 active torsions:
REMARK  status: ('A' for Active; 'I' for Inactive)
REMARK    1  A    between atoms: C_1  and  C_2
REMARK    2  A    between atoms: C_4  and  C_5
REMARK    3  A    between atoms: N_6  and  C_7
REMARK    4  A    between atoms: C_7  and  C_8
REMARK    5  A    between atoms: C_8  and  C_9
REMARK    6  A    between atoms: C_15  and  N_16
REMARK    7  A    between atoms: C_18  and  C_19
REMARK    8  A    between atoms: C_21  and  C_22
REMARK                            x       y       z     vdW  Elec       q    Type
REMARK                         _______ _______ _______ _____ _____    ______ ____
ROOT
ATOM      1  C   UNL     1       6.862   4.826  15.009  0.00  0.00    +0.000 C 
ATOM      2  O   UNL     1       7.746   5.451  14.420  0.00  0.00    +0.000 OA
ATOM      3  N   UNL     1       6.619   4.993  16.375  0.00  0.00    +0.000 N 
ATOM      4  C   UNL     1       7.376   6.054  17.029  0.00  0.00    +0.000 C 
ATOM      5  C   UNL     1       7.648   5.729  18.487  0.00  0.00    +0.000 C 
ATOM      6  C   UNL     1       6.355   5.437  19.247  0.00  0.00    +0.000 C 
ATOM      7  C   UNL     1       5.467   4.389  18.545  0.00  0.00    +0.000 C 
ATOM      8  C   UNL     1       5.341   4.644  17.028  0.00  0.00    +0.000 C 
ENDROOT
BRANCH   7   9
ATOM      9  N   UNL     1       4.154   4.273  19.179  0.00  0.00    +0.000 N 
ATOM     10  N   UNL     1       3.556   5.353  19.737  0.00  0.00    +0.000 NA
ATOM     11  C   UNL     1       2.410   4.837  20.198  0.00  0.00    +0.000 A 
ATOM     12  C   UNL     1       1.365   5.590  20.921  0.00  0.00    +0.000 C 
ATOM     13  N   UNL     1       2.254   3.504  19.959  0.00  0.00    +0.000 NA
ATOM     14  C   UNL     1       3.345   3.163  19.321  0.00  0.00    +0.000 A 
ATOM     15  C   UNL     1       3.643   1.796  18.835  0.00  0.00    +0.000 C 
ENDBRANCH   7   9
BRANCH   1  16
ATOM     16  C   UNL     1       5.980   3.861  14.251  0.00  0.00    +0.000 C 
BRANCH  16  17
ATOM     17  C   UNL     1       6.528   3.649  12.841  0.00  0.00    +0.000 C 
BRANCH  17  23
ATOM     18  C   UNL     1       2.716   4.218   9.897  0.00  0.00    +0.000 C 
ATOM     19  C   UNL     1       3.843   3.540  10.580  0.00  0.00    +0.000 A 
ATOM     20  C   UNL     1       4.271   2.206  10.419  0.00  0.00    +0.000 A 
ATOM     21  C   UNL     1       5.356   2.064  11.256  0.00  0.00    +0.000 A 
ATOM     22  C   UNL     1       6.220   0.888  11.514  0.00  0.00    +0.000 C 
ATOM     23  N   UNL     1       5.523   3.290  11.855  0.00  0.00    +0.000 N 
ATOM     24  N   UNL     1       4.595   4.195  11.472  0.00  0.00    +0.000 NA
ENDBRANCH  17  23
ENDBRANCH  16  17
ENDBRANCH   1  16
TORSDOF 4
ENDMDL
MODEL 6
REMARK VINA RESULT:      -7.2      1.069      1.677
REMARK  Name = 
REMARK  8 active torsions:
REMARK  status: ('A' for Active; 'I' for Inactive)
REMARK    1  A    between atoms: C_1  and  C_2
REMARK    2  A    between atoms: C_4  and  C_5
REMARK    3  A    between atoms: N_6  and  C_7
REMARK    4  A    between atoms: C_7  and  C_8
REMARK    5  A    between atoms: C_8  and  C_9
REMARK    6  A    between atoms: C_15  and  N_16
REMARK    7  A    between atoms: C_18  and  C_19
REMARK    8  A    between atoms: C_21  and  C_22
REMARK                            x       y       z     vdW  Elec       q    Type
REMARK                         _______ _______ _______ _____ _____    ______ ____
ROOT
ATOM      1  C   UNL     1       2.020   6.103  20.255  0.00  0.00    +0.000 C 
ATOM      2  O   UNL     1       1.049   5.705  20.901  0.00  0.00    +0.000 OA
ATOM      3  N   UNL     1       2.965   5.225  19.718  0.00  0.00    +0.000 N 
ATOM      4  C   UNL     1       2.657   3.805  19.844  0.00  0.00    +0.000 C 
ATOM      5  C   UNL     1       3.918   2.967  19.952  0.00  0.00    +0.000 C 
ATOM      6  C   UNL     1       4.859   3.215  18.774  0.00  0.00    +0.000 C 
ATOM      7  C   UNL     1       5.141   4.712  18.534  0.00  0.00    +0.000 C 
ATOM      8  C   UNL     1       3.860   5.572  18.596  0.00  0.00    +0.000 C 
ENDROOT
BRANCH   7   9
ATOM      9  N   UNL     1       5.876   4.937  17.288  0.00  0.00    +0.000 N 
ATOM     10  N   UNL     1       5.561   4.249  16.165  0.00  0.00    +0.000 NA
ATOM     11  C   UNL     1       6.444   4.729  15.281  0.00  0.00    +0.000 A 
ATOM     12  C   UNL     1       6.555   4.306  13.870  0.00  0.00    +0.000 C 
ATOM     13  N   UNL     1       7.288   5.675  15.782  0.00  0.00    +0.000 NA
ATOM     14  C   UNL     1       6.924   5.799  17.033  0.00  0.00    +0.000 A 
ATOM     15  C   UNL     1       7.548   6.727  18.004  0.00  0.00    +0.000 C 
ENDBRANCH   7   9
BRANCH   1  16
ATOM     16  C   UNL     1       2.206   7.580  19.997  0.00  0.00    +0.000 C 
BRANCH  16  17
ATOM     17  C   UNL     1       1.149   8.381  20.755  0.00  0.00    +0.000 C 
BRANCH  17  23
ATOM     18  C   UNL     1       0.811  13.192  21.259  0.00  0.00    +0.000 C 
ATOM     19  C   UNL     1       0.881  11.877  20.578  0.00  0.00    +0.000 A 
ATOM     20  C   UNL     1       0.860  11.623  19.192  0.00  0.00    +0.000 A 
ATOM     21  C   UNL     1       0.963  10.254  19.067  0.00  0.00    +0.000 A 
ATOM     22  C   UNL     1       0.994   9.402  17.855  0.00  0.00    +0.000 C 
ATOM     23  N   UNL     1       1.046   9.772  20.351  0.00  0.00    +0.000 N 
ATOM     24  N   UNL     1       0.973  10.745  21.286  0.00  0.00    +0.000 NA
ENDBRANCH  17  23
ENDBRANCH  16  17
ENDBRANCH   1  16
TORSDOF 4
ENDMDL
MODEL 7
REMARK VINA RESULT:      -7.1      1.010      1.795
REMARK  Name = 
REMARK  8 active torsions:
REMARK  status: ('A' for Active; 'I' for Inactive)
REMARK    1  A    between atoms: C_1  and  C_2
REMARK    2  A    between atoms: C_4  and  C_5
REMARK    3  A    between atoms: N_6  and  C_7
REMARK    4  A    between atoms: C_7  and  C_8
REMARK    5  A    between atoms: C_8  and  C_9
REMARK    6  A    between atoms: C_15  and  N_16
REMARK    7  A    between atoms: C_18  and  C_19
REMARK    8  A    between atoms: C_21  and  C_22
REMARK                            x       y       z     vdW  Elec       q    Type
REMARK                         _______ _______ _______ _____ _____    ______ ____
ROOT
ATOM      1  C   UNL     1       1.920   6.326  20.267  0.00  0.00    +0.000 C 
ATOM      2  O   UNL     1       0.860   6.113  20.857  0.00  0.00    +0.000 OA
ATOM      3  N   UNL     1       2.755   5.290  19.841  0.00  0.00    +0.000 N 
ATOM      4  C   UNL     1       2.228   3.941  20.009  0.00  0.00    +0.000 C 
ATOM      5  C   UNL     1       3.338   2.933  20.247  0.00  0.00    +0.000 C 
ATOM      6  C   UNL     1       4.380   2.972  19.130  0.00  0.00    +0.000 C 
ATOM      7  C   UNL     1       4.901   4.396  18.843  0.00  0.00    +0.000 C 
ATOM      8  C   UNL     1       3.763   5.437  18.772  0.00  0.00    +0.000 C 
ENDROOT
BRANCH   7   9
ATOM      9  N   UNL     1       5.741   4.439  17.646  0.00  0.00    +0.000 N 
ATOM     10  N   UNL     1       5.260   4.031  16.447  0.00  0.00    +0.000 NA
ATOM     11  C   UNL     1       6.311   4.219  15.640  0.00  0.00    +0.000 A 
ATOM     12  C   UNL     1       6.341   3.919  14.194  0.00  0.00    +0.000 C 
ATOM     13  N   UNL     1       7.416   4.723  16.259  0.00  0.00    +0.000 NA
ATOM     14  C   UNL     1       7.050   4.859  17.508  0.00  0.00    +0.000 A 
ATOM     15  C   UNL     1       7.917   5.385  18.588  0.00  0.00    +0.000 C 
ENDBRANCH   7   9
BRANCH   1  16
ATOM     16  C   UNL     1       2.344   7.743  19.956  0.00  0.00    +0.000 C 
BRANCH  16  17
ATOM     17  C   UNL     1       1.171   8.521  19.363  0.00  0.00    +0.000 C 
BRANCH  17  23
ATOM     18  C   UNL     1      -1.049  10.670  23.101  0.00  0.00    +0.000 C 
ATOM     19  C   UNL     1      -0.300  10.543  21.828  0.00  0.00    +0.000 A 
ATOM     20  C   UNL     1       0.190  11.581  21.009  0.00  0.00    +0.000 A 
ATOM     21  C   UNL     1       0.822  10.954  19.958  0.00  0.00    +0.000 A 
ATOM     22  C   UNL     1       1.524  11.525  18.784  0.00  0.00    +0.000 C 
ATOM     23  N   UNL     1       0.688   9.608  20.197  0.00  0.00    +0.000 N 
ATOM     24  N   UNL     1      -0.013   9.339  21.321  0.00  0.00    +0.000 NA
ENDBRANCH  17  23
ENDBRANCH  16  17
ENDBRANCH   1  16
TORSDOF 4
ENDMDL
MODEL 8
REMARK VINA RESULT:      -7.1      1.325      2.618
REMARK  Name = 
REMARK  8 active torsions:
REMARK  status: ('A' for Active; 'I' for Inactive)
REMARK    1  A    between atoms: C_1  and  C_2
REMARK    2  A    between atoms: C_4  and  C_5
REMARK    3  A    between atoms: N_6  and  C_7
REMARK    4  A    between atoms: C_7  and  C_8
REMARK    5  A    between atoms: C_8  and  C_9
REMARK    6  A    between atoms: C_15  and  N_16
REMARK    7  A    between atoms: C_18  and  C_19
REMARK    8  A    between atoms: C_21  and  C_22
REMARK                            x       y       z     vdW  Elec       q    Type
REMARK                         _______ _______ _______ _____ _____    ______ ____
ROOT
ATOM      1  C   UNL     1       1.647   4.624  19.949  0.00  0.00    +0.000 C 
ATOM      2  O   UNL     1       0.553   4.057  19.980  0.00  0.00    +0.000 OA
ATOM      3  N   UNL     1       2.656   4.244  19.060  0.00  0.00    +0.000 N 
ATOM      4  C   UNL     1       2.287   3.232  18.076  0.00  0.00    +0.000 C 
ATOM      5  C   UNL     1       3.475   2.369  17.690  0.00  0.00    +0.000 C 
ATOM      6  C   UNL     1       4.643   3.215  17.186  0.00  0.00    +0.000 C 
ATOM      7  C   UNL     1       5.012   4.365  18.146  0.00  0.00    +0.000 C 
ATOM      8  C   UNL     1       3.771   5.126  18.660  0.00  0.00    +0.000 C 
ENDROOT
BRANCH   7   9
ATOM      9  N   UNL     1       5.991   5.277  17.555  0.00  0.00    +0.000 N 
ATOM     10  N   UNL     1       6.395   6.386  18.221  0.00  0.00    +0.000 NA
ATOM     11  C   UNL     1       7.261   6.934  17.360  0.00  0.00    +0.000 A 
ATOM     12  C   UNL     1       8.003   8.192  17.582  0.00  0.00    +0.000 C 
ATOM     13  N   UNL     1       7.426   6.236  16.201  0.00  0.00    +0.000 NA
ATOM     14  C   UNL     1       6.632   5.203  16.334  0.00  0.00    +0.000 A 
ATOM     15  C   UNL     1       6.464   4.135  15.322  0.00  0.00    +0.000 C 
ENDBRANCH   7   9
BRANCH   1  16
ATOM     16  C   UNL     1       1.925   5.789  20.870  0.00  0.00    +0.000 C 
BRANCH  16  17
ATOM     17  C   UNL     1       2.150   7.060  20.054  0.00  0.00    +0.000 C 
BRANCH  17  23
ATOM     18  C   UNL     1      -0.401   9.851  23.091  0.00  0.00    +0.000 C 
ATOM     19  C   UNL     1       0.245   9.416  21.830  0.00  0.00    +0.000 A 
ATOM     20  C   UNL     1       0.270  10.095  20.595  0.00  0.00    +0.000 A 
ATOM     21  C   UNL     1       1.003   9.293  19.747  0.00  0.00    +0.000 A 
ATOM     22  C   UNL     1       1.365   9.483  18.323  0.00  0.00    +0.000 C 
ATOM     23  N   UNL     1       1.376   8.206  20.500  0.00  0.00    +0.000 N 
ATOM     24  N   UNL     1       0.903   8.252  21.765  0.00  0.00    +0.000 NA
ENDBRANCH  17  23
ENDBRANCH  16  17
ENDBRANCH   1  16
TORSDOF 4
ENDMDL
MODEL 9
REMARK VINA RESULT:      -7.0      1.028      1.856
REMARK  Name = 
REMARK  8 active torsions:
REMARK  status: ('A' for Active; 'I' for Inactive)
REMARK    1  A    between atoms: C_1  and  C_2
REMARK    2  A    between atoms: C_4  and  C_5
REMARK    3  A    between atoms: N_6  and  C_7
REMARK    4  A    between atoms: C_7  and  C_8
REMARK    5  A    between atoms: C_8  and  C_9
REMARK    6  A    between atoms: C_15  and  N_16
REMARK    7  A    between atoms: C_18  and  C_19
REMARK    8  A    between atoms: C_21  and  C_22
REMARK                            x       y       z     vdW  Elec       q    Type
REMARK                         _______ _______ _______ _____ _____    ______ ____
ROOT
ATOM      1  C   UNL     1       2.056   7.010  19.868  0.00  0.00    +0.000 C 
ATOM      2  O   UNL     1       1.075   6.788  20.580  0.00  0.00    +0.000 OA
ATOM      3  N   UNL     1       2.911   5.990  19.442  0.00  0.00    +0.000 N 
ATOM      4  C   UNL     1       2.492   4.632  19.770  0.00  0.00    +0.000 C 
ATOM      5  C   UNL     1       3.683   3.713  19.971  0.00  0.00    +0.000 C 
ATOM      6  C   UNL     1       4.606   3.716  18.753  0.00  0.00    +0.000 C 
ATOM      7  C   UNL     1       5.002   5.137  18.302  0.00  0.00    +0.000 C 
ATOM      8  C   UNL     1       3.798   6.103  18.267  0.00  0.00    +0.000 C 
ENDROOT
BRANCH   7   9
ATOM      9  N   UNL     1       5.716   5.126  17.025  0.00  0.00    +0.000 N 
ATOM     10  N   UNL     1       5.335   4.295  16.025  0.00  0.00    +0.000 NA
ATOM     11  C   UNL     1       6.221   4.582  15.064  0.00  0.00    +0.000 A 
ATOM     12  C   UNL     1       6.272   3.943  13.733  0.00  0.00    +0.000 C 
ATOM     13  N   UNL     1       7.128   5.543  15.399  0.00  0.00    +0.000 NA
ATOM     14  C   UNL     1       6.803   5.877  16.623  0.00  0.00    +0.000 A 
ATOM     15  C   UNL     1       7.503   6.903  17.428  0.00  0.00    +0.000 C 
ENDBRANCH   7   9
BRANCH   1  16
ATOM     16  C   UNL     1       2.355   8.417  19.404  0.00  0.00    +0.000 C 
BRANCH  16  17
ATOM     17  C   UNL     1       1.219   8.928  18.520  0.00  0.00    +0.000 C 
BRANCH  17  23
ATOM     18  C   UNL     1      -0.367  11.968  21.950  0.00  0.00    +0.000 C 
ATOM     19  C   UNL     1      -0.358  11.204  20.680  0.00  0.00    +0.000 A 
ATOM     20  C   UNL     1      -1.327  11.223  19.656  0.00  0.00    +0.000 A 
ATOM     21  C   UNL     1      -0.859  10.360  18.689  0.00  0.00    +0.000 A 
ATOM     22  C   UNL     1      -1.446   9.972  17.385  0.00  0.00    +0.000 C 
ATOM     23  N   UNL     1       0.339   9.887  19.167  0.00  0.00    +0.000 N 
ATOM     24  N   UNL     1       0.649  10.372  20.390  0.00  0.00    +0.000 NA
ENDBRANCH  17  23
ENDBRANCH  16  17
ENDBRANCH   1  16
TORSDOF 4
ENDMDL
