MODEL 1
REMARK VINA RESULT:      -6.5      0.000      0.000
REMARK  Name = 
REMARK  6 active torsions:
REMARK  status: ('A' for Active; 'I' for Inactive)
REMARK    1  A    between atoms: C_1  and  C_2
REMARK    2  A    between atoms: C_2  and  C_3
REMARK    3  A    between atoms: C_3  and  C_4
REMARK    4  A    between atoms: C_4  and  C_5
REMARK    5  A    between atoms: C_5  and  C_6
REMARK    6  A    between atoms: C_6  and  O_7
REMARK                            x       y       z     vdW  Elec       q    Type
REMARK                         _______ _______ _______ _____ _____    ______ ____
ROOT
ATOM      1  C   UNL     1       6.787   5.737  17.947  0.00  0.00    +0.000 C 
ATOM      2  C   UNL     1       7.665   4.648  17.364  0.00  0.00    +0.000 C 
ATOM      3  O   UNL     1       8.519   4.058  18.025  0.00  0.00    +0.000 OA
ATOM      4  N   UNL     1       7.476   4.322  16.053  0.00  0.00    +0.000 N 
ATOM      5  C   UNL     1       6.566   4.878  15.214  0.00  0.00    +0.000 C 
ATOM      6  S   UNL     1       6.420   4.353  13.643  0.00  0.00    +0.000 S 
ATOM      7  N   UNL     1       5.792   5.876  15.699  0.00  0.00    +0.000 N 
ATOM      8  C   UNL     1       5.764   6.322  16.992  0.00  0.00    +0.000 C 
ATOM      9  O   UNL     1       4.923   7.149  17.347  0.00  0.00    +0.000 OA
ATOM     10  H   UNL     1       8.062   3.579  15.695  0.00  0.00    +0.000 HD
ATOM     11  H   UNL     1       5.074   6.254  15.091  0.00  0.00    +0.000 HD
ENDROOT
BRANCH   1  12
ATOM     12  C   UNL     1       7.716   6.885  18.447  0.00  0.00    +0.000 C 
BRANCH  12  14
ATOM     13  C   UNL     1       8.377   9.316  18.145  0.00  0.00    +0.000 C 
ATOM     14  C   UNL     1       7.878   8.051  17.456  0.00  0.00    +0.000 C 
ENDBRANCH  12  14
ENDBRANCH   1  12
BRANCH   1  15
ATOM     15  C   UNL     1       6.023   5.118  19.155  0.00  0.00    +0.000 C 
BRANCH  15  16
ATOM     16  C   UNL     1       5.045   3.998  18.779  0.00  0.00    +0.000 C 
BRANCH  16  17
ATOM     17  O   UNL     1       5.281   2.816  19.527  0.00  0.00    +0.000 OA
ATOM     18  H   UNL     1       6.034   2.983  20.129  0.00  0.00    +0.000 HD
ENDBRANCH  16  17
ENDBRANCH  15  16
ENDBRANCH   1  15
TORSDOF 5
ENDMDL
MODEL 2
REMARK VINA RESULT:      -6.1      2.320      3.946
REMARK  Name = 
REMARK  6 active torsions:
REMARK  status: ('A' for Active; 'I' for Inactive)
REMARK    1  A    between atoms: C_1  and  C_2
REMARK    2  A    between atoms: C_2  and  C_3
REMARK    3  A    between atoms: C_3  and  C_4
REMARK    4  A    between atoms: C_4  and  C_5
REMARK    5  A    between atoms: C_5  and  C_6
REMARK    6  A    between atoms: C_6  and  O_7
REMARK                            x       y       z     vdW  Elec       q    Type
REMARK                         _______ _______ _______ _____ _____    ______ ____
ROOT
ATOM      1  C   UNL     1       6.810   5.538  16.445  0.00  0.00    +0.000 C 
ATOM      2  C   UNL     1       7.175   4.530  17.516  0.00  0.00    +0.000 C 
ATOM      3  O   UNL     1       8.317   4.096  17.660  0.00  0.00    +0.000 OA
ATOM      4  N   UNL     1       6.178   4.106  18.347  0.00  0.00    +0.000 N 
ATOM      5  C   UNL     1       4.883   4.508  18.311  0.00  0.00    +0.000 C 
ATOM      6  S   UNL     1       3.780   3.934  19.415  0.00  0.00    +0.000 S 
ATOM      7  N   UNL     1       4.523   5.384  17.344  0.00  0.00    +0.000 N 
ATOM      8  C   UNL     1       5.361   5.986  16.446  0.00  0.00    +0.000 C 
ATOM      9  O   UNL     1       4.939   6.867  15.695  0.00  0.00    +0.000 OA
ATOM     10  H   UNL     1       6.453   3.447  19.063  0.00  0.00    +0.000 HD
ATOM     11  H   UNL     1       3.569   5.728  17.350  0.00  0.00    +0.000 HD
ENDROOT
BRANCH   1  12
ATOM     12  C   UNL     1       7.134   4.903  15.059  0.00  0.00    +0.000 C 
BRANCH  12  14
ATOM     13  C   UNL     1       6.142   3.673  13.074  0.00  0.00    +0.000 C 
ATOM     14  C   UNL     1       6.118   3.848  14.587  0.00  0.00    +0.000 C 
ENDBRANCH  12  14
ENDBRANCH   1  12
BRANCH   1  15
ATOM     15  C   UNL     1       7.705   6.793  16.668  0.00  0.00    +0.000 C 
BRANCH  15  16
ATOM     16  C   UNL     1       7.556   7.439  18.052  0.00  0.00    +0.000 C 
BRANCH  16  17
ATOM     17  O   UNL     1       8.319   6.762  19.037  0.00  0.00    +0.000 OA
ATOM     18  H   UNL     1       7.919   5.881  19.180  0.00  0.00    +0.000 HD
ENDBRANCH  16  17
ENDBRANCH  15  16
ENDBRANCH   1  15
TORSDOF 5
ENDMDL
MODEL 3
REMARK VINA RESULT:      -6.0      2.407      3.777
REMARK  Name = 
REMARK  6 active torsions:
REMARK  status: ('A' for Active; 'I' for Inactive)
REMARK    1  A    between atoms: C_1  and  C_2
REMARK    2  A    between atoms: C_2  and  C_3
REMARK    3  A    between atoms: C_3  and  C_4
REMARK    4  A    between atoms: C_4  and  C_5
REMARK    5  A    between atoms: C_5  and  C_6
REMARK    6  A    between atoms: C_6  and  O_7
REMARK                            x       y       z     vdW  Elec       q    Type
REMARK                         _______ _______ _______ _____ _____    ______ ____
ROOT
ATOM      1  C   UNL     1       6.839   5.593  16.464  0.00  0.00    +0.000 C 
ATOM      2  C   UNL     1       5.386   6.020  16.425  0.00  0.00    +0.000 C 
ATOM      3  O   UNL     1       4.940   6.784  15.570  0.00  0.00    +0.000 OA
ATOM      4  N   UNL     1       4.556   5.518  17.386  0.00  0.00    +0.000 N 
ATOM      5  C   UNL     1       4.907   4.660  18.376  0.00  0.00    +0.000 C 
ATOM      6  S   UNL     1       3.778   4.097  19.459  0.00  0.00    +0.000 S 
ATOM      7  N   UNL     1       6.206   4.287  18.453  0.00  0.00    +0.000 N 
ATOM      8  C   UNL     1       7.195   4.615  17.567  0.00  0.00    +0.000 C 
ATOM      9  O   UNL     1       8.314   4.109  17.668  0.00  0.00    +0.000 OA
ATOM     10  H   UNL     1       3.588   5.805  17.325  0.00  0.00    +0.000 HD
ATOM     11  H   UNL     1       6.460   3.603  19.157  0.00  0.00    +0.000 HD
ENDROOT
BRANCH   1  12
ATOM     12  C   UNL     1       7.711   6.874  16.632  0.00  0.00    +0.000 C 
BRANCH  12  14
ATOM     13  C   UNL     1       8.252   8.886  18.080  0.00  0.00    +0.000 C 
ATOM     14  C   UNL     1       7.714   7.461  18.055  0.00  0.00    +0.000 C 
ENDBRANCH  12  14
ENDBRANCH   1  12
BRANCH   1  15
ATOM     15  C   UNL     1       7.159   4.918  15.097  0.00  0.00    +0.000 C 
BRANCH  15  16
ATOM     16  C   UNL     1       6.212   3.770  14.721  0.00  0.00    +0.000 C 
BRANCH  16  17
ATOM     17  O   UNL     1       5.314   4.142  13.688  0.00  0.00    +0.000 OA
ATOM     18  H   UNL     1       5.839   4.343  12.887  0.00  0.00    +0.000 HD
ENDBRANCH  16  17
ENDBRANCH  15  16
ENDBRANCH   1  15
TORSDOF 5
ENDMDL
MODEL 4
REMARK VINA RESULT:      -6.0      3.113      5.017
REMARK  Name = 
REMARK  6 active torsions:
REMARK  status: ('A' for Active; 'I' for Inactive)
REMARK    1  A    between atoms: C_1  and  C_2
REMARK    2  A    between atoms: C_2  and  C_3
REMARK    3  A    between atoms: C_3  and  C_4
REMARK    4  A    between atoms: C_4  and  C_5
REMARK    5  A    between atoms: C_5  and  C_6
REMARK    6  A    between atoms: C_6  and  O_7
REMARK                            x       y       z     vdW  Elec       q    Type
REMARK                         _______ _______ _______ _____ _____    ______ ____
ROOT
ATOM      1  C   UNL     1       3.229   4.466  19.191  0.00  0.00    +0.000 C 
ATOM      2  C   UNL     1       4.257   3.356  19.279  0.00  0.00    +0.000 C 
ATOM      3  O   UNL     1       3.977   2.219  19.658  0.00  0.00    +0.000 OA
ATOM      4  N   UNL     1       5.536   3.653  18.909  0.00  0.00    +0.000 N 
ATOM      5  C   UNL     1       5.980   4.853  18.460  0.00  0.00    +0.000 C 
ATOM      6  S   UNL     1       7.566   5.062  18.006  0.00  0.00    +0.000 S 
ATOM      7  N   UNL     1       5.090   5.871  18.403  0.00  0.00    +0.000 N 
ATOM      8  C   UNL     1       3.750   5.789  18.664  0.00  0.00    +0.000 C 
ATOM      9  O   UNL     1       3.014   6.754  18.451  0.00  0.00    +0.000 OA
ATOM     10  H   UNL     1       6.197   2.888  18.959  0.00  0.00    +0.000 HD
ATOM     11  H   UNL     1       5.406   6.753  18.015  0.00  0.00    +0.000 HD
ENDROOT
BRANCH   1  12
ATOM     12  C   UNL     1       2.647   4.693  20.620  0.00  0.00    +0.000 C 
BRANCH  12  14
ATOM     13  C   UNL     1       1.357   2.774  21.663  0.00  0.00    +0.000 C 
ATOM     14  C   UNL     1       1.263   4.060  20.852  0.00  0.00    +0.000 C 
ENDBRANCH  12  14
ENDBRANCH   1  12
BRANCH   1  15
ATOM     15  C   UNL     1       2.099   3.976  18.238  0.00  0.00    +0.000 C 
BRANCH  15  16
ATOM     16  C   UNL     1       2.581   3.064  17.102  0.00  0.00    +0.000 C 
BRANCH  16  17
ATOM     17  O   UNL     1       2.170   1.720  17.292  0.00  0.00    +0.000 OA
ATOM     18  H   UNL     1       1.610   1.684  18.093  0.00  0.00    +0.000 HD
ENDBRANCH  16  17
ENDBRANCH  15  16
ENDBRANCH   1  15
TORSDOF 5
ENDMDL
MODEL 5
REMARK VINA RESULT:      -6.0      4.378      5.553
REMARK  Name = 
REMARK  6 active torsions:
REMARK  status: ('A' for Active; 'I' for Inactive)
REMARK    1  A    between atoms: C_1  and  C_2
REMARK    2  A    between atoms: C_2  and  C_3
REMARK    3  A    between atoms: C_3  and  C_4
REMARK    4  A    between atoms: C_4  and  C_5
REMARK    5  A    between atoms: C_5  and  C_6
REMARK    6  A    between atoms: C_6  and  O_7
REMARK                            x       y       z     vdW  Elec       q    Type
REMARK                         _______ _______ _______ _____ _____    ______ ____
ROOT
ATOM      1  C   UNL     1       3.433   4.357  17.975  0.00  0.00    +0.000 C 
ATOM      2  C   UNL     1       1.947   4.075  18.071  0.00  0.00    +0.000 C 
ATOM      3  O   UNL     1       1.170   4.280  17.140  0.00  0.00    +0.000 OA
ATOM      4  N   UNL     1       1.478   3.566  19.247  0.00  0.00    +0.000 N 
ATOM      5  C   UNL     1       2.220   3.278  20.346  0.00  0.00    +0.000 C 
ATOM      6  S   UNL     1       1.517   2.622  21.703  0.00  0.00    +0.000 S 
ATOM      7  N   UNL     1       3.544   3.551  20.299  0.00  0.00    +0.000 N 
ATOM      8  C   UNL     1       4.239   4.003  19.211  0.00  0.00    +0.000 C 
ATOM      9  O   UNL     1       5.467   4.090  19.248  0.00  0.00    +0.000 OA
ATOM     10  H   UNL     1       0.486   3.370  19.277  0.00  0.00    +0.000 HD
ATOM     11  H   UNL     1       4.110   3.285  21.098  0.00  0.00    +0.000 HD
ENDROOT
BRANCH   1  12
ATOM     12  C   UNL     1       3.614   5.877  17.681  0.00  0.00    +0.000 C 
BRANCH  12  14
ATOM     13  C   UNL     1       2.303   8.026  17.999  0.00  0.00    +0.000 C 
ATOM     14  C   UNL     1       2.912   6.809  18.685  0.00  0.00    +0.000 C 
ENDBRANCH  12  14
ENDBRANCH   1  12
BRANCH   1  15
ATOM     15  C   UNL     1       3.986   3.523  16.781  0.00  0.00    +0.000 C 
BRANCH  15  16
ATOM     16  C   UNL     1       5.093   4.220  15.981  0.00  0.00    +0.000 C 
BRANCH  16  17
ATOM     17  O   UNL     1       6.386   3.815  16.403  0.00  0.00    +0.000 OA
ATOM     18  H   UNL     1       6.977   4.594  16.360  0.00  0.00    +0.000 HD
ENDBRANCH  16  17
ENDBRANCH  15  16
ENDBRANCH   1  15
TORSDOF 5
ENDMDL
MODEL 6
REMARK VINA RESULT:      -5.9      2.796      4.410
REMARK  Name = 
REMARK  6 active torsions:
REMARK  status: ('A' for Active; 'I' for Inactive)
REMARK    1  A    between atoms: C_1  and  C_2
REMARK    2  A    between atoms: C_2  and  C_3
REMARK    3  A    between atoms: C_3  and  C_4
REMARK    4  A    between atoms: C_4  and  C_5
REMARK    5  A    between atoms: C_5  and  C_6
REMARK    6  A    between atoms: C_6  and  O_7
REMARK                            x       y       z     vdW  Elec       q    Type
REMARK                         _______ _______ _______ _____ _____    ______ ____
ROOT
ATOM      1  C   UNL     1       5.606   5.180  17.110  0.00  0.00    +0.000 C 
ATOM      2  C   UNL     1       5.200   4.740  18.502  0.00  0.00    +0.000 C 
ATOM      3  O   UNL     1       5.739   3.801  19.086  0.00  0.00    +0.000 OA
ATOM      4  N   UNL     1       4.196   5.435  19.113  0.00  0.00    +0.000 N 
ATOM      5  C   UNL     1       3.527   6.494  18.594  0.00  0.00    +0.000 C 
ATOM      6  S   UNL     1       2.347   7.272  19.472  0.00  0.00    +0.000 S 
ATOM      7  N   UNL     1       3.848   6.888  17.340  0.00  0.00    +0.000 N 
ATOM      8  C   UNL     1       4.856   6.382  16.567  0.00  0.00    +0.000 C 
ATOM      9  O   UNL     1       5.140   6.909  15.490  0.00  0.00    +0.000 OA
ATOM     10  H   UNL     1       3.958   5.131  20.048  0.00  0.00    +0.000 HD
ATOM     11  H   UNL     1       3.388   7.713  16.972  0.00  0.00    +0.000 HD
ENDROOT
BRANCH   1  12
ATOM     12  C   UNL     1       5.386   3.977  16.143  0.00  0.00    +0.000 C 
BRANCH  12  14
ATOM     13  C   UNL     1       5.940   3.943  13.667  0.00  0.00    +0.000 C 
ATOM     14  C   UNL     1       6.488   3.802  15.082  0.00  0.00    +0.000 C 
ENDBRANCH  12  14
ENDBRANCH   1  12
BRANCH   1  15
ATOM     15  C   UNL     1       7.121   5.539  17.162  0.00  0.00    +0.000 C 
BRANCH  15  16
ATOM     16  C   UNL     1       7.443   6.814  17.952  0.00  0.00    +0.000 C 
BRANCH  16  17
ATOM     17  O   UNL     1       7.754   7.902  17.096  0.00  0.00    +0.000 OA
ATOM     18  H   UNL     1       8.312   7.565  16.367  0.00  0.00    +0.000 HD
ENDBRANCH  16  17
ENDBRANCH  15  16
ENDBRANCH   1  15
TORSDOF 5
ENDMDL
MODEL 7
REMARK VINA RESULT:      -5.9      2.853      4.037
REMARK  Name = 
REMARK  6 active torsions:
REMARK  status: ('A' for Active; 'I' for Inactive)
REMARK    1  A    between atoms: C_1  and  C_2
REMARK    2  A    between atoms: C_2  and  C_3
REMARK    3  A    between atoms: C_3  and  C_4
REMARK    4  A    between atoms: C_4  and  C_5
REMARK    5  A    between atoms: C_5  and  C_6
REMARK    6  A    between atoms: C_6  and  O_7
REMARK                            x       y       z     vdW  Elec       q    Type
REMARK                         _______ _______ _______ _____ _____    ______ ____
ROOT
ATOM      1  C   UNL     1       5.735   5.337  17.057  0.00  0.00    +0.000 C 
ATOM      2  C   UNL     1       4.897   6.483  16.526  0.00  0.00    +0.000 C 
ATOM      3  O   UNL     1       5.067   6.970  15.410  0.00  0.00    +0.000 OA
ATOM      4  N   UNL     1       3.914   6.972  17.338  0.00  0.00    +0.000 N 
ATOM      5  C   UNL     1       3.608   6.524  18.581  0.00  0.00    +0.000 C 
ATOM      6  S   UNL     1       2.354   7.193  19.445  0.00  0.00    +0.000 S 
ATOM      7  N   UNL     1       4.362   5.523  19.092  0.00  0.00    +0.000 N 
ATOM      8  C   UNL     1       5.352   4.843  18.439  0.00  0.00    +0.000 C 
ATOM      9  O   UNL     1       5.882   3.861  18.962  0.00  0.00    +0.000 OA
ATOM     10  H   UNL     1       3.359   7.724  16.952  0.00  0.00    +0.000 HD
ATOM     11  H   UNL     1       4.099   5.149  19.998  0.00  0.00    +0.000 HD
ENDROOT
BRANCH   1  12
ATOM     12  C   UNL     1       7.221   5.805  17.088  0.00  0.00    +0.000 C 
BRANCH  12  14
ATOM     13  C   UNL     1       7.875   8.191  17.652  0.00  0.00    +0.000 C 
ATOM     14  C   UNL     1       7.550   6.810  18.207  0.00  0.00    +0.000 C 
ENDBRANCH  12  14
ENDBRANCH   1  12
BRANCH   1  15
ATOM     15  C   UNL     1       5.580   4.151  16.059  0.00  0.00    +0.000 C 
BRANCH  15  16
ATOM     16  C   UNL     1       6.701   4.052  15.016  0.00  0.00    +0.000 C 
BRANCH  16  17
ATOM     17  O   UNL     1       6.268   3.396  13.835  0.00  0.00    +0.000 OA
ATOM     18  H   UNL     1       6.723   2.531  13.784  0.00  0.00    +0.000 HD
ENDBRANCH  16  17
ENDBRANCH  15  16
ENDBRANCH   1  15
TORSDOF 5
ENDMDL
MODEL 8
REMARK VINA RESULT:      -5.9      2.844      4.239
REMARK  Name = 
REMARK  6 active torsions:
REMARK  status: ('A' for Active; 'I' for Inactive)
REMARK    1  A    between atoms: C_1  and  C_2
REMARK    2  A    between atoms: C_2  and  C_3
REMARK    3  A    between atoms: C_3  and  C_4
REMARK    4  A    between atoms: C_4  and  C_5
REMARK    5  A    between atoms: C_5  and  C_6
REMARK    6  A    between atoms: C_6  and  O_7
REMARK                            x       y       z     vdW  Elec       q    Type
REMARK                         _______ _______ _______ _____ _____    ______ ____
ROOT
ATOM      1  C   UNL     1       5.568   4.910  17.432  0.00  0.00    +0.000 C 
ATOM      2  C   UNL     1       4.930   4.400  18.709  0.00  0.00    +0.000 C 
ATOM      3  O   UNL     1       5.269   3.347  19.246  0.00  0.00    +0.000 OA
ATOM      4  N   UNL     1       3.947   5.163  19.268  0.00  0.00    +0.000 N 
ATOM      5  C   UNL     1       3.485   6.347  18.793  0.00  0.00    +0.000 C 
ATOM      6  S   UNL     1       2.303   7.190  19.604  0.00  0.00    +0.000 S 
ATOM      7  N   UNL     1       4.015   6.809  17.637  0.00  0.00    +0.000 N 
ATOM      8  C   UNL     1       5.048   6.247  16.939  0.00  0.00    +0.000 C 
ATOM      9  O   UNL     1       5.533   6.830  15.968  0.00  0.00    +0.000 OA
ATOM     10  H   UNL     1       3.552   4.808  20.129  0.00  0.00    +0.000 HD
ATOM     11  H   UNL     1       3.712   7.720  17.310  0.00  0.00    +0.000 HD
ENDROOT
BRANCH   1  12
ATOM     12  C   UNL     1       5.334   3.843  16.320  0.00  0.00    +0.000 C 
BRANCH  12  14
ATOM     13  C   UNL     1       5.931   3.999  13.859  0.00  0.00    +0.000 C 
ATOM     14  C   UNL     1       6.456   3.761  15.269  0.00  0.00    +0.000 C 
ENDBRANCH  12  14
ENDBRANCH   1  12
BRANCH   1  15
ATOM     15  C   UNL     1       7.095   5.055  17.704  0.00  0.00    +0.000 C 
BRANCH  15  16
ATOM     16  C   UNL     1       7.446   6.031  18.835  0.00  0.00    +0.000 C 
BRANCH  16  17
ATOM     17  O   UNL     1       8.226   5.412  19.845  0.00  0.00    +0.000 OA
ATOM     18  H   UNL     1       8.721   6.111  20.318  0.00  0.00    +0.000 HD
ENDBRANCH  16  17
ENDBRANCH  15  16
ENDBRANCH   1  15
TORSDOF 5
ENDMDL
MODEL 9
REMARK VINA RESULT:      -5.9      2.723      3.986
REMARK  Name = 
REMARK  6 active torsions:
REMARK  status: ('A' for Active; 'I' for Inactive)
REMARK    1  A    between atoms: C_1  and  C_2
REMARK    2  A    between atoms: C_2  and  C_3
REMARK    3  A    between atoms: C_3  and  C_4
REMARK    4  A    between atoms: C_4  and  C_5
REMARK    5  A    between atoms: C_5  and  C_6
REMARK    6  A    between atoms: C_6  and  O_7
REMARK                            x       y       z     vdW  Elec       q    Type
REMARK                         _______ _______ _______ _____ _____    ______ ____
ROOT
ATOM      1  C   UNL     1       6.198   4.919  17.437  0.00  0.00    +0.000 C 
ATOM      2  C   UNL     1       4.968   4.442  18.182  0.00  0.00    +0.000 C 
ATOM      3  O   UNL     1       4.871   3.308  18.648  0.00  0.00    +0.000 OA
ATOM      4  N   UNL     1       3.942   5.329  18.335  0.00  0.00    +0.000 N 
ATOM      5  C   UNL     1       3.919   6.610  17.887  0.00  0.00    +0.000 C 
ATOM      6  S   UNL     1       2.612   7.594  18.180  0.00  0.00    +0.000 S 
ATOM      7  N   UNL     1       4.993   7.051  17.190  0.00  0.00    +0.000 N 
ATOM      8  C   UNL     1       6.153   6.361  16.970  0.00  0.00    +0.000 C 
ATOM      9  O   UNL     1       7.114   6.914  16.433  0.00  0.00    +0.000 OA
ATOM     10  H   UNL     1       3.142   4.991  18.852  0.00  0.00    +0.000 HD
ATOM     11  H   UNL     1       5.002   8.023  16.903  0.00  0.00    +0.000 HD
ENDROOT
BRANCH   1  12
ATOM     12  C   UNL     1       6.392   3.998  16.194  0.00  0.00    +0.000 C 
BRANCH  12  14
ATOM     13  C   UNL     1       6.059   3.905  13.680  0.00  0.00    +0.000 C 
ATOM     14  C   UNL     1       5.450   4.309  15.017  0.00  0.00    +0.000 C 
ENDBRANCH  12  14
ENDBRANCH   1  12
BRANCH   1  15
ATOM     15  C   UNL     1       7.412   4.760  18.400  0.00  0.00    +0.000 C 
BRANCH  15  16
ATOM     16  C   UNL     1       7.417   5.741  19.580  0.00  0.00    +0.000 C 
BRANCH  16  17
ATOM     17  O   UNL     1       8.193   5.260  20.665  0.00  0.00    +0.000 OA
ATOM     18  H   UNL     1       7.671   5.371  21.485  0.00  0.00    +0.000 HD
ENDBRANCH  16  17
ENDBRANCH  15  16
ENDBRANCH   1  15
TORSDOF 5
ENDMDL
