MODEL 1
REMARK VINA RESULT:      -7.2      0.000      0.000
REMARK  Name = 
REMARK  8 active torsions:
REMARK  status: ('A' for Active; 'I' for Inactive)
REMARK    1  A    between atoms: C_1  and  C_2
REMARK    2  A    between atoms: N_8  and  C_9
REMARK    3  A    between atoms: C_9  and  C_10
REMARK    4  A    between atoms: C_10  and  O_12
REMARK    5  A    between atoms: C_15  and  C_16
REMARK    6  A    between atoms: C_19  and  N_20
REMARK    7  A    between atoms: N_20  and  C_21
REMARK    8  A    between atoms: N_20  and  C_22
REMARK                            x       y       z     vdW  Elec       q    Type
REMARK                         _______ _______ _______ _____ _____    ______ ____
ROOT
ATOM      1  C   UNL     1      -0.567  12.560  22.331  0.00  0.00    +0.000 C 
ATOM      2  C   UNL     1       0.301  12.681  21.106  0.00  0.00    +0.000 A 
ATOM      3  C   UNL     1       0.778  13.997  20.861  0.00  0.00    +0.000 A 
ATOM      4  C   UNL     1       1.566  14.310  19.757  0.00  0.00    +0.000 A 
ATOM      5  C   UNL     1       1.901  13.308  18.870  0.00  0.00    +0.000 A 
ATOM      6  C   UNL     1       1.459  11.999  19.097  0.00  0.00    +0.000 A 
ATOM      7  C   UNL     1       0.635  11.631  20.215  0.00  0.00    +0.000 A 
ATOM      8  N   UNL     1       0.288  10.274  20.361  0.00  0.00    +0.000 N 
ATOM      9  C   UNL     1       0.221   9.519  19.099  0.00  0.00    +0.000 C 
ATOM     10  C   UNL     1       1.577   9.574  18.502  0.00  0.00    +0.000 C 
ATOM     11  C   UNL     1       2.487   8.602  18.345  0.00  0.00    +0.000 C 
ATOM     12  C   UNL     1       1.970  10.959  18.159  0.00  0.00    +0.000 C 
ATOM     13  O   UNL     1       2.680  11.216  17.200  0.00  0.00    +0.000 OA
ENDROOT
BRANCH  11  14
ATOM     14  C   UNL     1       2.305   7.231  18.818  0.00  0.00    +0.000 A 
ATOM     15  C   UNL     1       2.090   6.954  20.163  0.00  0.00    +0.000 A 
ATOM     16  C   UNL     1       1.873   5.631  20.588  0.00  0.00    +0.000 A 
ATOM     17  C   UNL     1       1.868   4.544  19.696  0.00  0.00    +0.000 A 
ATOM     18  C   UNL     1       2.131   4.859  18.351  0.00  0.00    +0.000 A 
ATOM     19  C   UNL     1       2.335   6.175  17.911  0.00  0.00    +0.000 A 
BRANCH  17  20
ATOM     20  N   UNL     1       1.688   3.225  20.102  0.00  0.00    +0.000 N 
ATOM     21  C   UNL     1       1.722   2.891  21.530  0.00  0.00    +0.000 C 
ATOM     22  C   UNL     1       2.042   2.104  19.232  0.00  0.00    +0.000 C 
ENDBRANCH  17  20
ENDBRANCH  11  14
BRANCH   8  23
ATOM     23  C   UNL     1      -0.452   9.655  21.488  0.00  0.00    +0.000 C 
BRANCH  23  24
ATOM     24  C   UNL     1       0.461   9.409  22.687  0.00  0.00    +0.000 C 
ATOM     25  O   UNL     1       1.680   9.328  22.622  0.00  0.00    +0.000 OA
BRANCH  24  26
ATOM     26  O   UNL     1      -0.222   9.337  23.857  0.00  0.00    +0.000 OA
ATOM     27  H   UNL     1      -0.548  10.245  24.057  0.00  0.00    +0.000 HD
ENDBRANCH  24  26
ENDBRANCH  23  24
ENDBRANCH   8  23
TORSDOF 5
ENDMDL
MODEL 2
REMARK VINA RESULT:      -6.8      1.807      3.824
REMARK  Name = 
REMARK  8 active torsions:
REMARK  status: ('A' for Active; 'I' for Inactive)
REMARK    1  A    between atoms: C_1  and  C_2
REMARK    2  A    between atoms: N_8  and  C_9
REMARK    3  A    between atoms: C_9  and  C_10
REMARK    4  A    between atoms: C_10  and  O_12
REMARK    5  A    between atoms: C_15  and  C_16
REMARK    6  A    between atoms: C_19  and  N_20
REMARK    7  A    between atoms: N_20  and  C_21
REMARK    8  A    between atoms: N_20  and  C_22
REMARK                            x       y       z     vdW  Elec       q    Type
REMARK                         _______ _______ _______ _____ _____    ______ ____
ROOT
ATOM      1  C   UNL     1      -1.761  12.313  18.694  0.00  0.00    +0.000 C 
ATOM      2  C   UNL     1      -1.542  11.863  20.115  0.00  0.00    +0.000 A 
ATOM      3  C   UNL     1      -2.332  12.555  21.071  0.00  0.00    +0.000 A 
ATOM      4  C   UNL     1      -2.241  12.300  22.436  0.00  0.00    +0.000 A 
ATOM      5  C   UNL     1      -1.357  11.339  22.879  0.00  0.00    +0.000 A 
ATOM      6  C   UNL     1      -0.578  10.630  21.957  0.00  0.00    +0.000 A 
ATOM      7  C   UNL     1      -0.629  10.865  20.540  0.00  0.00    +0.000 A 
ATOM      8  N   UNL     1       0.171  10.060  19.707  0.00  0.00    +0.000 N 
ATOM      9  C   UNL     1       1.401   9.555  20.341  0.00  0.00    +0.000 C 
ATOM     10  C   UNL     1       0.972   8.725  21.492  0.00  0.00    +0.000 C 
ATOM     11  C   UNL     1       1.044   7.398  21.668  0.00  0.00    +0.000 C 
ATOM     12  C   UNL     1       0.257   9.526  22.510  0.00  0.00    +0.000 C 
ATOM     13  O   UNL     1       0.328   9.277  23.703  0.00  0.00    +0.000 OA
ENDROOT
BRANCH  11  14
ATOM     14  C   UNL     1       1.548   6.468  20.660  0.00  0.00    +0.000 A 
ATOM     15  C   UNL     1       1.133   5.141  20.629  0.00  0.00    +0.000 A 
ATOM     16  C   UNL     1       1.596   4.277  19.622  0.00  0.00    +0.000 A 
ATOM     17  C   UNL     1       2.489   4.697  18.620  0.00  0.00    +0.000 A 
ATOM     18  C   UNL     1       2.919   6.033  18.709  0.00  0.00    +0.000 A 
ATOM     19  C   UNL     1       2.454   6.909  19.700  0.00  0.00    +0.000 A 
BRANCH  17  20
ATOM     20  N   UNL     1       2.985   3.847  17.636  0.00  0.00    +0.000 N 
ATOM     21  C   UNL     1       2.704   2.409  17.705  0.00  0.00    +0.000 C 
ATOM     22  C   UNL     1       4.203   4.168  16.894  0.00  0.00    +0.000 C 
ENDBRANCH  17  20
ENDBRANCH  11  14
BRANCH   8  23
ATOM     23  C   UNL     1       0.195  10.050  18.224  0.00  0.00    +0.000 C 
BRANCH  23  24
ATOM     24  C   UNL     1       1.623  10.120  17.688  0.00  0.00    +0.000 C 
ATOM     25  O   UNL     1       2.238   9.166  17.233  0.00  0.00    +0.000 OA
BRANCH  24  26
ATOM     26  O   UNL     1       2.132  11.378  17.723  0.00  0.00    +0.000 OA
ATOM     27  H   UNL     1       1.685  11.848  18.464  0.00  0.00    +0.000 HD
ENDBRANCH  24  26
ENDBRANCH  23  24
ENDBRANCH   8  23
TORSDOF 5
ENDMDL
MODEL 3
REMARK VINA RESULT:      -6.7      3.607      5.125
REMARK  Name = 
REMARK  8 active torsions:
REMARK  status: ('A' for Active; 'I' for Inactive)
REMARK    1  A    between atoms: C_1  and  C_2
REMARK    2  A    between atoms: N_8  and  C_9
REMARK    3  A    between atoms: C_9  and  C_10
REMARK    4  A    between atoms: C_10  and  O_12
REMARK    5  A    between atoms: C_15  and  C_16
REMARK    6  A    between atoms: C_19  and  N_20
REMARK    7  A    between atoms: N_20  and  C_21
REMARK    8  A    between atoms: N_20  and  C_22
REMARK                            x       y       z     vdW  Elec       q    Type
REMARK                         _______ _______ _______ _____ _____    ______ ____
ROOT
ATOM      1  C   UNL     1      -5.689  11.156  18.138  0.00  0.00    +0.000 C 
ATOM      2  C   UNL     1      -4.806  11.958  19.058  0.00  0.00    +0.000 A 
ATOM      3  C   UNL     1      -5.509  12.871  19.888  0.00  0.00    +0.000 A 
ATOM      4  C   UNL     1      -4.859  13.721  20.778  0.00  0.00    +0.000 A 
ATOM      5  C   UNL     1      -3.484  13.675  20.862  0.00  0.00    +0.000 A 
ATOM      6  C   UNL     1      -2.767  12.772  20.067  0.00  0.00    +0.000 A 
ATOM      7  C   UNL     1      -3.392  11.884  19.128  0.00  0.00    +0.000 A 
ATOM      8  N   UNL     1      -2.570  10.991  18.414  0.00  0.00    +0.000 N 
ATOM      9  C   UNL     1      -1.193  11.466  18.196  0.00  0.00    +0.000 C 
ATOM     10  C   UNL     1      -0.595  11.654  19.539  0.00  0.00    +0.000 C 
ATOM     11  C   UNL     1       0.376  10.960  20.152  0.00  0.00    +0.000 C 
ATOM     12  C   UNL     1      -1.298  12.702  20.312  0.00  0.00    +0.000 C 
ATOM     13  O   UNL     1      -0.718  13.426  21.106  0.00  0.00    +0.000 OA
ENDROOT
BRANCH  11  14
ATOM     14  C   UNL     1       1.020   9.780  19.579  0.00  0.00    +0.000 A 
ATOM     15  C   UNL     1       1.389   9.737  18.240  0.00  0.00    +0.000 A 
ATOM     16  C   UNL     1       2.049   8.608  17.723  0.00  0.00    +0.000 A 
ATOM     17  C   UNL     1       2.355   7.486  18.513  0.00  0.00    +0.000 A 
ATOM     18  C   UNL     1       1.928   7.549  19.852  0.00  0.00    +0.000 A 
ATOM     19  C   UNL     1       1.282   8.674  20.384  0.00  0.00    +0.000 A 
BRANCH  17  20
ATOM     20  N   UNL     1       2.976   6.346  18.011  0.00  0.00    +0.000 N 
ATOM     21  C   UNL     1       2.269   5.061  18.034  0.00  0.00    +0.000 C 
ATOM     22  C   UNL     1       4.432   6.211  18.003  0.00  0.00    +0.000 C 
ENDBRANCH  17  20
ENDBRANCH  11  14
BRANCH   8  23
ATOM     23  C   UNL     1      -3.005   9.919  17.485  0.00  0.00    +0.000 C 
BRANCH  23  24
ATOM     24  C   UNL     1      -2.851  10.348  16.027  0.00  0.00    +0.000 C 
ATOM     25  O   UNL     1      -2.435   9.623  15.134  0.00  0.00    +0.000 OA
BRANCH  24  26
ATOM     26  O   UNL     1      -3.276  11.619  15.810  0.00  0.00    +0.000 OA
ATOM     27  H   UNL     1      -3.320  12.061  16.689  0.00  0.00    +0.000 HD
ENDBRANCH  24  26
ENDBRANCH  23  24
ENDBRANCH   8  23
TORSDOF 5
ENDMDL
MODEL 4
REMARK VINA RESULT:      -6.6      3.594      5.104
REMARK  Name = 
REMARK  8 active torsions:
REMARK  status: ('A' for Active; 'I' for Inactive)
REMARK    1  A    between atoms: C_1  and  C_2
REMARK    2  A    between atoms: N_8  and  C_9
REMARK    3  A    between atoms: C_9  and  C_10
REMARK    4  A    between atoms: C_10  and  O_12
REMARK    5  A    between atoms: C_15  and  C_16
REMARK    6  A    between atoms: C_19  and  N_20
REMARK    7  A    between atoms: N_20  and  C_21
REMARK    8  A    between atoms: N_20  and  C_22
REMARK                            x       y       z     vdW  Elec       q    Type
REMARK                         _______ _______ _______ _____ _____    ______ ____
ROOT
ATOM      1  C   UNL     1      -5.621  11.041  18.023  0.00  0.00    +0.000 C 
ATOM      2  C   UNL     1      -4.798  11.879  18.966  0.00  0.00    +0.000 A 
ATOM      3  C   UNL     1      -5.557  12.794  19.743  0.00  0.00    +0.000 A 
ATOM      4  C   UNL     1      -4.966  13.676  20.643  0.00  0.00    +0.000 A 
ATOM      5  C   UNL     1      -3.595  13.659  20.792  0.00  0.00    +0.000 A 
ATOM      6  C   UNL     1      -2.824  12.756  20.050  0.00  0.00    +0.000 A 
ATOM      7  C   UNL     1      -3.388  11.836  19.102  0.00  0.00    +0.000 A 
ATOM      8  N   UNL     1      -2.516  10.946  18.446  0.00  0.00    +0.000 N 
ATOM      9  C   UNL     1      -1.140  11.445  18.281  0.00  0.00    +0.000 C 
ATOM     10  C   UNL     1      -0.608  11.673  19.646  0.00  0.00    +0.000 C 
ATOM     11  C   UNL     1       0.346  11.011  20.318  0.00  0.00    +0.000 C 
ATOM     12  C   UNL     1      -1.367  12.721  20.364  0.00  0.00    +0.000 C 
ATOM     13  O   UNL     1      -0.839  13.473  21.168  0.00  0.00    +0.000 OA
ENDROOT
BRANCH  11  14
ATOM     14  C   UNL     1       1.039   9.833  19.801  0.00  0.00    +0.000 A 
ATOM     15  C   UNL     1       1.252   8.713  20.596  0.00  0.00    +0.000 A 
ATOM     16  C   UNL     1       1.881   7.575  20.063  0.00  0.00    +0.000 A 
ATOM     17  C   UNL     1       2.324   7.513  18.730  0.00  0.00    +0.000 A 
ATOM     18  C   UNL     1       2.130   8.680  17.970  0.00  0.00    +0.000 A 
ATOM     19  C   UNL     1       1.491   9.817  18.484  0.00  0.00    +0.000 A 
BRANCH  17  20
ATOM     20  N   UNL     1       2.979   6.407  18.195  0.00  0.00    +0.000 N 
ATOM     21  C   UNL     1       4.140   6.602  17.320  0.00  0.00    +0.000 C 
ATOM     22  C   UNL     1       2.281   5.144  17.966  0.00  0.00    +0.000 C 
ENDBRANCH  17  20
ENDBRANCH  11  14
BRANCH   8  23
ATOM     23  C   UNL     1      -2.886   9.847  17.521  0.00  0.00    +0.000 C 
BRANCH  23  24
ATOM     24  C   UNL     1      -2.744  10.274  16.061  0.00  0.00    +0.000 C 
ATOM     25  O   UNL     1      -2.480   9.513  15.141  0.00  0.00    +0.000 OA
BRANCH  24  26
ATOM     26  O   UNL     1      -2.993  11.596  15.878  0.00  0.00    +0.000 OA
ATOM     27  H   UNL     1      -3.759  11.826  16.454  0.00  0.00    +0.000 HD
ENDBRANCH  24  26
ENDBRANCH  23  24
ENDBRANCH   8  23
TORSDOF 5
ENDMDL
MODEL 5
REMARK VINA RESULT:      -6.6      1.734      3.993
REMARK  Name = 
REMARK  8 active torsions:
REMARK  status: ('A' for Active; 'I' for Inactive)
REMARK    1  A    between atoms: C_1  and  C_2
REMARK    2  A    between atoms: N_8  and  C_9
REMARK    3  A    between atoms: C_9  and  C_10
REMARK    4  A    between atoms: C_10  and  O_12
REMARK    5  A    between atoms: C_15  and  C_16
REMARK    6  A    between atoms: C_19  and  N_20
REMARK    7  A    between atoms: N_20  and  C_21
REMARK    8  A    between atoms: N_20  and  C_22
REMARK                            x       y       z     vdW  Elec       q    Type
REMARK                         _______ _______ _______ _____ _____    ______ ____
ROOT
ATOM      1  C   UNL     1      -1.864  12.915  19.127  0.00  0.00    +0.000 C 
ATOM      2  C   UNL     1      -1.723  12.305  20.497  0.00  0.00    +0.000 A 
ATOM      3  C   UNL     1      -2.615  12.839  21.464  0.00  0.00    +0.000 A 
ATOM      4  C   UNL     1      -2.609  12.423  22.793  0.00  0.00    +0.000 A 
ATOM      5  C   UNL     1      -1.708  11.455  23.185  0.00  0.00    +0.000 A 
ATOM      6  C   UNL     1      -0.829  10.900  22.248  0.00  0.00    +0.000 A 
ATOM      7  C   UNL     1      -0.791  11.304  20.870  0.00  0.00    +0.000 A 
ATOM      8  N   UNL     1       0.108  10.644  20.011  0.00  0.00    +0.000 N 
ATOM      9  C   UNL     1       1.315  10.120  20.673  0.00  0.00    +0.000 C 
ATOM     10  C   UNL     1       0.851   9.138  21.681  0.00  0.00    +0.000 C 
ATOM     11  C   UNL     1       0.981   7.803  21.704  0.00  0.00    +0.000 C 
ATOM     12  C   UNL     1       0.023   9.775  22.729  0.00  0.00    +0.000 C 
ATOM     13  O   UNL     1       0.023   9.385  23.886  0.00  0.00    +0.000 OA
ENDROOT
BRANCH  11  14
ATOM     14  C   UNL     1       1.604   7.027  20.634  0.00  0.00    +0.000 A 
ATOM     15  C   UNL     1       1.636   5.637  20.674  0.00  0.00    +0.000 A 
ATOM     16  C   UNL     1       2.201   4.911  19.611  0.00  0.00    +0.000 A 
ATOM     17  C   UNL     1       2.757   5.536  18.481  0.00  0.00    +0.000 A 
ATOM     18  C   UNL     1       2.745   6.943  18.497  0.00  0.00    +0.000 A 
ATOM     19  C   UNL     1       2.172   7.680  19.543  0.00  0.00    +0.000 A 
BRANCH  17  20
ATOM     20  N   UNL     1       3.351   4.835  17.436  0.00  0.00    +0.000 N 
ATOM     21  C   UNL     1       3.122   3.393  17.303  0.00  0.00    +0.000 C 
ATOM     22  C   UNL     1       4.603   5.286  16.830  0.00  0.00    +0.000 C 
ENDBRANCH  17  20
ENDBRANCH  11  14
BRANCH   8  23
ATOM     23  C   UNL     1       0.238  10.816  18.544  0.00  0.00    +0.000 C 
BRANCH  23  24
ATOM     24  C   UNL     1       1.536  11.533  18.179  0.00  0.00    +0.000 C 
ATOM     25  O   UNL     1       1.836  12.656  18.560  0.00  0.00    +0.000 OA
BRANCH  24  26
ATOM     26  O   UNL     1       2.358  10.768  17.417  0.00  0.00    +0.000 OA
ATOM     27  H   UNL     1       3.167  10.595  17.952  0.00  0.00    +0.000 HD
ENDBRANCH  24  26
ENDBRANCH  23  24
ENDBRANCH   8  23
TORSDOF 5
ENDMDL
MODEL 6
REMARK VINA RESULT:      -6.5      1.894      4.194
REMARK  Name = 
REMARK  8 active torsions:
REMARK  status: ('A' for Active; 'I' for Inactive)
REMARK    1  A    between atoms: C_1  and  C_2
REMARK    2  A    between atoms: N_8  and  C_9
REMARK    3  A    between atoms: C_9  and  C_10
REMARK    4  A    between atoms: C_10  and  O_12
REMARK    5  A    between atoms: C_15  and  C_16
REMARK    6  A    between atoms: C_19  and  N_20
REMARK    7  A    between atoms: N_20  and  C_21
REMARK    8  A    between atoms: N_20  and  C_22
REMARK                            x       y       z     vdW  Elec       q    Type
REMARK                         _______ _______ _______ _____ _____    ______ ____
ROOT
ATOM      1  C   UNL     1      -1.454  13.691  19.481  0.00  0.00    +0.000 C 
ATOM      2  C   UNL     1      -1.463  12.849  20.730  0.00  0.00    +0.000 A 
ATOM      3  C   UNL     1      -2.448  13.229  21.679  0.00  0.00    +0.000 A 
ATOM      4  C   UNL     1      -2.585  12.588  22.908  0.00  0.00    +0.000 A 
ATOM      5  C   UNL     1      -1.738  11.544  23.214  0.00  0.00    +0.000 A 
ATOM      6  C   UNL     1      -0.769  11.138  22.289  0.00  0.00    +0.000 A 
ATOM      7  C   UNL     1      -0.583  11.775  21.015  0.00  0.00    +0.000 A 
ATOM      8  N   UNL     1       0.397  11.250  20.150  0.00  0.00    +0.000 N 
ATOM      9  C   UNL     1       1.523  10.588  20.830  0.00  0.00    +0.000 C 
ATOM     10  C   UNL     1       0.948   9.458  21.596  0.00  0.00    +0.000 C 
ATOM     11  C   UNL     1       1.065   8.137  21.398  0.00  0.00    +0.000 C 
ATOM     12  C   UNL     1       0.019   9.925  22.650  0.00  0.00    +0.000 C 
ATOM     13  O   UNL     1      -0.106   9.340  23.714  0.00  0.00    +0.000 OA
ENDROOT
BRANCH  11  14
ATOM     14  C   UNL     1       1.792   7.543  20.278  0.00  0.00    +0.000 A 
ATOM     15  C   UNL     1       1.983   8.239  19.090  0.00  0.00    +0.000 A 
ATOM     16  C   UNL     1       2.724   7.664  18.043  0.00  0.00    +0.000 A 
ATOM     17  C   UNL     1       3.292   6.381  18.137  0.00  0.00    +0.000 A 
ATOM     18  C   UNL     1       3.041   5.691  19.337  0.00  0.00    +0.000 A 
ATOM     19  C   UNL     1       2.316   6.258  20.394  0.00  0.00    +0.000 A 
BRANCH  17  20
ATOM     20  N   UNL     1       4.000   5.781  17.099  0.00  0.00    +0.000 N 
ATOM     21  C   UNL     1       4.208   4.330  17.102  0.00  0.00    +0.000 C 
ATOM     22  C   UNL     1       5.014   6.515  16.344  0.00  0.00    +0.000 C 
ENDBRANCH  17  20
ENDBRANCH  11  14
BRANCH   8  23
ATOM     23  C   UNL     1       0.682  11.672  18.757  0.00  0.00    +0.000 C 
BRANCH  23  24
ATOM     24  C   UNL     1       1.945  12.528  18.680  0.00  0.00    +0.000 C 
ATOM     25  O   UNL     1       2.263  13.366  19.512  0.00  0.00    +0.000 OA
BRANCH  24  26
ATOM     26  O   UNL     1       2.715  12.225  17.605  0.00  0.00    +0.000 OA
ATOM     27  H   UNL     1       3.206  11.400  17.826  0.00  0.00    +0.000 HD
ENDBRANCH  24  26
ENDBRANCH  23  24
ENDBRANCH   8  23
TORSDOF 5
ENDMDL
MODEL 7
REMARK VINA RESULT:      -6.4      2.975      4.444
REMARK  Name = 
REMARK  8 active torsions:
REMARK  status: ('A' for Active; 'I' for Inactive)
REMARK    1  A    between atoms: C_1  and  C_2
REMARK    2  A    between atoms: N_8  and  C_9
REMARK    3  A    between atoms: C_9  and  C_10
REMARK    4  A    between atoms: C_10  and  O_12
REMARK    5  A    between atoms: C_15  and  C_16
REMARK    6  A    between atoms: C_19  and  N_20
REMARK    7  A    between atoms: N_20  and  C_21
REMARK    8  A    between atoms: N_20  and  C_22
REMARK                            x       y       z     vdW  Elec       q    Type
REMARK                         _______ _______ _______ _____ _____    ______ ____
ROOT
ATOM      1  C   UNL     1      -4.911  11.657  18.624  0.00  0.00    +0.000 C 
ATOM      2  C   UNL     1      -3.882  12.238  19.559  0.00  0.00    +0.000 A 
ATOM      3  C   UNL     1      -4.397  13.211  20.456  0.00  0.00    +0.000 A 
ATOM      4  C   UNL     1      -3.589  13.882  21.370  0.00  0.00    +0.000 A 
ATOM      5  C   UNL     1      -2.242  13.592  21.410  0.00  0.00    +0.000 A 
ATOM      6  C   UNL     1      -1.711  12.625  20.548  0.00  0.00    +0.000 A 
ATOM      7  C   UNL     1      -2.502  11.915  19.582  0.00  0.00    +0.000 A 
ATOM      8  N   UNL     1      -1.865  10.934  18.798  0.00  0.00    +0.000 N 
ATOM      9  C   UNL     1      -0.430  11.173  18.564  0.00  0.00    +0.000 C 
ATOM     10  C   UNL     1       0.219  11.177  19.896  0.00  0.00    +0.000 C 
ATOM     11  C   UNL     1       1.064  10.290  20.443  0.00  0.00    +0.000 C 
ATOM     12  C   UNL     1      -0.273  12.285  20.745  0.00  0.00    +0.000 C 
ATOM     13  O   UNL     1       0.441  12.850  21.558  0.00  0.00    +0.000 OA
ENDROOT
BRANCH  11  14
ATOM     14  C   UNL     1       1.478   9.050  19.790  0.00  0.00    +0.000 A 
ATOM     15  C   UNL     1       1.792   9.016  18.436  0.00  0.00    +0.000 A 
ATOM     16  C   UNL     1       2.232   7.821  17.840  0.00  0.00    +0.000 A 
ATOM     17  C   UNL     1       2.368   6.623  18.564  0.00  0.00    +0.000 A 
ATOM     18  C   UNL     1       2.001   6.687  19.920  0.00  0.00    +0.000 A 
ATOM     19  C   UNL     1       1.574   7.875  20.530  0.00  0.00    +0.000 A 
BRANCH  17  20
ATOM     20  N   UNL     1       2.769   5.423  17.984  0.00  0.00    +0.000 N 
ATOM     21  C   UNL     1       1.840   4.290  17.939  0.00  0.00    +0.000 C 
ATOM     22  C   UNL     1       4.176   5.026  17.946  0.00  0.00    +0.000 C 
ENDBRANCH  17  20
ENDBRANCH  11  14
BRANCH   8  23
ATOM     23  C   UNL     1      -2.500  10.009  17.827  0.00  0.00    +0.000 C 
BRANCH  23  24
ATOM     24  C   UNL     1      -2.368  10.526  16.396  0.00  0.00    +0.000 C 
ATOM     25  O   UNL     1      -2.444   9.823  15.398  0.00  0.00    +0.000 OA
BRANCH  24  26
ATOM     26  O   UNL     1      -2.205  11.872  16.340  0.00  0.00    +0.000 OA
ATOM     27  H   UNL     1      -3.017  12.276  16.724  0.00  0.00    +0.000 HD
ENDBRANCH  24  26
ENDBRANCH  23  24
ENDBRANCH   8  23
TORSDOF 5
ENDMDL
MODEL 8
REMARK VINA RESULT:      -6.4      2.030      7.144
REMARK  Name = 
REMARK  8 active torsions:
REMARK  status: ('A' for Active; 'I' for Inactive)
REMARK    1  A    between atoms: C_1  and  C_2
REMARK    2  A    between atoms: N_8  and  C_9
REMARK    3  A    between atoms: C_9  and  C_10
REMARK    4  A    between atoms: C_10  and  O_12
REMARK    5  A    between atoms: C_15  and  C_16
REMARK    6  A    between atoms: C_19  and  N_20
REMARK    7  A    between atoms: N_20  and  C_21
REMARK    8  A    between atoms: N_20  and  C_22
REMARK                            x       y       z     vdW  Elec       q    Type
REMARK                         _______ _______ _______ _____ _____    ______ ____
ROOT
ATOM      1  C   UNL     1       1.396   3.229  21.026  0.00  0.00    +0.000 C 
ATOM      2  C   UNL     1       2.220   3.557  19.808  0.00  0.00    +0.000 A 
ATOM      3  C   UNL     1       2.712   2.419  19.116  0.00  0.00    +0.000 A 
ATOM      4  C   UNL     1       3.521   2.525  17.988  0.00  0.00    +0.000 A 
ATOM      5  C   UNL     1       3.853   3.779  17.520  0.00  0.00    +0.000 A 
ATOM      6  C   UNL     1       3.368   4.918  18.174  0.00  0.00    +0.000 A 
ATOM      7  C   UNL     1       2.540   4.859  19.346  0.00  0.00    +0.000 A 
ATOM      8  N   UNL     1       2.077   6.072  19.891  0.00  0.00    +0.000 N 
ATOM      9  C   UNL     1       2.959   7.227  19.652  0.00  0.00    +0.000 C 
ATOM     10  C   UNL     1       3.042   7.397  18.182  0.00  0.00    +0.000 C 
ATOM     11  C   UNL     1       2.548   8.367  17.400  0.00  0.00    +0.000 C 
ATOM     12  C   UNL     1       3.672   6.228  17.529  0.00  0.00    +0.000 C 
ATOM     13  O   UNL     1       4.361   6.334  16.527  0.00  0.00    +0.000 OA
ENDROOT
BRANCH  11  14
ATOM     14  C   UNL     1       1.737   9.478  17.893  0.00  0.00    +0.000 A 
ATOM     15  C   UNL     1       2.318  10.678  18.287  0.00  0.00    +0.000 A 
ATOM     16  C   UNL     1       1.513  11.748  18.715  0.00  0.00    +0.000 A 
ATOM     17  C   UNL     1       0.111  11.661  18.774  0.00  0.00    +0.000 A 
ATOM     18  C   UNL     1      -0.437  10.418  18.408  0.00  0.00    +0.000 A 
ATOM     19  C   UNL     1       0.352   9.347  17.966  0.00  0.00    +0.000 A 
BRANCH  17  20
ATOM     20  N   UNL     1      -0.700  12.698  19.227  0.00  0.00    +0.000 N 
ATOM     21  C   UNL     1      -2.123  12.452  19.480  0.00  0.00    +0.000 C 
ATOM     22  C   UNL     1      -0.393  14.095  18.923  0.00  0.00    +0.000 C 
ENDBRANCH  17  20
ENDBRANCH  11  14
BRANCH   8  23
ATOM     23  C   UNL     1       1.130   6.244  21.020  0.00  0.00    +0.000 C 
BRANCH  23  24
ATOM     24  C   UNL     1       0.877   7.721  21.315  0.00  0.00    +0.000 C 
ATOM     25  O   UNL     1      -0.179   8.299  21.095  0.00  0.00    +0.000 OA
BRANCH  24  26
ATOM     26  O   UNL     1       1.941   8.326  21.901  0.00  0.00    +0.000 OA
ATOM     27  H   UNL     1       2.160   7.804  22.707  0.00  0.00    +0.000 HD
ENDBRANCH  24  26
ENDBRANCH  23  24
ENDBRANCH   8  23
TORSDOF 5
ENDMDL
MODEL 9
REMARK VINA RESULT:      -6.2      1.928      7.048
REMARK  Name = 
REMARK  8 active torsions:
REMARK  status: ('A' for Active; 'I' for Inactive)
REMARK    1  A    between atoms: C_1  and  C_2
REMARK    2  A    between atoms: N_8  and  C_9
REMARK    3  A    between atoms: C_9  and  C_10
REMARK    4  A    between atoms: C_10  and  O_12
REMARK    5  A    between atoms: C_15  and  C_16
REMARK    6  A    between atoms: C_19  and  N_20
REMARK    7  A    between atoms: N_20  and  C_21
REMARK    8  A    between atoms: N_20  and  C_22
REMARK                            x       y       z     vdW  Elec       q    Type
REMARK                         _______ _______ _______ _____ _____    ______ ____
ROOT
ATOM      1  C   UNL     1       1.662   3.524  21.174  0.00  0.00    +0.000 C 
ATOM      2  C   UNL     1       2.421   3.889  19.925  0.00  0.00    +0.000 A 
ATOM      3  C   UNL     1       2.982   2.779  19.241  0.00  0.00    +0.000 A 
ATOM      4  C   UNL     1       3.746   2.923  18.086  0.00  0.00    +0.000 A 
ATOM      5  C   UNL     1       3.963   4.189  17.583  0.00  0.00    +0.000 A 
ATOM      6  C   UNL     1       3.407   5.300  18.228  0.00  0.00    +0.000 A 
ATOM      7  C   UNL     1       2.622   5.201  19.427  0.00  0.00    +0.000 A 
ATOM      8  N   UNL     1       2.079   6.386  19.962  0.00  0.00    +0.000 N 
ATOM      9  C   UNL     1       2.858   7.602  19.672  0.00  0.00    +0.000 C 
ATOM     10  C   UNL     1       2.884   7.744  18.197  0.00  0.00    +0.000 C 
ATOM     11  C   UNL     1       2.290   8.654  17.411  0.00  0.00    +0.000 C 
ATOM     12  C   UNL     1       3.586   6.615  17.548  0.00  0.00    +0.000 C 
ATOM     13  O   UNL     1       4.234   6.753  16.523  0.00  0.00    +0.000 OA
ENDROOT
BRANCH  11  14
ATOM     14  C   UNL     1       1.407   9.708  17.907  0.00  0.00    +0.000 A 
ATOM     15  C   UNL     1       0.025   9.573  17.862  0.00  0.00    +0.000 A 
ATOM     16  C   UNL     1      -0.803  10.580  18.387  0.00  0.00    +0.000 A 
ATOM     17  C   UNL     1      -0.289  11.754  18.965  0.00  0.00    +0.000 A 
ATOM     18  C   UNL     1       1.113  11.874  18.954  0.00  0.00    +0.000 A 
ATOM     19  C   UNL     1       1.951  10.871  18.447  0.00  0.00    +0.000 A 
BRANCH  17  20
ATOM     20  N   UNL     1      -1.093  12.778  19.458  0.00  0.00    +0.000 N 
ATOM     21  C   UNL     1      -0.633  14.168  19.379  0.00  0.00    +0.000 C 
ATOM     22  C   UNL     1      -2.054  12.541  20.534  0.00  0.00    +0.000 C 
ENDBRANCH  17  20
ENDBRANCH  11  14
BRANCH   8  23
ATOM     23  C   UNL     1       1.155   6.508  21.116  0.00  0.00    +0.000 C 
BRANCH  23  24
ATOM     24  C   UNL     1       0.852   7.970  21.436  0.00  0.00    +0.000 C 
ATOM     25  O   UNL     1      -0.169   8.553  21.100  0.00  0.00    +0.000 OA
BRANCH  24  26
ATOM     26  O   UNL     1       1.823   8.552  22.185  0.00  0.00    +0.000 OA
ATOM     27  H   UNL     1       2.170   7.860  22.793  0.00  0.00    +0.000 HD
ENDBRANCH  24  26
ENDBRANCH  23  24
ENDBRANCH   8  23
TORSDOF 5
ENDMDL
