MODEL 1
REMARK VINA RESULT:      -7.6      0.000      0.000
REMARK  Name = 
REMARK  3 active torsions:
REMARK  status: ('A' for Active; 'I' for Inactive)
REMARK    1  A    between atoms: C_4  and  O_5
REMARK    2  A    between atoms: O_5  and  C_6
REMARK    3  A    between atoms: C_9  and  C_10
REMARK                            x       y       z     vdW  Elec       q    Type
REMARK                         _______ _______ _______ _____ _____    ______ ____
ROOT
ATOM      1  C   UNL     1       5.114   5.226  18.311  0.00  0.00    +0.000 A 
ATOM      2  C   UNL     1       4.434   5.760  17.215  0.00  0.00    +0.000 A 
ATOM      3  C   UNL     1       4.935   5.577  15.926  0.00  0.00    +0.000 A 
ATOM      4  C   UNL     1       6.159   4.930  15.722  0.00  0.00    +0.000 A 
ATOM      5  C   UNL     1       6.877   4.471  16.837  0.00  0.00    +0.000 A 
ATOM      6  C   UNL     1       6.354   4.616  18.130  0.00  0.00    +0.000 A 
ENDROOT
BRANCH   4   7
ATOM      7  C   UNL     1       6.665   4.765  14.359  0.00  0.00    +0.000 A 
ATOM      8  C   UNL     1       6.235   3.843  13.367  0.00  0.00    +0.000 A 
ATOM      9  C   UNL     1       7.061   4.049  12.290  0.00  0.00    +0.000 A 
ATOM     10  N   UNL     1       7.898   5.058  12.651  0.00  0.00    +0.000 N 
ATOM     11  N   UNL     1       7.688   5.505  13.896  0.00  0.00    +0.000 NA
ATOM     12  H   UNL     1       8.642   5.483  12.109  0.00  0.00    +0.000 HD
ENDBRANCH   4   7
BRANCH   1  13
ATOM     13  O   UNL     1       4.612   5.270  19.598  0.00  0.00    +0.000 OA
BRANCH  13  17
ATOM     14  C   UNL     1       1.081   3.156  20.265  0.00  0.00    +0.000 A 
ATOM     15  C   UNL     1       2.216   2.460  19.860  0.00  0.00    +0.000 A 
ATOM     16  C   UNL     1       3.421   3.138  19.694  0.00  0.00    +0.000 A 
ATOM     17  C   UNL     1       3.478   4.526  19.861  0.00  0.00    +0.000 A 
ATOM     18  C   UNL     1       2.354   5.215  20.313  0.00  0.00    +0.000 A 
ATOM     19  C   UNL     1       1.155   4.529  20.514  0.00  0.00    +0.000 A 
ENDBRANCH  13  17
ENDBRANCH   1  13
TORSDOF 3
ENDMDL
MODEL 2
REMARK VINA RESULT:      -7.6      0.098      1.142
REMARK  Name = 
REMARK  3 active torsions:
REMARK  status: ('A' for Active; 'I' for Inactive)
REMARK    1  A    between atoms: C_4  and  O_5
REMARK    2  A    between atoms: O_5  and  C_6
REMARK    3  A    between atoms: C_9  and  C_10
REMARK                            x       y       z     vdW  Elec       q    Type
REMARK                         _______ _______ _______ _____ _____    ______ ____
ROOT
ATOM      1  C   UNL     1       5.182   5.162  18.297  0.00  0.00    +0.000 A 
ATOM      2  C   UNL     1       4.448   5.635  17.207  0.00  0.00    +0.000 A 
ATOM      3  C   UNL     1       4.936   5.469  15.912  0.00  0.00    +0.000 A 
ATOM      4  C   UNL     1       6.198   4.903  15.693  0.00  0.00    +0.000 A 
ATOM      5  C   UNL     1       6.964   4.508  16.800  0.00  0.00    +0.000 A 
ATOM      6  C   UNL     1       6.457   4.634  18.100  0.00  0.00    +0.000 A 
ENDROOT
BRANCH   4   7
ATOM      7  C   UNL     1       6.690   4.755  14.322  0.00  0.00    +0.000 A 
ATOM      8  C   UNL     1       6.259   3.834  13.328  0.00  0.00    +0.000 A 
ATOM      9  C   UNL     1       7.069   4.059  12.243  0.00  0.00    +0.000 A 
ATOM     10  N   UNL     1       7.898   5.075  12.603  0.00  0.00    +0.000 N 
ATOM     11  N   UNL     1       7.697   5.510  13.853  0.00  0.00    +0.000 NA
ATOM     12  H   UNL     1       8.630   5.514  12.054  0.00  0.00    +0.000 HD
ENDBRANCH   4   7
BRANCH   1  13
ATOM     13  O   UNL     1       4.701   5.189  19.592  0.00  0.00    +0.000 OA
BRANCH  13  17
ATOM     14  C   UNL     1       1.147   3.184  20.449  0.00  0.00    +0.000 A 
ATOM     15  C   UNL     1       1.179   4.572  20.550  0.00  0.00    +0.000 A 
ATOM     16  C   UNL     1       2.336   5.265  20.206  0.00  0.00    +0.000 A 
ATOM     17  C   UNL     1       3.491   4.568  19.831  0.00  0.00    +0.000 A 
ATOM     18  C   UNL     1       3.444   3.183  19.684  0.00  0.00    +0.000 A 
ATOM     19  C   UNL     1       2.272   2.491  19.994  0.00  0.00    +0.000 A 
ENDBRANCH  13  17
ENDBRANCH   1  13
TORSDOF 3
ENDMDL
MODEL 3
REMARK VINA RESULT:      -7.6      0.942      1.029
REMARK  Name = 
REMARK  3 active torsions:
REMARK  status: ('A' for Active; 'I' for Inactive)
REMARK    1  A    between atoms: C_4  and  O_5
REMARK    2  A    between atoms: O_5  and  C_6
REMARK    3  A    between atoms: C_9  and  C_10
REMARK                            x       y       z     vdW  Elec       q    Type
REMARK                         _______ _______ _______ _____ _____    ______ ____
ROOT
ATOM      1  C   UNL     1       5.416   3.990  18.370  0.00  0.00    +0.000 A 
ATOM      2  C   UNL     1       4.652   3.616  17.261  0.00  0.00    +0.000 A 
ATOM      3  C   UNL     1       5.146   3.819  15.973  0.00  0.00    +0.000 A 
ATOM      4  C   UNL     1       6.369   4.471  15.772  0.00  0.00    +0.000 A 
ATOM      5  C   UNL     1       7.089   4.919  16.890  0.00  0.00    +0.000 A 
ATOM      6  C   UNL     1       6.615   4.678  18.187  0.00  0.00    +0.000 A 
ENDROOT
BRANCH   4   7
ATOM      7  C   UNL     1       6.854   4.682  14.408  0.00  0.00    +0.000 A 
ATOM      8  C   UNL     1       6.445   4.021  13.217  0.00  0.00    +0.000 A 
ATOM      9  C   UNL     1       7.239   4.534  12.221  0.00  0.00    +0.000 A 
ATOM     10  N   UNL     1       8.037   5.458  12.821  0.00  0.00    +0.000 N 
ATOM     11  N   UNL     1       7.832   5.564  14.140  0.00  0.00    +0.000 NA
ATOM     12  H   UNL     1       8.749   6.043  12.398  0.00  0.00    +0.000 HD
ENDBRANCH   4   7
BRANCH   1  13
ATOM     13  O   UNL     1       5.038   3.710  19.668  0.00  0.00    +0.000 OA
BRANCH  13  17
ATOM     14  C   UNL     1       0.974   4.245  20.436  0.00  0.00    +0.000 A 
ATOM     15  C   UNL     1       1.512   2.964  20.516  0.00  0.00    +0.000 A 
ATOM     16  C   UNL     1       2.878   2.774  20.327  0.00  0.00    +0.000 A 
ATOM     17  C   UNL     1       3.700   3.853  19.983  0.00  0.00    +0.000 A 
ATOM     18  C   UNL     1       3.171   5.142  19.951  0.00  0.00    +0.000 A 
ATOM     19  C   UNL     1       1.807   5.337  20.177  0.00  0.00    +0.000 A 
ENDBRANCH  13  17
ENDBRANCH   1  13
TORSDOF 3
ENDMDL
MODEL 4
REMARK VINA RESULT:      -7.5      0.333      1.141
REMARK  Name = 
REMARK  3 active torsions:
REMARK  status: ('A' for Active; 'I' for Inactive)
REMARK    1  A    between atoms: C_4  and  O_5
REMARK    2  A    between atoms: O_5  and  C_6
REMARK    3  A    between atoms: C_9  and  C_10
REMARK                            x       y       z     vdW  Elec       q    Type
REMARK                         _______ _______ _______ _____ _____    ______ ____
ROOT
ATOM      1  C   UNL     1       5.178   4.840  18.345  0.00  0.00    +0.000 A 
ATOM      2  C   UNL     1       6.544   4.656  18.113  0.00  0.00    +0.000 A 
ATOM      3  C   UNL     1       7.035   4.649  16.809  0.00  0.00    +0.000 A 
ATOM      4  C   UNL     1       6.163   4.743  15.717  0.00  0.00    +0.000 A 
ATOM      5  C   UNL     1       4.784   4.842  15.959  0.00  0.00    +0.000 A 
ATOM      6  C   UNL     1       4.292   4.893  17.270  0.00  0.00    +0.000 A 
ENDROOT
BRANCH   4   7
ATOM      7  C   UNL     1       6.708   4.718  14.359  0.00  0.00    +0.000 A 
ATOM      8  C   UNL     1       6.314   3.895  13.269  0.00  0.00    +0.000 A 
ATOM      9  C   UNL     1       7.166   4.213  12.241  0.00  0.00    +0.000 A 
ATOM     10  N   UNL     1       7.984   5.187  12.724  0.00  0.00    +0.000 N 
ATOM     11  N   UNL     1       7.735   5.507  14.001  0.00  0.00    +0.000 NA
ATOM     12  H   UNL     1       8.737   5.670  12.247  0.00  0.00    +0.000 HD
ENDBRANCH   4   7
BRANCH   1  13
ATOM     13  O   UNL     1       4.645   4.975  19.612  0.00  0.00    +0.000 OA
BRANCH  13  17
ATOM     14  C   UNL     1       0.984   3.096  20.282  0.00  0.00    +0.000 A 
ATOM     15  C   UNL     1       2.077   2.324  19.897  0.00  0.00    +0.000 A 
ATOM     16  C   UNL     1       3.323   2.923  19.732  0.00  0.00    +0.000 A 
ATOM     17  C   UNL     1       3.465   4.308  19.877  0.00  0.00    +0.000 A 
ATOM     18  C   UNL     1       2.383   5.072  20.309  0.00  0.00    +0.000 A 
ATOM     19  C   UNL     1       1.142   4.465  20.510  0.00  0.00    +0.000 A 
ENDBRANCH  13  17
ENDBRANCH   1  13
TORSDOF 3
ENDMDL
MODEL 5
REMARK VINA RESULT:      -7.4      0.298      1.604
REMARK  Name = 
REMARK  3 active torsions:
REMARK  status: ('A' for Active; 'I' for Inactive)
REMARK    1  A    between atoms: C_4  and  O_5
REMARK    2  A    between atoms: O_5  and  C_6
REMARK    3  A    between atoms: C_9  and  C_10
REMARK                            x       y       z     vdW  Elec       q    Type
REMARK                         _______ _______ _______ _____ _____    ______ ____
ROOT
ATOM      1  C   UNL     1       5.145   4.977  18.285  0.00  0.00    +0.000 A 
ATOM      2  C   UNL     1       6.508   4.761  18.067  0.00  0.00    +0.000 A 
ATOM      3  C   UNL     1       7.009   4.720  16.767  0.00  0.00    +0.000 A 
ATOM      4  C   UNL     1       6.147   4.811  15.667  0.00  0.00    +0.000 A 
ATOM      5  C   UNL     1       4.769   4.943  15.896  0.00  0.00    +0.000 A 
ATOM      6  C   UNL     1       4.268   5.029  17.202  0.00  0.00    +0.000 A 
ENDROOT
BRANCH   4   7
ATOM      7  C   UNL     1       6.701   4.750  14.314  0.00  0.00    +0.000 A 
ATOM      8  C   UNL     1       6.295   3.919  13.234  0.00  0.00    +0.000 A 
ATOM      9  C   UNL     1       7.164   4.199  12.208  0.00  0.00    +0.000 A 
ATOM     10  N   UNL     1       8.002   5.160  12.682  0.00  0.00    +0.000 N 
ATOM     11  N   UNL     1       7.751   5.507  13.951  0.00  0.00    +0.000 NA
ATOM     12  H   UNL     1       8.771   5.615  12.204  0.00  0.00    +0.000 HD
ENDBRANCH   4   7
BRANCH   1  13
ATOM     13  O   UNL     1       4.605   5.146  19.545  0.00  0.00    +0.000 OA
BRANCH  13  17
ATOM     14  C   UNL     1       1.137   3.048  20.525  0.00  0.00    +0.000 A 
ATOM     15  C   UNL     1       1.099   4.440  20.501  0.00  0.00    +0.000 A 
ATOM     16  C   UNL     1       2.228   5.157  20.114  0.00  0.00    +0.000 A 
ATOM     17  C   UNL     1       3.422   4.488  19.821  0.00  0.00    +0.000 A 
ATOM     18  C   UNL     1       3.446   3.095  19.797  0.00  0.00    +0.000 A 
ATOM     19  C   UNL     1       2.303   2.376  20.150  0.00  0.00    +0.000 A 
ENDBRANCH  13  17
ENDBRANCH   1  13
TORSDOF 3
ENDMDL
MODEL 6
REMARK VINA RESULT:      -7.3      0.991      1.176
REMARK  Name = 
REMARK  3 active torsions:
REMARK  status: ('A' for Active; 'I' for Inactive)
REMARK    1  A    between atoms: C_4  and  O_5
REMARK    2  A    between atoms: O_5  and  C_6
REMARK    3  A    between atoms: C_9  and  C_10
REMARK                            x       y       z     vdW  Elec       q    Type
REMARK                         _______ _______ _______ _____ _____    ______ ____
ROOT
ATOM      1  C   UNL     1       4.326   5.555  18.056  0.00  0.00    +0.000 A 
ATOM      2  C   UNL     1       4.547   6.587  17.140  0.00  0.00    +0.000 A 
ATOM      3  C   UNL     1       5.189   6.321  15.931  0.00  0.00    +0.000 A 
ATOM      4  C   UNL     1       5.691   5.043  15.656  0.00  0.00    +0.000 A 
ATOM      5  C   UNL     1       5.539   4.034  16.620  0.00  0.00    +0.000 A 
ATOM      6  C   UNL     1       4.855   4.288  17.817  0.00  0.00    +0.000 A 
ENDROOT
BRANCH   4   7
ATOM      7  C   UNL     1       6.373   4.798  14.385  0.00  0.00    +0.000 A 
ATOM      8  C   UNL     1       6.049   3.843  13.383  0.00  0.00    +0.000 A 
ATOM      9  C   UNL     1       7.023   3.972  12.423  0.00  0.00    +0.000 A 
ATOM     10  N   UNL     1       7.839   4.972  12.854  0.00  0.00    +0.000 N 
ATOM     11  N   UNL     1       7.476   5.484  14.037  0.00  0.00    +0.000 NA
ATOM     12  H   UNL     1       8.665   5.348  12.402  0.00  0.00    +0.000 HD
ENDBRANCH   4   7
BRANCH   1  13
ATOM     13  O   UNL     1       3.594   5.727  19.215  0.00  0.00    +0.000 OA
BRANCH  13  17
ATOM     14  C   UNL     1       0.848   2.685  19.986  0.00  0.00    +0.000 A 
ATOM     15  C   UNL     1       1.595   3.202  21.041  0.00  0.00    +0.000 A 
ATOM     16  C   UNL     1       2.470   4.261  20.815  0.00  0.00    +0.000 A 
ATOM     17  C   UNL     1       2.657   4.759  19.521  0.00  0.00    +0.000 A 
ATOM     18  C   UNL     1       1.874   4.275  18.475  0.00  0.00    +0.000 A 
ATOM     19  C   UNL     1       0.970   3.237  18.708  0.00  0.00    +0.000 A 
ENDBRANCH  13  17
ENDBRANCH   1  13
TORSDOF 3
ENDMDL
MODEL 7
REMARK VINA RESULT:      -7.3      1.464      1.895
REMARK  Name = 
REMARK  3 active torsions:
REMARK  status: ('A' for Active; 'I' for Inactive)
REMARK    1  A    between atoms: C_4  and  O_5
REMARK    2  A    between atoms: O_5  and  C_6
REMARK    3  A    between atoms: C_9  and  C_10
REMARK                            x       y       z     vdW  Elec       q    Type
REMARK                         _______ _______ _______ _____ _____    ______ ____
ROOT
ATOM      1  C   UNL     1       3.180   5.679  18.094  0.00  0.00    +0.000 A 
ATOM      2  C   UNL     1       3.381   4.416  17.533  0.00  0.00    +0.000 A 
ATOM      3  C   UNL     1       4.359   4.234  16.557  0.00  0.00    +0.000 A 
ATOM      4  C   UNL     1       5.092   5.323  16.070  0.00  0.00    +0.000 A 
ATOM      5  C   UNL     1       4.824   6.602  16.580  0.00  0.00    +0.000 A 
ATOM      6  C   UNL     1       3.871   6.781  17.592  0.00  0.00    +0.000 A 
ENDROOT
BRANCH   4   7
ATOM      7  C   UNL     1       6.103   5.102  15.035  0.00  0.00    +0.000 A 
ATOM      8  C   UNL     1       6.009   4.287  13.874  0.00  0.00    +0.000 A 
ATOM      9  C   UNL     1       7.236   4.372  13.265  0.00  0.00    +0.000 A 
ATOM     10  N   UNL     1       7.976   5.215  14.034  0.00  0.00    +0.000 N 
ATOM     11  N   UNL     1       7.321   5.666  15.112  0.00  0.00    +0.000 NA
ATOM     12  H   UNL     1       8.933   5.519  13.893  0.00  0.00    +0.000 HD
ENDBRANCH   4   7
BRANCH   1  13
ATOM     13  O   UNL     1       2.311   5.902  19.145  0.00  0.00    +0.000 OA
BRANCH  13  17
ATOM     14  C   UNL     1       1.337   2.498  21.346  0.00  0.00    +0.000 A 
ATOM     15  C   UNL     1       2.244   3.409  21.881  0.00  0.00    +0.000 A 
ATOM     16  C   UNL     1       2.533   4.583  21.191  0.00  0.00    +0.000 A 
ATOM     17  C   UNL     1       1.974   4.816  19.929  0.00  0.00    +0.000 A 
ATOM     18  C   UNL     1       1.030   3.928  19.417  0.00  0.00    +0.000 A 
ATOM     19  C   UNL     1       0.712   2.768  20.126  0.00  0.00    +0.000 A 
ENDBRANCH  13  17
ENDBRANCH   1  13
TORSDOF 3
ENDMDL
MODEL 8
REMARK VINA RESULT:      -7.2      1.111      1.186
REMARK  Name = 
REMARK  3 active torsions:
REMARK  status: ('A' for Active; 'I' for Inactive)
REMARK    1  A    between atoms: C_4  and  O_5
REMARK    2  A    between atoms: O_5  and  C_6
REMARK    3  A    between atoms: C_9  and  C_10
REMARK                            x       y       z     vdW  Elec       q    Type
REMARK                         _______ _______ _______ _____ _____    ______ ____
ROOT
ATOM      1  C   UNL     1       4.174   5.615  17.927  0.00  0.00    +0.000 A 
ATOM      2  C   UNL     1       4.532   6.637  17.044  0.00  0.00    +0.000 A 
ATOM      3  C   UNL     1       5.170   6.329  15.843  0.00  0.00    +0.000 A 
ATOM      4  C   UNL     1       5.533   5.010  15.545  0.00  0.00    +0.000 A 
ATOM      5  C   UNL     1       5.245   4.002  16.478  0.00  0.00    +0.000 A 
ATOM      6  C   UNL     1       4.564   4.303  17.666  0.00  0.00    +0.000 A 
ENDROOT
BRANCH   4   7
ATOM      7  C   UNL     1       6.215   4.721  14.284  0.00  0.00    +0.000 A 
ATOM      8  C   UNL     1       5.896   3.726  13.320  0.00  0.00    +0.000 A 
ATOM      9  C   UNL     1       6.867   3.824  12.354  0.00  0.00    +0.000 A 
ATOM     10  N   UNL     1       7.678   4.844  12.745  0.00  0.00    +0.000 N 
ATOM     11  N   UNL     1       7.314   5.399  13.908  0.00  0.00    +0.000 NA
ATOM     12  H   UNL     1       8.501   5.207  12.278  0.00  0.00    +0.000 HD
ENDBRANCH   4   7
BRANCH   1  13
ATOM     13  O   UNL     1       3.437   5.841  19.073  0.00  0.00    +0.000 OA
BRANCH  13  17
ATOM     14  C   UNL     1       0.886   2.886  20.539  0.00  0.00    +0.000 A 
ATOM     15  C   UNL     1       0.777   3.269  19.205  0.00  0.00    +0.000 A 
ATOM     16  C   UNL     1       1.662   4.207  18.680  0.00  0.00    +0.000 A 
ATOM     17  C   UNL     1       2.611   4.821  19.505  0.00  0.00    +0.000 A 
ATOM     18  C   UNL     1       2.752   4.403  20.827  0.00  0.00    +0.000 A 
ATOM     19  C   UNL     1       1.888   3.435  21.344  0.00  0.00    +0.000 A 
ENDBRANCH  13  17
ENDBRANCH   1  13
TORSDOF 3
ENDMDL
MODEL 9
REMARK VINA RESULT:      -7.1      5.648      7.369
REMARK  Name = 
REMARK  3 active torsions:
REMARK  status: ('A' for Active; 'I' for Inactive)
REMARK    1  A    between atoms: C_4  and  O_5
REMARK    2  A    between atoms: O_5  and  C_6
REMARK    3  A    between atoms: C_9  and  C_10
REMARK                            x       y       z     vdW  Elec       q    Type
REMARK                         _______ _______ _______ _____ _____    ______ ____
ROOT
ATOM      1  C   UNL     1       2.210   7.603  19.378  0.00  0.00    +0.000 A 
ATOM      2  C   UNL     1       2.173   8.141  18.089  0.00  0.00    +0.000 A 
ATOM      3  C   UNL     1       1.516   9.349  17.856  0.00  0.00    +0.000 A 
ATOM      4  C   UNL     1       0.820   9.993  18.886  0.00  0.00    +0.000 A 
ATOM      5  C   UNL     1       0.793   9.401  20.158  0.00  0.00    +0.000 A 
ATOM      6  C   UNL     1       1.488   8.209  20.405  0.00  0.00    +0.000 A 
ENDROOT
BRANCH   4   7
ATOM      7  C   UNL     1       0.128  11.252  18.607  0.00  0.00    +0.000 A 
ATOM      8  C   UNL     1       0.617  12.577  18.765  0.00  0.00    +0.000 A 
ATOM      9  C   UNL     1      -0.430  13.399  18.427  0.00  0.00    +0.000 A 
ATOM     10  N   UNL     1      -1.450  12.572  18.071  0.00  0.00    +0.000 N 
ATOM     11  N   UNL     1      -1.145  11.272  18.177  0.00  0.00    +0.000 NA
ATOM     12  H   UNL     1      -2.382  12.822  17.759  0.00  0.00    +0.000 HD
ENDBRANCH   4   7
BRANCH   1  13
ATOM     13  O   UNL     1       2.941   6.476  19.697  0.00  0.00    +0.000 OA
BRANCH  13  17
ATOM     14  C   UNL     1       0.857   2.872  19.463  0.00  0.00    +0.000 A 
ATOM     15  C   UNL     1       1.352   3.441  18.293  0.00  0.00    +0.000 A 
ATOM     16  C   UNL     1       2.106   4.610  18.357  0.00  0.00    +0.000 A 
ATOM     17  C   UNL     1       2.304   5.255  19.583  0.00  0.00    +0.000 A 
ATOM     18  C   UNL     1       1.850   4.660  20.759  0.00  0.00    +0.000 A 
ATOM     19  C   UNL     1       1.125   3.468  20.697  0.00  0.00    +0.000 A 
ENDBRANCH  13  17
ENDBRANCH   1  13
TORSDOF 3
ENDMDL
