MODEL 1
REMARK VINA RESULT:      -6.9      0.000      0.000
REMARK  Name = 
REMARK  4 active torsions:
REMARK  status: ('A' for Active; 'I' for Inactive)
REMARK    1  A    between atoms: C_1  and  C_2
REMARK    2  A    between atoms: C_2  and  O_3
REMARK    3  A    between atoms: C_16  and  C_17
REMARK    4  A    between atoms: C_21  and  C_22
REMARK                            x       y       z     vdW  Elec       q    Type
REMARK                         _______ _______ _______ _____ _____    ______ ____
ROOT
ATOM      1  C   UNL     1       3.654   1.199  18.602  0.00  0.00    +0.000 C 
ATOM      2  C   UNL     1       3.987   2.492  19.352  0.00  0.00    +0.000 C 
ATOM      3  C   UNL     1       2.931   2.706  20.478  0.00  0.00    +0.000 C 
ATOM      4  C   UNL     1       1.764   3.200  19.690  0.00  0.00    +0.000 C 
ATOM      5  C   UNL     1       2.415   4.279  18.864  0.00  0.00    +0.000 C 
ATOM      6  C   UNL     1       2.346   5.711  19.340  0.00  0.00    +0.000 C 
ATOM      7  C   UNL     1       1.388   5.974  20.441  0.00  0.00    +0.000 C 
ATOM      8  C   UNL     1       1.852   7.275  21.053  0.00  0.00    +0.000 C 
ATOM      9  C   UNL     1       1.549   8.329  20.032  0.00  0.00    +0.000 C 
ATOM     10  C   UNL     1       0.650   9.228  20.482  0.00  0.00    +0.000 C 
ATOM     11  C   UNL     1      -0.033  10.140  19.572  0.00  0.00    +0.000 C 
ATOM     12  O   UNL     1      -0.961  10.828  19.993  0.00  0.00    +0.000 OA
ATOM     13  C   UNL     1       0.457  10.179  18.152  0.00  0.00    +0.000 C 
ATOM     14  C   UNL     1       0.900   8.776  17.668  0.00  0.00    +0.000 C 
ATOM     15  C   UNL     1       2.028   8.132  18.537  0.00  0.00    +0.000 C 
ATOM     16  C   UNL     1       3.322   8.927  18.286  0.00  0.00    +0.000 C 
ATOM     17  C   UNL     1       2.241   6.574  18.083  0.00  0.00    +0.000 C 
ATOM     18  C   UNL     1       3.462   6.094  17.099  0.00  0.00    +0.000 C 
ATOM     19  C   UNL     1       3.946   4.474  17.127  0.00  0.00    +0.000 C 
ATOM     20  C   UNL     1       3.942   3.928  18.607  0.00  0.00    +0.000 C 
ATOM     21  C   UNL     1       5.164   4.742  19.225  0.00  0.00    +0.000 C 
ENDROOT
BRANCH   2  22
ATOM     22  O   UNL     1       5.211   2.231  20.050  0.00  0.00    +0.000 OA
ATOM     23  H   UNL     1       5.883   1.961  19.399  0.00  0.00    +0.000 HD
ENDBRANCH   2  22
TORSDOF 1
ENDMDL
MODEL 2
REMARK VINA RESULT:      -6.6      1.567      3.262
REMARK  Name = 
REMARK  4 active torsions:
REMARK  status: ('A' for Active; 'I' for Inactive)
REMARK    1  A    between atoms: C_1  and  C_2
REMARK    2  A    between atoms: C_2  and  O_3
REMARK    3  A    between atoms: C_16  and  C_17
REMARK    4  A    between atoms: C_21  and  C_22
REMARK                            x       y       z     vdW  Elec       q    Type
REMARK                         _______ _______ _______ _____ _____    ______ ____
ROOT
ATOM      1  C   UNL     1       4.897   3.327  18.387  0.00  0.00    +0.000 C 
ATOM      2  C   UNL     1       3.636   4.077  17.948  0.00  0.00    +0.000 C 
ATOM      3  C   UNL     1       4.051   5.261  17.024  0.00  0.00    +0.000 C 
ATOM      4  C   UNL     1       4.558   6.246  18.024  0.00  0.00    +0.000 C 
ATOM      5  C   UNL     1       3.426   6.248  19.019  0.00  0.00    +0.000 C 
ATOM      6  C   UNL     1       2.363   7.316  18.919  0.00  0.00    +0.000 C 
ATOM      7  C   UNL     1       2.680   8.453  18.021  0.00  0.00    +0.000 C 
ATOM      8  C   UNL     1       1.342   9.078  17.703  0.00  0.00    +0.000 C 
ATOM      9  C   UNL     1       0.887   9.722  18.978  0.00  0.00    +0.000 C 
ATOM     10  C   UNL     1       0.773  11.061  18.858  0.00  0.00    +0.000 C 
ATOM     11  C   UNL     1       0.664  11.922  20.029  0.00  0.00    +0.000 C 
ATOM     12  O   UNL     1       0.728  13.142  19.888  0.00  0.00    +0.000 OA
ATOM     13  C   UNL     1       0.475  11.245  21.357  0.00  0.00    +0.000 C 
ATOM     14  C   UNL     1       1.267   9.917  21.433  0.00  0.00    +0.000 C 
ATOM     15  C   UNL     1       0.888   8.887  20.322  0.00  0.00    +0.000 C 
ATOM     16  C   UNL     1      -0.531   8.373  20.627  0.00  0.00    +0.000 C 
ATOM     17  C   UNL     1       1.946   7.637  20.355  0.00  0.00    +0.000 C 
ATOM     18  C   UNL     1       1.599   6.198  21.060  0.00  0.00    +0.000 C 
ATOM     19  C   UNL     1       2.465   4.825  20.584  0.00  0.00    +0.000 C 
ATOM     20  C   UNL     1       2.696   4.838  19.024  0.00  0.00    +0.000 C 
ATOM     21  C   UNL     1       1.210   4.598  18.503  0.00  0.00    +0.000 C 
ENDROOT
BRANCH   2  22
ATOM     22  O   UNL     1       2.930   3.176  17.086  0.00  0.00    +0.000 OA
ATOM     23  H   UNL     1       3.466   2.370  16.980  0.00  0.00    +0.000 HD
ENDBRANCH   2  22
TORSDOF 1
ENDMDL
MODEL 3
REMARK VINA RESULT:      -6.2      1.156      6.455
REMARK  Name = 
REMARK  4 active torsions:
REMARK  status: ('A' for Active; 'I' for Inactive)
REMARK    1  A    between atoms: C_1  and  C_2
REMARK    2  A    between atoms: C_2  and  O_3
REMARK    3  A    between atoms: C_16  and  C_17
REMARK    4  A    between atoms: C_21  and  C_22
REMARK                            x       y       z     vdW  Elec       q    Type
REMARK                         _______ _______ _______ _____ _____    ______ ____
ROOT
ATOM      1  C   UNL     1       0.572  11.790  19.806  0.00  0.00    +0.000 C 
ATOM      2  C   UNL     1       0.121  10.376  19.426  0.00  0.00    +0.000 C 
ATOM      3  C   UNL     1      -0.199   9.584  20.729  0.00  0.00    +0.000 C 
ATOM      4  C   UNL     1       1.174   9.256  21.215  0.00  0.00    +0.000 C 
ATOM      5  C   UNL     1       1.791   8.695  19.960  0.00  0.00    +0.000 C 
ATOM      6  C   UNL     1       1.807   7.198  19.757  0.00  0.00    +0.000 C 
ATOM      7  C   UNL     1       1.470   6.386  20.951  0.00  0.00    +0.000 C 
ATOM      8  C   UNL     1       1.066   5.039  20.400  0.00  0.00    +0.000 C 
ATOM      9  C   UNL     1       2.328   4.426  19.874  0.00  0.00    +0.000 C 
ATOM     10  C   UNL     1       2.657   3.295  20.533  0.00  0.00    +0.000 C 
ATOM     11  C   UNL     1       3.987   2.711  20.421  0.00  0.00    +0.000 C 
ATOM     12  O   UNL     1       4.300   1.779  21.160  0.00  0.00    +0.000 OA
ATOM     13  C   UNL     1       4.905   3.298  19.386  0.00  0.00    +0.000 C 
ATOM     14  C   UNL     1       4.710   4.829  19.261  0.00  0.00    +0.000 C 
ATOM     15  C   UNL     1       3.252   5.255  18.893  0.00  0.00    +0.000 C 
ATOM     16  C   UNL     1       2.996   4.829  17.436  0.00  0.00    +0.000 C 
ATOM     17  C   UNL     1       3.112   6.881  19.026  0.00  0.00    +0.000 C 
ATOM     18  C   UNL     1       3.162   7.885  17.730  0.00  0.00    +0.000 C 
ATOM     19  C   UNL     1       2.471   9.423  17.862  0.00  0.00    +0.000 C 
ATOM     20  C   UNL     1       1.123   9.349  18.678  0.00  0.00    +0.000 C 
ATOM     21  C   UNL     1       0.198   8.561  17.648  0.00  0.00    +0.000 C 
ENDROOT
BRANCH   2  22
ATOM     22  O   UNL     1      -1.147  10.535  18.780  0.00  0.00    +0.000 OA
ATOM     23  H   UNL     1      -1.825  10.675  19.465  0.00  0.00    +0.000 HD
ENDBRANCH   2  22
TORSDOF 1
ENDMDL
MODEL 4
REMARK VINA RESULT:      -6.1      1.809      3.542
REMARK  Name = 
REMARK  4 active torsions:
REMARK  status: ('A' for Active; 'I' for Inactive)
REMARK    1  A    between atoms: C_1  and  C_2
REMARK    2  A    between atoms: C_2  and  O_3
REMARK    3  A    between atoms: C_16  and  C_17
REMARK    4  A    between atoms: C_21  and  C_22
REMARK                            x       y       z     vdW  Elec       q    Type
REMARK                         _______ _______ _______ _____ _____    ______ ____
ROOT
ATOM      1  C   UNL     1       6.986   4.301  16.352  0.00  0.00    +0.000 C 
ATOM      2  C   UNL     1       5.497   4.640  16.250  0.00  0.00    +0.000 C 
ATOM      3  C   UNL     1       5.348   6.097  15.720  0.00  0.00    +0.000 C 
ATOM      4  C   UNL     1       5.672   6.887  16.944  0.00  0.00    +0.000 C 
ATOM      5  C   UNL     1       4.784   6.214  17.959  0.00  0.00    +0.000 C 
ATOM      6  C   UNL     1       3.434   6.816  18.267  0.00  0.00    +0.000 C 
ATOM      7  C   UNL     1       3.213   8.189  17.752  0.00  0.00    +0.000 C 
ATOM      8  C   UNL     1       1.712   8.356  17.731  0.00  0.00    +0.000 C 
ATOM      9  C   UNL     1       1.296   8.423  19.170  0.00  0.00    +0.000 C 
ATOM     10  C   UNL     1       0.739   9.612  19.483  0.00  0.00    +0.000 C 
ATOM     11  C   UNL     1       0.559  10.024  20.869  0.00  0.00    +0.000 C 
ATOM     12  O   UNL     1       0.202  11.175  21.114  0.00  0.00    +0.000 OA
ATOM     13  C   UNL     1       0.823   8.990  21.927  0.00  0.00    +0.000 C 
ATOM     14  C   UNL     1       2.001   8.065  21.533  0.00  0.00    +0.000 C 
ATOM     15  C   UNL     1       1.791   7.311  20.181  0.00  0.00    +0.000 C 
ATOM     16  C   UNL     1       0.685   6.263  20.398  0.00  0.00    +0.000 C 
ATOM     17  C   UNL     1       3.183   6.564  19.753  0.00  0.00    +0.000 C 
ATOM     18  C   UNL     1       3.441   4.962  19.992  0.00  0.00    +0.000 C 
ATOM     19  C   UNL     1       4.609   4.174  19.057  0.00  0.00    +0.000 C 
ATOM     20  C   UNL     1       4.557   4.692  17.568  0.00  0.00    +0.000 C 
ATOM     21  C   UNL     1       3.162   4.088  17.092  0.00  0.00    +0.000 C 
ENDROOT
BRANCH   2  22
ATOM     22  O   UNL     1       4.983   3.818  15.196  0.00  0.00    +0.000 OA
ATOM     23  H   UNL     1       4.278   4.310  14.739  0.00  0.00    +0.000 HD
ENDBRANCH   2  22
TORSDOF 1
ENDMDL
MODEL 5
REMARK VINA RESULT:      -6.0      9.393     11.570
REMARK  Name = 
REMARK  4 active torsions:
REMARK  status: ('A' for Active; 'I' for Inactive)
REMARK    1  A    between atoms: C_1  and  C_2
REMARK    2  A    between atoms: C_2  and  O_3
REMARK    3  A    between atoms: C_16  and  C_17
REMARK    4  A    between atoms: C_21  and  C_22
REMARK                            x       y       z     vdW  Elec       q    Type
REMARK                         _______ _______ _______ _____ _____    ______ ____
ROOT
ATOM      1  C   UNL     1      12.278  13.900  17.658  0.00  0.00    +0.000 C 
ATOM      2  C   UNL     1      10.885  14.247  18.192  0.00  0.00    +0.000 C 
ATOM      3  C   UNL     1      10.984  15.548  19.044  0.00  0.00    +0.000 C 
ATOM      4  C   UNL     1      11.581  15.024  20.307  0.00  0.00    +0.000 C 
ATOM      5  C   UNL     1      10.681  13.847  20.580  0.00  0.00    +0.000 C 
ATOM      6  C   UNL     1       9.518  14.017  21.529  0.00  0.00    +0.000 C 
ATOM      7  C   UNL     1       9.530  15.257  22.341  0.00  0.00    +0.000 C 
ATOM      8  C   UNL     1       8.100  15.438  22.792  0.00  0.00    +0.000 C 
ATOM      9  C   UNL     1       7.852  14.343  23.784  0.00  0.00    +0.000 C 
ATOM     10  C   UNL     1       7.582  14.824  25.015  0.00  0.00    +0.000 C 
ATOM     11  C   UNL     1       7.627  13.966  26.193  0.00  0.00    +0.000 C 
ATOM     12  O   UNL     1       7.539  14.472  27.310  0.00  0.00    +0.000 OA
ATOM     13  C   UNL     1       7.780  12.490  25.955  0.00  0.00    +0.000 C 
ATOM     14  C   UNL     1       8.700  12.205  24.743  0.00  0.00    +0.000 C 
ATOM     15  C   UNL     1       8.208  12.848  23.407  0.00  0.00    +0.000 C 
ATOM     16  C   UNL     1       6.940  12.095  22.966  0.00  0.00    +0.000 C 
ATOM     17  C   UNL     1       9.371  12.685  22.265  0.00  0.00    +0.000 C 
ATOM     18  C   UNL     1       9.320  11.528  21.105  0.00  0.00    +0.000 C 
ATOM     19  C   UNL     1      10.205  11.758  19.682  0.00  0.00    +0.000 C 
ATOM     20  C   UNL     1      10.112  13.263  19.218  0.00  0.00    +0.000 C 
ATOM     21  C   UNL     1       8.583  13.343  18.779  0.00  0.00    +0.000 C 
ENDROOT
BRANCH   2  22
ATOM     22  O   UNL     1      10.113  14.624  17.046  0.00  0.00    +0.000 OA
ATOM     23  H   UNL     1       9.352  14.020  16.977  0.00  0.00    +0.000 HD
ENDBRANCH   2  22
TORSDOF 1
ENDMDL
MODEL 6
REMARK VINA RESULT:      -5.8      9.125     11.630
REMARK  Name = 
REMARK  4 active torsions:
REMARK  status: ('A' for Active; 'I' for Inactive)
REMARK    1  A    between atoms: C_1  and  C_2
REMARK    2  A    between atoms: C_2  and  O_3
REMARK    3  A    between atoms: C_16  and  C_17
REMARK    4  A    between atoms: C_21  and  C_22
REMARK                            x       y       z     vdW  Elec       q    Type
REMARK                         _______ _______ _______ _____ _____    ______ ____
ROOT
ATOM      1  C   UNL     1       7.039  12.501  26.007  0.00  0.00    +0.000 C 
ATOM      2  C   UNL     1       6.715  12.954  24.581  0.00  0.00    +0.000 C 
ATOM      3  C   UNL     1       6.810  11.725  23.629  0.00  0.00    +0.000 C 
ATOM      4  C   UNL     1       8.289  11.582  23.486  0.00  0.00    +0.000 C 
ATOM      5  C   UNL     1       8.681  12.998  23.153  0.00  0.00    +0.000 C 
ATOM      6  C   UNL     1       8.859  13.389  21.705  0.00  0.00    +0.000 C 
ATOM      7  C   UNL     1       8.915  12.264  20.740  0.00  0.00    +0.000 C 
ATOM      8  C   UNL     1       8.589  12.886  19.403  0.00  0.00    +0.000 C 
ATOM      9  C   UNL     1       9.774  13.736  19.057  0.00  0.00    +0.000 C 
ATOM     10  C   UNL     1      10.396  13.310  17.939  0.00  0.00    +0.000 C 
ATOM     11  C   UNL     1      11.736  13.769  17.593  0.00  0.00    +0.000 C 
ATOM     12  O   UNL     1      12.333  13.236  16.660  0.00  0.00    +0.000 OA
ATOM     13  C   UNL     1      12.305  14.889  18.417  0.00  0.00    +0.000 C 
ATOM     14  C   UNL     1      11.876  14.775  19.900  0.00  0.00    +0.000 C 
ATOM     15  C   UNL     1      10.329  14.775  20.114  0.00  0.00    +0.000 C 
ATOM     16  C   UNL     1       9.812  16.188  19.791  0.00  0.00    +0.000 C 
ATOM     17  C   UNL     1       9.996  14.410  21.676  0.00  0.00    +0.000 C 
ATOM     18  C   UNL     1       9.613  15.549  22.792  0.00  0.00    +0.000 C 
ATOM     19  C   UNL     1       8.763  15.082  24.177  0.00  0.00    +0.000 C 
ATOM     20  C   UNL     1       7.657  14.020  23.807  0.00  0.00    +0.000 C 
ATOM     21  C   UNL     1       6.642  14.926  22.977  0.00  0.00    +0.000 C 
ENDROOT
BRANCH   2  22
ATOM     22  O   UNL     1       5.325  13.298  24.590  0.00  0.00    +0.000 OA
ATOM     23  H   UNL     1       5.027  13.391  23.667  0.00  0.00    +0.000 HD
ENDBRANCH   2  22
TORSDOF 1
ENDMDL
MODEL 7
REMARK VINA RESULT:      -5.6      9.516     12.202
REMARK  Name = 
REMARK  4 active torsions:
REMARK  status: ('A' for Active; 'I' for Inactive)
REMARK    1  A    between atoms: C_1  and  C_2
REMARK    2  A    between atoms: C_2  and  O_3
REMARK    3  A    between atoms: C_16  and  C_17
REMARK    4  A    between atoms: C_21  and  C_22
REMARK                            x       y       z     vdW  Elec       q    Type
REMARK                         _______ _______ _______ _____ _____    ______ ____
ROOT
ATOM      1  C   UNL     1      11.616  17.926  17.541  0.00  0.00    +0.000 C 
ATOM      2  C   UNL     1      10.518  16.860  17.589  0.00  0.00    +0.000 C 
ATOM      3  C   UNL     1       9.163  17.549  17.930  0.00  0.00    +0.000 C 
ATOM      4  C   UNL     1       9.314  17.777  19.397  0.00  0.00    +0.000 C 
ATOM      5  C   UNL     1       9.757  16.411  19.852  0.00  0.00    +0.000 C 
ATOM      6  C   UNL     1       8.727  15.446  20.391  0.00  0.00    +0.000 C 
ATOM      7  C   UNL     1       7.400  16.032  20.697  0.00  0.00    +0.000 C 
ATOM      8  C   UNL     1       6.454  14.855  20.718  0.00  0.00    +0.000 C 
ATOM      9  C   UNL     1       6.812  14.075  21.947  0.00  0.00    +0.000 C 
ATOM     10  C   UNL     1       5.798  14.033  22.835  0.00  0.00    +0.000 C 
ATOM     11  C   UNL     1       6.015  13.619  24.216  0.00  0.00    +0.000 C 
ATOM     12  O   UNL     1       5.107  13.750  25.035  0.00  0.00    +0.000 OA
ATOM     13  C   UNL     1       7.362  13.044  24.551  0.00  0.00    +0.000 C 
ATOM     14  C   UNL     1       8.491  13.749  23.759  0.00  0.00    +0.000 C 
ATOM     15  C   UNL     1       8.320  13.674  22.208  0.00  0.00    +0.000 C 
ATOM     16  C   UNL     1       8.562  12.215  21.783  0.00  0.00    +0.000 C 
ATOM     17  C   UNL     1       9.425  14.648  21.492  0.00  0.00    +0.000 C 
ATOM     18  C   UNL     1      10.814  14.079  20.831  0.00  0.00    +0.000 C 
ATOM     19  C   UNL     1      11.601  15.010  19.659  0.00  0.00    +0.000 C 
ATOM     20  C   UNL     1      10.548  15.674  18.689  0.00  0.00    +0.000 C 
ATOM     21  C   UNL     1      10.010  14.390  17.914  0.00  0.00    +0.000 C 
ENDROOT
BRANCH   2  22
ATOM     22  O   UNL     1      10.361  16.405  16.240  0.00  0.00    +0.000 OA
ATOM     23  H   UNL     1       9.807  15.604  16.249  0.00  0.00    +0.000 HD
ENDBRANCH   2  22
TORSDOF 1
ENDMDL
MODEL 8
REMARK VINA RESULT:      -5.5      9.231     11.485
REMARK  Name = 
REMARK  4 active torsions:
REMARK  status: ('A' for Active; 'I' for Inactive)
REMARK    1  A    between atoms: C_1  and  C_2
REMARK    2  A    between atoms: C_2  and  O_3
REMARK    3  A    between atoms: C_16  and  C_17
REMARK    4  A    between atoms: C_21  and  C_22
REMARK                            x       y       z     vdW  Elec       q    Type
REMARK                         _______ _______ _______ _____ _____    ______ ____
ROOT
ATOM      1  C   UNL     1      12.308  15.740  17.524  0.00  0.00    +0.000 C 
ATOM      2  C   UNL     1      10.959  15.035  17.693  0.00  0.00    +0.000 C 
ATOM      3  C   UNL     1       9.859  16.109  17.945  0.00  0.00    +0.000 C 
ATOM      4  C   UNL     1      10.111  16.451  19.376  0.00  0.00    +0.000 C 
ATOM      5  C   UNL     1      10.171  15.077  19.990  0.00  0.00    +0.000 C 
ATOM      6  C   UNL     1       8.929  14.506  20.635  0.00  0.00    +0.000 C 
ATOM      7  C   UNL     1       7.827  15.470  20.865  0.00  0.00    +0.000 C 
ATOM      8  C   UNL     1       6.592  14.614  21.021  0.00  0.00    +0.000 C 
ATOM      9  C   UNL     1       6.756  13.911  22.335  0.00  0.00    +0.000 C 
ATOM     10  C   UNL     1       5.797  14.255  23.218  0.00  0.00    +0.000 C 
ATOM     11  C   UNL     1       5.930  13.957  24.639  0.00  0.00    +0.000 C 
ATOM     12  O   UNL     1       5.118  14.430  25.433  0.00  0.00    +0.000 OA
ATOM     13  C   UNL     1       7.075  13.072  25.044  0.00  0.00    +0.000 C 
ATOM     14  C   UNL     1       8.331  13.339  24.179  0.00  0.00    +0.000 C 
ATOM     15  C   UNL     1       8.100  13.138  22.647  0.00  0.00    +0.000 C 
ATOM     16  C   UNL     1       7.916  11.630  22.398  0.00  0.00    +0.000 C 
ATOM     17  C   UNL     1       9.410  13.676  21.825  0.00  0.00    +0.000 C 
ATOM     18  C   UNL     1      10.567  12.671  21.241  0.00  0.00    +0.000 C 
ATOM     19  C   UNL     1      11.547  13.205  19.971  0.00  0.00    +0.000 C 
ATOM     20  C   UNL     1      10.691  14.021  18.926  0.00  0.00    +0.000 C 
ATOM     21  C   UNL     1       9.796  12.859  18.305  0.00  0.00    +0.000 C 
ENDROOT
BRANCH   2  22
ATOM     22  O   UNL     1      10.643  14.490  16.406  0.00  0.00    +0.000 OA
ATOM     23  H   UNL     1      10.699  13.519  16.462  0.00  0.00    +0.000 HD
ENDBRANCH   2  22
TORSDOF 1
ENDMDL
MODEL 9
REMARK VINA RESULT:      -5.4      3.248      5.685
REMARK  Name = 
REMARK  4 active torsions:
REMARK  status: ('A' for Active; 'I' for Inactive)
REMARK    1  A    between atoms: C_1  and  C_2
REMARK    2  A    between atoms: C_2  and  O_3
REMARK    3  A    between atoms: C_16  and  C_17
REMARK    4  A    between atoms: C_21  and  C_22
REMARK                            x       y       z     vdW  Elec       q    Type
REMARK                         _______ _______ _______ _____ _____    ______ ____
ROOT
ATOM      1  C   UNL     1       1.457   2.457  21.859  0.00  0.00    +0.000 C 
ATOM      2  C   UNL     1       1.356   2.893  20.395  0.00  0.00    +0.000 C 
ATOM      3  C   UNL     1       1.996   1.792  19.497  0.00  0.00    +0.000 C 
ATOM      4  C   UNL     1       3.450   2.056  19.706  0.00  0.00    +0.000 C 
ATOM      5  C   UNL     1       3.505   3.543  19.468  0.00  0.00    +0.000 C 
ATOM      6  C   UNL     1       3.895   4.053  18.100  0.00  0.00    +0.000 C 
ATOM      7  C   UNL     1       4.473   3.044  17.182  0.00  0.00    +0.000 C 
ATOM      8  C   UNL     1       4.303   3.636  15.802  0.00  0.00    +0.000 C 
ATOM      9  C   UNL     1       5.257   4.789  15.740  0.00  0.00    +0.000 C 
ATOM     10  C   UNL     1       6.209   4.612  14.802  0.00  0.00    +0.000 C 
ATOM     11  C   UNL     1       7.415   5.430  14.778  0.00  0.00    +0.000 C 
ATOM     12  O   UNL     1       8.331   5.132  14.014  0.00  0.00    +0.000 OA
ATOM     13  C   UNL     1       7.455   6.610  15.708  0.00  0.00    +0.000 C 
ATOM     14  C   UNL     1       6.748   6.298  17.049  0.00  0.00    +0.000 C 
ATOM     15  C   UNL     1       5.253   5.872  16.894  0.00  0.00    +0.000 C 
ATOM     16  C   UNL     1       4.458   7.114  16.452  0.00  0.00    +0.000 C 
ATOM     17  C   UNL     1       4.687   5.340  18.335  0.00  0.00    +0.000 C 
ATOM     18  C   UNL     1       3.764   6.267  19.325  0.00  0.00    +0.000 C 
ATOM     19  C   UNL     1       2.782   5.509  20.473  0.00  0.00    +0.000 C 
ATOM     20  C   UNL     1       2.121   4.215  19.858  0.00  0.00    +0.000 C 
ATOM     21  C   UNL     1       1.115   4.866  18.810  0.00  0.00    +0.000 C 
ENDROOT
BRANCH   2  22
ATOM     22  O   UNL     1      -0.040   2.853  20.075  0.00  0.00    +0.000 OA
ATOM     23  H   UNL     1      -0.481   3.589  20.535  0.00  0.00    +0.000 HD
ENDBRANCH   2  22
TORSDOF 1
ENDMDL
