MODEL 1
REMARK VINA RESULT:      -8.1      0.000      0.000
REMARK  Name = 
REMARK  7 active torsions:
REMARK  status: ('A' for Active; 'I' for Inactive)
REMARK    1  A    between atoms: C_1  and  O_2
REMARK    2  A    between atoms: O_2  and  C_3
REMARK    3  A    between atoms: C_3  and  C_5
REMARK    4  A    between atoms: C_10  and  O_11
REMARK    5  A    between atoms: O_11  and  S_12
REMARK    6  A    between atoms: S_12  and  N_15
REMARK    7  A    between atoms: C_21  and  C_22
REMARK                            x       y       z     vdW  Elec       q    Type
REMARK                         _______ _______ _______ _____ _____    ______ ____
ROOT
ATOM      1  S   UNL     1       4.198   3.069  19.042  0.00  0.00    +0.000 S 
ATOM      2  O   UNL     1       3.140   2.206  18.546  0.00  0.00    +0.000 OA
ATOM      3  O   UNL     1       5.143   2.559  20.012  0.00  0.00    +0.000 OA
ENDROOT
BRANCH   1   4
ATOM      4  N   UNL     1       3.408   4.294  19.811  0.00  0.00    +0.000 N 
ATOM      5  C   UNL     1       2.474   4.124  20.818  0.00  0.00    +0.000 C 
ATOM      6  O   UNL     1       2.349   3.072  21.424  0.00  0.00    +0.000 OA
ATOM      7  N   UNL     1       1.719   5.203  21.159  0.00  0.00    +0.000 N 
ATOM      8  C   UNL     1       1.695   6.455  20.573  0.00  0.00    +0.000 A 
ATOM      9  N   UNL     1       1.146   7.422  21.320  0.00  0.00    +0.000 NA
ATOM     10  C   UNL     1       1.178   8.681  20.835  0.00  0.00    +0.000 A 
ATOM     11  C   UNL     1       0.683   9.777  21.730  0.00  0.00    +0.000 C 
ATOM     12  C   UNL     1       1.677   8.975  19.587  0.00  0.00    +0.000 A 
ATOM     13  C   UNL     1       2.168   7.898  18.894  0.00  0.00    +0.000 A 
ATOM     14 CL   UNL     1       2.807   8.093  17.314  0.00  0.00    +0.000 Cl
ATOM     15  N   UNL     1       2.223   6.639  19.359  0.00  0.00    +0.000 NA
ATOM     16  H   UNL     1       3.294   5.109  19.207  0.00  0.00    +0.000 HD
ATOM     17  H   UNL     1       1.181   5.111  22.006  0.00  0.00    +0.000 HD
ENDBRANCH   1   4
BRANCH   1  18
ATOM     18  O   UNL     1       5.002   3.685  17.751  0.00  0.00    +0.000 OA
BRANCH  18  24
ATOM     19  C   UNL     1       6.167   5.654  16.920  0.00  0.00    +0.000 A 
ATOM     20  C   UNL     1       7.131   6.662  17.142  0.00  0.00    +0.000 A 
ATOM     21  C   UNL     1       7.837   6.747  18.342  0.00  0.00    +0.000 A 
ATOM     22  C   UNL     1       7.563   5.844  19.351  0.00  0.00    +0.000 A 
ATOM     23  C   UNL     1       6.609   4.848  19.153  0.00  0.00    +0.000 A 
ATOM     24  C   UNL     1       5.921   4.705  17.933  0.00  0.00    +0.000 A 
BRANCH  19  25
ATOM     25  C   UNL     1       5.486   5.746  15.599  0.00  0.00    +0.000 C 
ATOM     26  O   UNL     1       5.139   6.824  15.131  0.00  0.00    +0.000 OA
BRANCH  25  28
ATOM     27  C   UNL     1       6.497   4.332  14.043  0.00  0.00    +0.000 C 
ATOM     28  O   UNL     1       5.415   4.559  14.959  0.00  0.00    +0.000 OA
ENDBRANCH  25  28
ENDBRANCH  19  25
ENDBRANCH  18  24
ENDBRANCH   1  18
TORSDOF 5
ENDMDL
MODEL 2
REMARK VINA RESULT:      -8.0      1.830      2.959
REMARK  Name = 
REMARK  7 active torsions:
REMARK  status: ('A' for Active; 'I' for Inactive)
REMARK    1  A    between atoms: C_1  and  O_2
REMARK    2  A    between atoms: O_2  and  C_3
REMARK    3  A    between atoms: C_3  and  C_5
REMARK    4  A    between atoms: C_10  and  O_11
REMARK    5  A    between atoms: O_11  and  S_12
REMARK    6  A    between atoms: S_12  and  N_15
REMARK    7  A    between atoms: C_21  and  C_22
REMARK                            x       y       z     vdW  Elec       q    Type
REMARK                         _______ _______ _______ _____ _____    ______ ____
ROOT
ATOM      1  S   UNL     1       3.933   5.331  18.799  0.00  0.00    +0.000 S 
ATOM      2  O   UNL     1       3.022   4.299  18.335  0.00  0.00    +0.000 OA
ATOM      3  O   UNL     1       5.072   4.968  19.614  0.00  0.00    +0.000 OA
ENDROOT
BRANCH   1   4
ATOM      4  N   UNL     1       3.006   6.300  19.759  0.00  0.00    +0.000 N 
ATOM      5  C   UNL     1       2.157   5.849  20.753  0.00  0.00    +0.000 C 
ATOM      6  O   UNL     1       2.219   4.715  21.202  0.00  0.00    +0.000 OA
ATOM      7  N   UNL     1       1.267   6.740  21.267  0.00  0.00    +0.000 N 
ATOM      8  C   UNL     1       1.029   8.043  20.871  0.00  0.00    +0.000 A 
ATOM      9  N   UNL     1       0.379   8.800  21.764  0.00  0.00    +0.000 NA
ATOM     10  C   UNL     1       0.200  10.104  21.467  0.00  0.00    +0.000 A 
ATOM     11  C   UNL     1      -0.410  10.974  22.525  0.00  0.00    +0.000 C 
ATOM     12  C   UNL     1       0.589  10.642  20.263  0.00  0.00    +0.000 A 
ATOM     13  C   UNL     1       1.202   9.763  19.408  0.00  0.00    +0.000 A 
ATOM     14 CL   UNL     1       1.729  10.272  17.857  0.00  0.00    +0.000 Cl
ATOM     15  N   UNL     1       1.465   8.474  19.684  0.00  0.00    +0.000 NA
ATOM     16  H   UNL     1       2.744   7.164  19.283  0.00  0.00    +0.000 HD
ATOM     17  H   UNL     1       0.790   6.448  22.105  0.00  0.00    +0.000 HD
ENDBRANCH   1   4
BRANCH   1  18
ATOM     18  O   UNL     1       4.431   6.196  17.497  0.00  0.00    +0.000 OA
BRANCH  18  24
ATOM     19  C   UNL     1       6.653   5.897  16.550  0.00  0.00    +0.000 A 
ATOM     20  C   UNL     1       7.467   5.297  15.563  0.00  0.00    +0.000 A 
ATOM     21  C   UNL     1       6.940   4.426  14.610  0.00  0.00    +0.000 A 
ATOM     22  C   UNL     1       5.594   4.114  14.651  0.00  0.00    +0.000 A 
ATOM     23  C   UNL     1       4.778   4.689  15.623  0.00  0.00    +0.000 A 
ATOM     24  C   UNL     1       5.272   5.614  16.563  0.00  0.00    +0.000 A 
BRANCH  19  25
ATOM     25  C   UNL     1       7.396   6.764  17.505  0.00  0.00    +0.000 C 
ATOM     26  O   UNL     1       7.827   6.325  18.565  0.00  0.00    +0.000 OA
BRANCH  25  28
ATOM     27  C   UNL     1       8.120   8.923  18.007  0.00  0.00    +0.000 C 
ATOM     28  O   UNL     1       7.628   8.002  17.022  0.00  0.00    +0.000 OA
ENDBRANCH  25  28
ENDBRANCH  19  25
ENDBRANCH  18  24
ENDBRANCH   1  18
TORSDOF 5
ENDMDL
MODEL 3
REMARK VINA RESULT:      -8.0      2.850      6.773
REMARK  Name = 
REMARK  7 active torsions:
REMARK  status: ('A' for Active; 'I' for Inactive)
REMARK    1  A    between atoms: C_1  and  O_2
REMARK    2  A    between atoms: O_2  and  C_3
REMARK    3  A    between atoms: C_3  and  C_5
REMARK    4  A    between atoms: C_10  and  O_11
REMARK    5  A    between atoms: O_11  and  S_12
REMARK    6  A    between atoms: S_12  and  N_15
REMARK    7  A    between atoms: C_21  and  C_22
REMARK                            x       y       z     vdW  Elec       q    Type
REMARK                         _______ _______ _______ _____ _____    ______ ____
ROOT
ATOM      1  S   UNL     1       1.909   4.900  20.502  0.00  0.00    +0.000 S 
ATOM      2  O   UNL     1       2.576   4.031  21.456  0.00  0.00    +0.000 OA
ATOM      3  O   UNL     1       0.518   4.672  20.175  0.00  0.00    +0.000 OA
ENDROOT
BRANCH   1   4
ATOM      4  N   UNL     1       2.728   4.672  19.090  0.00  0.00    +0.000 N 
ATOM      5  C   UNL     1       2.387   3.749  18.118  0.00  0.00    +0.000 C 
ATOM      6  O   UNL     1       1.293   3.210  18.083  0.00  0.00    +0.000 OA
ATOM      7  N   UNL     1       3.306   3.495  17.148  0.00  0.00    +0.000 N 
ATOM      8  C   UNL     1       4.596   3.979  17.037  0.00  0.00    +0.000 A 
ATOM      9  N   UNL     1       5.144   3.868  15.821  0.00  0.00    +0.000 NA
ATOM     10  C   UNL     1       6.368   4.405  15.633  0.00  0.00    +0.000 A 
ATOM     11  C   UNL     1       6.919   4.395  14.239  0.00  0.00    +0.000 C 
ATOM     12  C   UNL     1       7.081   4.979  16.659  0.00  0.00    +0.000 A 
ATOM     13  C   UNL     1       6.441   4.994  17.871  0.00  0.00    +0.000 A 
ATOM     14 CL   UNL     1       7.204   5.657  19.257  0.00  0.00    +0.000 Cl
ATOM     15  N   UNL     1       5.197   4.535  18.093  0.00  0.00    +0.000 NA
ATOM     16  H   UNL     1       3.719   4.897  19.187  0.00  0.00    +0.000 HD
ATOM     17  H   UNL     1       2.973   2.966  16.357  0.00  0.00    +0.000 HD
ENDBRANCH   1   4
BRANCH   1  18
ATOM     18  O   UNL     1       2.119   6.452  20.992  0.00  0.00    +0.000 OA
BRANCH  18  24
ATOM     19  C   UNL     1       1.290   8.698  20.557  0.00  0.00    +0.000 A 
ATOM     20  C   UNL     1       1.033   9.723  19.619  0.00  0.00    +0.000 A 
ATOM     21  C   UNL     1       1.348   9.575  18.269  0.00  0.00    +0.000 A 
ATOM     22  C   UNL     1       1.958   8.411  17.842  0.00  0.00    +0.000 A 
ATOM     23  C   UNL     1       2.227   7.393  18.755  0.00  0.00    +0.000 A 
ATOM     24  C   UNL     1       1.870   7.493  20.113  0.00  0.00    +0.000 A 
BRANCH  19  25
ATOM     25  C   UNL     1       0.925   9.051  21.957  0.00  0.00    +0.000 C 
ATOM     26  O   UNL     1       1.775   9.375  22.778  0.00  0.00    +0.000 OA
BRANCH  25  28
ATOM     27  C   UNL     1      -0.822  10.083  23.108  0.00  0.00    +0.000 C 
ATOM     28  O   UNL     1      -0.409   9.086  22.160  0.00  0.00    +0.000 OA
ENDBRANCH  25  28
ENDBRANCH  19  25
ENDBRANCH  18  24
ENDBRANCH   1  18
TORSDOF 5
ENDMDL
MODEL 4
REMARK VINA RESULT:      -7.6      2.684      6.615
REMARK  Name = 
REMARK  7 active torsions:
REMARK  status: ('A' for Active; 'I' for Inactive)
REMARK    1  A    between atoms: C_1  and  O_2
REMARK    2  A    between atoms: O_2  and  C_3
REMARK    3  A    between atoms: C_3  and  C_5
REMARK    4  A    between atoms: C_10  and  O_11
REMARK    5  A    between atoms: O_11  and  S_12
REMARK    6  A    between atoms: S_12  and  N_15
REMARK    7  A    between atoms: C_21  and  C_22
REMARK                            x       y       z     vdW  Elec       q    Type
REMARK                         _______ _______ _______ _____ _____    ______ ____
ROOT
ATOM      1  S   UNL     1       2.036   4.972  20.458  0.00  0.00    +0.000 S 
ATOM      2  O   UNL     1       2.647   4.151  21.490  0.00  0.00    +0.000 OA
ATOM      3  O   UNL     1       0.618   4.854  20.194  0.00  0.00    +0.000 OA
ENDROOT
BRANCH   1   4
ATOM      4  N   UNL     1       2.777   4.501  19.062  0.00  0.00    +0.000 N 
ATOM      5  C   UNL     1       2.892   3.192  18.631  0.00  0.00    +0.000 C 
ATOM      6  O   UNL     1       2.218   2.287  19.098  0.00  0.00    +0.000 OA
ATOM      7  N   UNL     1       3.757   2.943  17.610  0.00  0.00    +0.000 N 
ATOM      8  C   UNL     1       4.618   3.822  16.981  0.00  0.00    +0.000 A 
ATOM      9  N   UNL     1       5.077   3.416  15.790  0.00  0.00    +0.000 NA
ATOM     10  C   UNL     1       5.850   4.273  15.091  0.00  0.00    +0.000 A 
ATOM     11  C   UNL     1       6.249   3.866  13.704  0.00  0.00    +0.000 C 
ATOM     12  C   UNL     1       6.234   5.493  15.595  0.00  0.00    +0.000 A 
ATOM     13  C   UNL     1       5.744   5.782  16.843  0.00  0.00    +0.000 A 
ATOM     14 CL   UNL     1       6.147   7.257  17.622  0.00  0.00    +0.000 Cl
ATOM     15  N   UNL     1       4.916   4.994  17.550  0.00  0.00    +0.000 NA
ATOM     16  H   UNL     1       3.523   5.144  18.794  0.00  0.00    +0.000 HD
ATOM     17  H   UNL     1       3.691   2.029  17.194  0.00  0.00    +0.000 HD
ENDBRANCH   1   4
BRANCH   1  18
ATOM     18  O   UNL     1       2.420   6.539  20.758  0.00  0.00    +0.000 OA
BRANCH  18  24
ATOM     19  C   UNL     1       1.042   8.455  20.161  0.00  0.00    +0.000 A 
ATOM     20  C   UNL     1       0.689   9.426  19.198  0.00  0.00    +0.000 A 
ATOM     21  C   UNL     1       1.325   9.493  17.959  0.00  0.00    +0.000 A 
ATOM     22  C   UNL     1       2.349   8.609  17.677  0.00  0.00    +0.000 A 
ATOM     23  C   UNL     1       2.716   7.649  18.618  0.00  0.00    +0.000 A 
ATOM     24  C   UNL     1       2.056   7.523  19.854  0.00  0.00    +0.000 A 
BRANCH  19  25
ATOM     25  C   UNL     1       0.286   8.563  21.439  0.00  0.00    +0.000 C 
ATOM     26  O   UNL     1      -0.726   7.903  21.642  0.00  0.00    +0.000 OA
BRANCH  25  28
ATOM     27  C   UNL     1       0.045   9.754  23.430  0.00  0.00    +0.000 C 
ATOM     28  O   UNL     1       0.898   9.352  22.347  0.00  0.00    +0.000 OA
ENDBRANCH  25  28
ENDBRANCH  19  25
ENDBRANCH  18  24
ENDBRANCH   1  18
TORSDOF 5
ENDMDL
MODEL 5
REMARK VINA RESULT:      -7.6      2.746      4.447
REMARK  Name = 
REMARK  7 active torsions:
REMARK  status: ('A' for Active; 'I' for Inactive)
REMARK    1  A    between atoms: C_1  and  O_2
REMARK    2  A    between atoms: O_2  and  C_3
REMARK    3  A    between atoms: C_3  and  C_5
REMARK    4  A    between atoms: C_10  and  O_11
REMARK    5  A    between atoms: O_11  and  S_12
REMARK    6  A    between atoms: S_12  and  N_15
REMARK    7  A    between atoms: C_21  and  C_22
REMARK                            x       y       z     vdW  Elec       q    Type
REMARK                         _______ _______ _______ _____ _____    ______ ____
ROOT
ATOM      1  S   UNL     1       2.464   6.188  19.024  0.00  0.00    +0.000 S 
ATOM      2  O   UNL     1       1.844   5.486  17.913  0.00  0.00    +0.000 OA
ATOM      3  O   UNL     1       2.275   5.702  20.374  0.00  0.00    +0.000 OA
ENDROOT
BRANCH   1   4
ATOM      4  N   UNL     1       1.778   7.686  19.003  0.00  0.00    +0.000 N 
ATOM      5  C   UNL     1       2.069   8.678  18.083  0.00  0.00    +0.000 C 
ATOM      6  O   UNL     1       2.654   8.448  17.037  0.00  0.00    +0.000 OA
ATOM      7  N   UNL     1       1.628   9.934  18.358  0.00  0.00    +0.000 N 
ATOM      8  C   UNL     1       0.983  10.390  19.493  0.00  0.00    +0.000 A 
ATOM      9  N   UNL     1       0.342  11.558  19.353  0.00  0.00    +0.000 NA
ATOM     10  C   UNL     1      -0.380  12.005  20.402  0.00  0.00    +0.000 A 
ATOM     11  C   UNL     1      -1.201  13.243  20.196  0.00  0.00    +0.000 C 
ATOM     12  C   UNL     1      -0.407  11.346  21.608  0.00  0.00    +0.000 A 
ATOM     13  C   UNL     1       0.325  10.187  21.650  0.00  0.00    +0.000 A 
ATOM     14 CL   UNL     1       0.411   9.257  23.089  0.00  0.00    +0.000 Cl
ATOM     15  N   UNL     1       1.003   9.664  20.614  0.00  0.00    +0.000 NA
ATOM     16  H   UNL     1       1.501   7.989  19.938  0.00  0.00    +0.000 HD
ATOM     17  H   UNL     1       1.689  10.595  17.600  0.00  0.00    +0.000 HD
ENDBRANCH   1   4
BRANCH   1  18
ATOM     18  O   UNL     1       4.067   6.335  18.704  0.00  0.00    +0.000 OA
BRANCH  18  24
ATOM     19  C   UNL     1       4.844   4.345  17.539  0.00  0.00    +0.000 A 
ATOM     20  C   UNL     1       5.415   3.780  16.376  0.00  0.00    +0.000 A 
ATOM     21  C   UNL     1       5.735   4.559  15.265  0.00  0.00    +0.000 A 
ATOM     22  C   UNL     1       5.457   5.912  15.287  0.00  0.00    +0.000 A 
ATOM     23  C   UNL     1       4.886   6.485  16.422  0.00  0.00    +0.000 A 
ATOM     24  C   UNL     1       4.604   5.733  17.578  0.00  0.00    +0.000 A 
BRANCH  19  25
ATOM     25  C   UNL     1       4.533   3.354  18.605  0.00  0.00    +0.000 C 
ATOM     26  O   UNL     1       5.127   3.359  19.677  0.00  0.00    +0.000 OA
BRANCH  25  28
ATOM     27  C   UNL     1       2.599   2.327  19.411  0.00  0.00    +0.000 C 
ATOM     28  O   UNL     1       3.479   2.568  18.301  0.00  0.00    +0.000 OA
ENDBRANCH  25  28
ENDBRANCH  19  25
ENDBRANCH  18  24
ENDBRANCH   1  18
TORSDOF 5
ENDMDL
MODEL 6
REMARK VINA RESULT:      -7.5      4.640      8.239
REMARK  Name = 
REMARK  7 active torsions:
REMARK  status: ('A' for Active; 'I' for Inactive)
REMARK    1  A    between atoms: C_1  and  O_2
REMARK    2  A    between atoms: O_2  and  C_3
REMARK    3  A    between atoms: C_3  and  C_5
REMARK    4  A    between atoms: C_10  and  O_11
REMARK    5  A    between atoms: O_11  and  S_12
REMARK    6  A    between atoms: S_12  and  N_15
REMARK    7  A    between atoms: C_21  and  C_22
REMARK                            x       y       z     vdW  Elec       q    Type
REMARK                         _______ _______ _______ _____ _____    ______ ____
ROOT
ATOM      1  S   UNL     1       0.767   9.214  21.521  0.00  0.00    +0.000 S 
ATOM      2  O   UNL     1       1.641   9.331  22.677  0.00  0.00    +0.000 OA
ATOM      3  O   UNL     1      -0.491   8.509  21.643  0.00  0.00    +0.000 OA
ENDROOT
BRANCH   1   4
ATOM      4  N   UNL     1       1.644   8.348  20.426  0.00  0.00    +0.000 N 
ATOM      5  C   UNL     1       1.734   8.640  19.076  0.00  0.00    +0.000 C 
ATOM      6  O   UNL     1       1.400   9.720  18.617  0.00  0.00    +0.000 OA
ATOM      7  N   UNL     1       2.267   7.687  18.265  0.00  0.00    +0.000 N 
ATOM      8  C   UNL     1       2.668   6.406  18.592  0.00  0.00    +0.000 A 
ATOM      9  N   UNL     1       3.483   5.820  17.706  0.00  0.00    +0.000 NA
ATOM     10  C   UNL     1       3.977   4.604  18.018  0.00  0.00    +0.000 A 
ATOM     11  C   UNL     1       4.991   4.012  17.085  0.00  0.00    +0.000 C 
ATOM     12  C   UNL     1       3.610   3.934  19.161  0.00  0.00    +0.000 A 
ATOM     13  C   UNL     1       2.734   4.610  19.971  0.00  0.00    +0.000 A 
ATOM     14 CL   UNL     1       2.162   3.903  21.425  0.00  0.00    +0.000 Cl
ATOM     15  N   UNL     1       2.267   5.849  19.739  0.00  0.00    +0.000 NA
ATOM     16  H   UNL     1       1.719   7.366  20.693  0.00  0.00    +0.000 HD
ATOM     17  H   UNL     1       2.490   7.985  17.329  0.00  0.00    +0.000 HD
ENDBRANCH   1   4
BRANCH   1  18
ATOM     18  O   UNL     1       0.508  10.719  20.922  0.00  0.00    +0.000 OA
BRANCH  18  24
ATOM     19  C   UNL     1      -1.572  11.834  20.328  0.00  0.00    +0.000 A 
ATOM     20  C   UNL     1      -2.703  12.569  20.748  0.00  0.00    +0.000 A 
ATOM     21  C   UNL     1      -2.912  12.888  22.089  0.00  0.00    +0.000 A 
ATOM     22  C   UNL     1      -2.009  12.445  23.037  0.00  0.00    +0.000 A 
ATOM     23  C   UNL     1      -0.892  11.711  22.642  0.00  0.00    +0.000 A 
ATOM     24  C   UNL     1      -0.627  11.422  21.290  0.00  0.00    +0.000 A 
BRANCH  19  25
ATOM     25  C   UNL     1      -1.538  11.554  18.866  0.00  0.00    +0.000 C 
ATOM     26  O   UNL     1      -1.174  12.402  18.060  0.00  0.00    +0.000 OA
BRANCH  25  28
ATOM     27  C   UNL     1      -1.890  10.003  17.160  0.00  0.00    +0.000 C 
ATOM     28  O   UNL     1      -1.829  10.270  18.570  0.00  0.00    +0.000 OA
ENDBRANCH  25  28
ENDBRANCH  19  25
ENDBRANCH  18  24
ENDBRANCH   1  18
TORSDOF 5
ENDMDL
MODEL 7
REMARK VINA RESULT:      -7.5      1.087      1.140
REMARK  Name = 
REMARK  7 active torsions:
REMARK  status: ('A' for Active; 'I' for Inactive)
REMARK    1  A    between atoms: C_1  and  O_2
REMARK    2  A    between atoms: O_2  and  C_3
REMARK    3  A    between atoms: C_3  and  C_5
REMARK    4  A    between atoms: C_10  and  O_11
REMARK    5  A    between atoms: O_11  and  S_12
REMARK    6  A    between atoms: S_12  and  N_15
REMARK    7  A    between atoms: C_21  and  C_22
REMARK                            x       y       z     vdW  Elec       q    Type
REMARK                         _______ _______ _______ _____ _____    ______ ____
ROOT
ATOM      1  S   UNL     1       3.467   2.847  17.955  0.00  0.00    +0.000 S 
ATOM      2  O   UNL     1       2.324   2.472  17.141  0.00  0.00    +0.000 OA
ATOM      3  O   UNL     1       4.127   1.848  18.768  0.00  0.00    +0.000 OA
ENDROOT
BRANCH   1   4
ATOM      4  N   UNL     1       2.870   3.949  19.026  0.00  0.00    +0.000 N 
ATOM      5  C   UNL     1       1.935   3.673  20.007  0.00  0.00    +0.000 C 
ATOM      6  O   UNL     1       1.670   2.533  20.356  0.00  0.00    +0.000 OA
ATOM      7  N   UNL     1       1.346   4.731  20.626  0.00  0.00    +0.000 N 
ATOM      8  C   UNL     1       1.492   6.078  20.351  0.00  0.00    +0.000 A 
ATOM      9  N   UNL     1       1.097   6.905  21.327  0.00  0.00    +0.000 NA
ATOM     10  C   UNL     1       1.301   8.227  21.149  0.00  0.00    +0.000 A 
ATOM     11  C   UNL     1       0.979   9.135  22.298  0.00  0.00    +0.000 C 
ATOM     12  C   UNL     1       1.819   8.739  19.982  0.00  0.00    +0.000 A 
ATOM     13  C   UNL     1       2.143   7.802  19.034  0.00  0.00    +0.000 A 
ATOM     14 CL   UNL     1       2.782   8.278  17.515  0.00  0.00    +0.000 Cl
ATOM     15  N   UNL     1       2.024   6.472  19.190  0.00  0.00    +0.000 NA
ATOM     16  H   UNL     1       2.865   4.892  18.635  0.00  0.00    +0.000 HD
ATOM     17  H   UNL     1       0.812   4.514  21.452  0.00  0.00    +0.000 HD
ENDBRANCH   1   4
BRANCH   1  18
ATOM     18  O   UNL     1       4.563   3.590  16.986  0.00  0.00    +0.000 OA
BRANCH  18  24
ATOM     19  C   UNL     1       6.607   4.890  16.755  0.00  0.00    +0.000 A 
ATOM     20  C   UNL     1       7.616   5.662  17.374  0.00  0.00    +0.000 A 
ATOM     21  C   UNL     1       7.596   5.931  18.741  0.00  0.00    +0.000 A 
ATOM     22  C   UNL     1       6.546   5.460  19.507  0.00  0.00    +0.000 A 
ATOM     23  C   UNL     1       5.537   4.705  18.912  0.00  0.00    +0.000 A 
ATOM     24  C   UNL     1       5.561   4.371  17.544  0.00  0.00    +0.000 A 
BRANCH  19  25
ATOM     25  C   UNL     1       6.773   4.743  15.283  0.00  0.00    +0.000 C 
ATOM     26  O   UNL     1       7.495   5.497  14.641  0.00  0.00    +0.000 OA
BRANCH  25  28
ATOM     27  C   UNL     1       6.028   3.654  13.359  0.00  0.00    +0.000 C 
ATOM     28  O   UNL     1       6.152   3.651  14.790  0.00  0.00    +0.000 OA
ENDBRANCH  25  28
ENDBRANCH  19  25
ENDBRANCH  18  24
ENDBRANCH   1  18
TORSDOF 5
ENDMDL
MODEL 8
REMARK VINA RESULT:      -7.4      2.821      4.496
REMARK  Name = 
REMARK  7 active torsions:
REMARK  status: ('A' for Active; 'I' for Inactive)
REMARK    1  A    between atoms: C_1  and  O_2
REMARK    2  A    between atoms: O_2  and  C_3
REMARK    3  A    between atoms: C_3  and  C_5
REMARK    4  A    between atoms: C_10  and  O_11
REMARK    5  A    between atoms: O_11  and  S_12
REMARK    6  A    between atoms: S_12  and  N_15
REMARK    7  A    between atoms: C_21  and  C_22
REMARK                            x       y       z     vdW  Elec       q    Type
REMARK                         _______ _______ _______ _____ _____    ______ ____
ROOT
ATOM      1  S   UNL     1       2.798   6.648  18.867  0.00  0.00    +0.000 S 
ATOM      2  O   UNL     1       2.157   5.795  17.881  0.00  0.00    +0.000 OA
ATOM      3  O   UNL     1       2.897   6.206  20.241  0.00  0.00    +0.000 OA
ENDROOT
BRANCH   1   4
ATOM      4  N   UNL     1       1.860   8.003  18.915  0.00  0.00    +0.000 N 
ATOM      5  C   UNL     1       1.924   9.043  18.005  0.00  0.00    +0.000 C 
ATOM      6  O   UNL     1       2.484   8.934  16.926  0.00  0.00    +0.000 OA
ATOM      7  N   UNL     1       1.285  10.198  18.330  0.00  0.00    +0.000 N 
ATOM      8  C   UNL     1       0.631  10.518  19.505  0.00  0.00    +0.000 A 
ATOM      9  N   UNL     1      -0.210  11.556  19.425  0.00  0.00    +0.000 NA
ATOM     10  C   UNL     1      -0.942  11.855  20.519  0.00  0.00    +0.000 A 
ATOM     11  C   UNL     1      -1.977  12.932  20.382  0.00  0.00    +0.000 C 
ATOM     12  C   UNL     1      -0.789  11.185  21.709  0.00  0.00    +0.000 A 
ATOM     13  C   UNL     1       0.135  10.172  21.687  0.00  0.00    +0.000 A 
ATOM     14 CL   UNL     1       0.459   9.252  23.099  0.00  0.00    +0.000 Cl
ATOM     15  N   UNL     1       0.838   9.791  20.608  0.00  0.00    +0.000 NA
ATOM     16  H   UNL     1       1.585   8.239  19.869  0.00  0.00    +0.000 HD
ATOM     17  H   UNL     1       1.190  10.870  17.585  0.00  0.00    +0.000 HD
ENDBRANCH   1   4
BRANCH   1  18
ATOM     18  O   UNL     1       4.285   7.053  18.302  0.00  0.00    +0.000 OA
BRANCH  18  24
ATOM     19  C   UNL     1       5.627   5.098  17.755  0.00  0.00    +0.000 A 
ATOM     20  C   UNL     1       6.268   4.320  16.765  0.00  0.00    +0.000 A 
ATOM     21  C   UNL     1       6.199   4.655  15.413  0.00  0.00    +0.000 A 
ATOM     22  C   UNL     1       5.458   5.756  15.028  0.00  0.00    +0.000 A 
ATOM     23  C   UNL     1       4.812   6.530  15.989  0.00  0.00    +0.000 A 
ATOM     24  C   UNL     1       4.910   6.248  17.365  0.00  0.00    +0.000 A 
BRANCH  19  25
ATOM     25  C   UNL     1       5.776   4.565  19.137  0.00  0.00    +0.000 C 
ATOM     26  O   UNL     1       5.295   3.485  19.461  0.00  0.00    +0.000 OA
BRANCH  25  28
ATOM     27  C   UNL     1       7.807   5.702  19.282  0.00  0.00    +0.000 C 
ATOM     28  O   UNL     1       6.573   5.328  19.914  0.00  0.00    +0.000 OA
ENDBRANCH  25  28
ENDBRANCH  19  25
ENDBRANCH  18  24
ENDBRANCH   1  18
TORSDOF 5
ENDMDL
MODEL 9
REMARK VINA RESULT:      -7.4      3.184      4.883
REMARK  Name = 
REMARK  7 active torsions:
REMARK  status: ('A' for Active; 'I' for Inactive)
REMARK    1  A    between atoms: C_1  and  O_2
REMARK    2  A    between atoms: O_2  and  C_3
REMARK    3  A    between atoms: C_3  and  C_5
REMARK    4  A    between atoms: C_10  and  O_11
REMARK    5  A    between atoms: O_11  and  S_12
REMARK    6  A    between atoms: S_12  and  N_15
REMARK    7  A    between atoms: C_21  and  C_22
REMARK                            x       y       z     vdW  Elec       q    Type
REMARK                         _______ _______ _______ _____ _____    ______ ____
ROOT
ATOM      1  S   UNL     1       2.693   6.754  18.994  0.00  0.00    +0.000 S 
ATOM      2  O   UNL     1       2.462   6.139  20.291  0.00  0.00    +0.000 OA
ATOM      3  O   UNL     1       4.017   7.225  18.649  0.00  0.00    +0.000 OA
ENDROOT
BRANCH   1   4
ATOM      4  N   UNL     1       1.743   8.102  19.001  0.00  0.00    +0.000 N 
ATOM      5  C   UNL     1       1.811   9.123  18.070  0.00  0.00    +0.000 C 
ATOM      6  O   UNL     1       2.385   8.995  17.000  0.00  0.00    +0.000 OA
ATOM      7  N   UNL     1       1.160  10.280  18.362  0.00  0.00    +0.000 N 
ATOM      8  C   UNL     1       0.489  10.620  19.522  0.00  0.00    +0.000 A 
ATOM      9  N   UNL     1      -0.359  11.650  19.409  0.00  0.00    +0.000 NA
ATOM     10  C   UNL     1      -1.107  11.967  20.487  0.00  0.00    +0.000 A 
ATOM     11  C   UNL     1      -2.148  13.032  20.315  0.00  0.00    +0.000 C 
ATOM     12  C   UNL     1      -0.964  11.324  21.694  0.00  0.00    +0.000 A 
ATOM     13  C   UNL     1      -0.032  10.318  21.705  0.00  0.00    +0.000 A 
ATOM     14 CL   UNL     1       0.281   9.431  23.140  0.00  0.00    +0.000 Cl
ATOM     15  N   UNL     1       0.687   9.919  20.642  0.00  0.00    +0.000 NA
ATOM     16  H   UNL     1       1.455   8.357  19.947  0.00  0.00    +0.000 HD
ATOM     17  H   UNL     1       1.069  10.935  17.602  0.00  0.00    +0.000 HD
ENDBRANCH   1   4
BRANCH   1  18
ATOM     18  O   UNL     1       2.146   5.727  17.837  0.00  0.00    +0.000 OA
BRANCH  18  24
ATOM     19  C   UNL     1       3.417   3.656  17.711  0.00  0.00    +0.000 A 
ATOM     20  C   UNL     1       3.456   2.257  17.903  0.00  0.00    +0.000 A 
ATOM     21  C   UNL     1       2.361   1.558  18.410  0.00  0.00    +0.000 A 
ATOM     22  C   UNL     1       1.221   2.253  18.766  0.00  0.00    +0.000 A 
ATOM     23  C   UNL     1       1.169   3.635  18.591  0.00  0.00    +0.000 A 
ATOM     24  C   UNL     1       2.238   4.359  18.031  0.00  0.00    +0.000 A 
BRANCH  19  25
ATOM     25  C   UNL     1       4.691   4.234  17.201  0.00  0.00    +0.000 C 
ATOM     26  O   UNL     1       4.770   4.718  16.078  0.00  0.00    +0.000 OA
BRANCH  25  28
ATOM     27  C   UNL     1       6.924   4.746  17.637  0.00  0.00    +0.000 C 
ATOM     28  O   UNL     1       5.665   4.265  18.134  0.00  0.00    +0.000 OA
ENDBRANCH  25  28
ENDBRANCH  19  25
ENDBRANCH  18  24
ENDBRANCH   1  18
TORSDOF 5
ENDMDL
