MODEL 1
REMARK VINA RESULT:      -8.2      0.000      0.000
REMARK  Name = 
REMARK  0 active torsions:
REMARK  status: ('A' for Active; 'I' for Inactive)
REMARK                            x       y       z     vdW  Elec       q    Type
REMARK                         _______ _______ _______ _____ _____    ______ ____
ROOT
ATOM      1  C   UNL     1       0.939  10.477  18.992  0.00  0.00    +0.000 A 
ATOM      2  C   UNL     1       1.929  10.733  18.069  0.00  0.00    +0.000 A 
ATOM      3  N   UNL     1       2.803   9.796  17.640  0.00  0.00    +0.000 NA
ATOM      4  C   UNL     1       2.716   8.545  18.145  0.00  0.00    +0.000 A 
ATOM      5  N   UNL     1       3.564   7.626  17.700  0.00  0.00    +0.000 NA
ATOM      6  C   UNL     1       3.527   6.346  18.186  0.00  0.00    +0.000 A 
ATOM      7  N   UNL     1       4.498   5.554  17.629  0.00  0.00    +0.000 N 
ATOM      8  C   UNL     1       5.315   4.501  18.200  0.00  0.00    +0.000 C 
ATOM      9  C   UNL     1       5.972   3.882  16.952  0.00  0.00    +0.000 C 
ATOM     10  C   UNL     1       7.126   4.795  16.578  0.00  0.00    +0.000 C 
ATOM     11  C   UNL     1       6.375   6.059  16.116  0.00  0.00    +0.000 C 
ATOM     12  C   UNL     1       4.868   5.671  16.218  0.00  0.00    +0.000 C 
ATOM     13  C   UNL     1       4.932   4.178  15.862  0.00  0.00    +0.000 C 
ATOM     14  C   UNL     1       2.530   5.991  19.158  0.00  0.00    +0.000 A 
ATOM     15  N   UNL     1       2.267   4.747  19.684  0.00  0.00    +0.000 N 
ATOM     16  C   UNL     1       1.278   4.526  20.756  0.00  0.00    +0.000 C 
ATOM     17  C   UNL     1       1.339   2.978  20.917  0.00  0.00    +0.000 C 
ATOM     18  C   UNL     1       2.724   2.565  21.444  0.00  0.00    +0.000 C 
ATOM     19  C   UNL     1       3.632   2.872  20.257  0.00  0.00    +0.000 C 
ATOM     20  C   UNL     1       2.650   3.434  19.193  0.00  0.00    +0.000 C 
ATOM     21  C   UNL     1       1.422   2.562  19.455  0.00  0.00    +0.000 C 
ATOM     22  N   UNL     1       1.670   6.951  19.608  0.00  0.00    +0.000 NA
ATOM     23  C   UNL     1       1.753   8.197  19.102  0.00  0.00    +0.000 A 
ATOM     24  C   UNL     1       0.860   9.187  19.507  0.00  0.00    +0.000 A 
ENDROOT
TORSDOF 0
ENDMDL
MODEL 2
REMARK VINA RESULT:      -8.1      0.835      4.461
REMARK  Name = 
REMARK  0 active torsions:
REMARK  status: ('A' for Active; 'I' for Inactive)
REMARK                            x       y       z     vdW  Elec       q    Type
REMARK                         _______ _______ _______ _____ _____    ______ ____
ROOT
ATOM      1  C   UNL     1       1.486  10.820  18.590  0.00  0.00    +0.000 A 
ATOM      2  C   UNL     1       0.737  10.208  19.571  0.00  0.00    +0.000 A 
ATOM      3  N   UNL     1       0.843   8.895  19.873  0.00  0.00    +0.000 NA
ATOM      4  C   UNL     1       1.717   8.135  19.176  0.00  0.00    +0.000 A 
ATOM      5  N   UNL     1       1.831   6.852  19.498  0.00  0.00    +0.000 NA
ATOM      6  C   UNL     1       2.693   6.034  18.817  0.00  0.00    +0.000 A 
ATOM      7  N   UNL     1       2.647   4.742  19.271  0.00  0.00    +0.000 N 
ATOM      8  C   UNL     1       2.741   3.478  18.567  0.00  0.00    +0.000 C 
ATOM      9  C   UNL     1       2.884   2.468  19.722  0.00  0.00    +0.000 C 
ATOM     10  C   UNL     1       1.485   2.242  20.268  0.00  0.00    +0.000 C 
ATOM     11  C   UNL     1       1.181   3.615  20.900  0.00  0.00    +0.000 C 
ATOM     12  C   UNL     1       2.492   4.434  20.693  0.00  0.00    +0.000 C 
ATOM     13  C   UNL     1       3.545   3.321  20.814  0.00  0.00    +0.000 C 
ATOM     14  C   UNL     1       3.510   6.587  17.772  0.00  0.00    +0.000 A 
ATOM     15  N   UNL     1       4.500   5.960  17.050  0.00  0.00    +0.000 N 
ATOM     16  C   UNL     1       5.203   6.609  15.928  0.00  0.00    +0.000 C 
ATOM     17  C   UNL     1       6.229   5.507  15.529  0.00  0.00    +0.000 C 
ATOM     18  C   UNL     1       5.483   4.276  14.985  0.00  0.00    +0.000 C 
ATOM     19  C   UNL     1       4.790   3.734  16.232  0.00  0.00    +0.000 C 
ATOM     20  C   UNL     1       5.221   4.733  17.342  0.00  0.00    +0.000 C 
ATOM     21  C   UNL     1       6.658   5.030  16.910  0.00  0.00    +0.000 C 
ATOM     22  N   UNL     1       3.376   7.908  17.452  0.00  0.00    +0.000 NA
ATOM     23  C   UNL     1       2.507   8.667  18.149  0.00  0.00    +0.000 A 
ATOM     24  C   UNL     1       2.381  10.028  17.878  0.00  0.00    +0.000 A 
ENDROOT
TORSDOF 0
ENDMDL
MODEL 3
REMARK VINA RESULT:      -7.0      1.027      1.193
REMARK  Name = 
REMARK  0 active torsions:
REMARK  status: ('A' for Active; 'I' for Inactive)
REMARK                            x       y       z     vdW  Elec       q    Type
REMARK                         _______ _______ _______ _____ _____    ______ ____
ROOT
ATOM      1  C   UNL     1      -0.002   9.668  20.702  0.00  0.00    +0.000 A 
ATOM      2  C   UNL     1       0.826  10.263  19.776  0.00  0.00    +0.000 A 
ATOM      3  N   UNL     1       1.805   9.600  19.122  0.00  0.00    +0.000 NA
ATOM      4  C   UNL     1       1.994   8.289  19.390  0.00  0.00    +0.000 A 
ATOM      5  N   UNL     1       2.942   7.641  18.724  0.00  0.00    +0.000 NA
ATOM      6  C   UNL     1       3.185   6.314  18.965  0.00  0.00    +0.000 A 
ATOM      7  N   UNL     1       4.218   5.831  18.205  0.00  0.00    +0.000 N 
ATOM      8  C   UNL     1       5.265   4.876  18.513  0.00  0.00    +0.000 C 
ATOM      9  C   UNL     1       5.889   4.617  17.128  0.00  0.00    +0.000 C 
ATOM     10  C   UNL     1       6.818   5.786  16.851  0.00  0.00    +0.000 C 
ATOM     11  C   UNL     1       5.809   6.940  16.686  0.00  0.00    +0.000 C 
ATOM     12  C   UNL     1       4.414   6.256  16.819  0.00  0.00    +0.000 C 
ATOM     13  C   UNL     1       4.706   4.886  16.187  0.00  0.00    +0.000 C 
ATOM     14  C   UNL     1       2.372   5.613  19.921  0.00  0.00    +0.000 A 
ATOM     15  N   UNL     1       2.390   4.271  20.224  0.00  0.00    +0.000 N 
ATOM     16  C   UNL     1       1.573   3.684  21.302  0.00  0.00    +0.000 C 
ATOM     17  C   UNL     1       1.925   2.173  21.168  0.00  0.00    +0.000 C 
ATOM     18  C   UNL     1       3.408   1.953  21.511  0.00  0.00    +0.000 C 
ATOM     19  C   UNL     1       4.120   2.627  20.343  0.00  0.00    +0.000 C 
ATOM     20  C   UNL     1       2.949   3.160  19.472  0.00  0.00    +0.000 C 
ATOM     21  C   UNL     1       1.930   2.035  19.652  0.00  0.00    +0.000 C 
ATOM     22  N   UNL     1       1.406   6.298  20.600  0.00  0.00    +0.000 NA
ATOM     23  C   UNL     1       1.213   7.604  20.330  0.00  0.00    +0.000 A 
ATOM     24  C   UNL     1       0.204   8.319  20.973  0.00  0.00    +0.000 A 
ENDROOT
TORSDOF 0
ENDMDL
MODEL 4
REMARK VINA RESULT:      -6.7      9.223     11.795
REMARK  Name = 
REMARK  0 active torsions:
REMARK  status: ('A' for Active; 'I' for Inactive)
REMARK                            x       y       z     vdW  Elec       q    Type
REMARK                         _______ _______ _______ _____ _____    ______ ____
ROOT
ATOM      1  C   UNL     1       4.113  15.497  17.894  0.00  0.00    +0.000 A 
ATOM      2  C   UNL     1       4.333  16.737  18.453  0.00  0.00    +0.000 A 
ATOM      3  N   UNL     1       5.541  17.143  18.903  0.00  0.00    +0.000 NA
ATOM      4  C   UNL     1       6.588  16.294  18.815  0.00  0.00    +0.000 A 
ATOM      5  N   UNL     1       7.775  16.712  19.238  0.00  0.00    +0.000 NA
ATOM      6  C   UNL     1       8.868  15.888  19.182  0.00  0.00    +0.000 A 
ATOM      7  N   UNL     1       9.992  16.484  19.691  0.00  0.00    +0.000 N 
ATOM      8  C   UNL     1      11.086  15.947  20.476  0.00  0.00    +0.000 C 
ATOM      9  C   UNL     1      12.105  17.103  20.453  0.00  0.00    +0.000 C 
ATOM     10  C   UNL     1      11.639  18.104  21.495  0.00  0.00    +0.000 C 
ATOM     11  C   UNL     1      10.341  18.630  20.850  0.00  0.00    +0.000 C 
ATOM     12  C   UNL     1      10.273  17.903  19.472  0.00  0.00    +0.000 C 
ATOM     13  C   UNL     1      11.767  17.802  19.128  0.00  0.00    +0.000 C 
ATOM     14  C   UNL     1       8.729  14.572  18.619  0.00  0.00    +0.000 A 
ATOM     15  N   UNL     1       9.717  13.645  18.382  0.00  0.00    +0.000 N 
ATOM     16  C   UNL     1       9.434  12.284  17.891  0.00  0.00    +0.000 C 
ATOM     17  C   UNL     1      10.872  11.704  17.745  0.00  0.00    +0.000 C 
ATOM     18  C   UNL     1      11.530  11.590  19.131  0.00  0.00    +0.000 C 
ATOM     19  C   UNL     1      11.734  13.052  19.518  0.00  0.00    +0.000 C 
ATOM     20  C   UNL     1      11.157  13.827  18.302  0.00  0.00    +0.000 C 
ATOM     21  C   UNL     1      11.587  12.911  17.155  0.00  0.00    +0.000 C 
ATOM     22  N   UNL     1       7.499  14.158  18.194  0.00  0.00    +0.000 NA
ATOM     23  C   UNL     1       6.455  15.006  18.279  0.00  0.00    +0.000 A 
ATOM     24  C   UNL     1       5.198  14.630  17.810  0.00  0.00    +0.000 A 
ENDROOT
TORSDOF 0
ENDMDL
MODEL 5
REMARK VINA RESULT:      -6.6      6.350     11.069
REMARK  Name = 
REMARK  0 active torsions:
REMARK  status: ('A' for Active; 'I' for Inactive)
REMARK                            x       y       z     vdW  Elec       q    Type
REMARK                         _______ _______ _______ _____ _____    ______ ____
ROOT
ATOM      1  C   UNL     1       0.467   9.739  18.105  0.00  0.00    +0.000 A 
ATOM      2  C   UNL     1       0.969  10.154  19.319  0.00  0.00    +0.000 A 
ATOM      3  N   UNL     1       0.263  10.898  20.198  0.00  0.00    +0.000 NA
ATOM      4  C   UNL     1      -0.997  11.267  19.874  0.00  0.00    +0.000 A 
ATOM      5  N   UNL     1      -1.690  11.978  20.755  0.00  0.00    +0.000 NA
ATOM      6  C   UNL     1      -2.967  12.388  20.473  0.00  0.00    +0.000 A 
ATOM      7  N   UNL     1      -3.505  13.134  21.489  0.00  0.00    +0.000 N 
ATOM      8  C   UNL     1      -4.377  14.292  21.464  0.00  0.00    +0.000 C 
ATOM      9  C   UNL     1      -4.788  14.425  22.943  0.00  0.00    +0.000 C 
ATOM     10  C   UNL     1      -3.631  15.112  23.649  0.00  0.00    +0.000 C 
ATOM     11  C   UNL     1      -2.543  14.022  23.575  0.00  0.00    +0.000 C 
ATOM     12  C   UNL     1      -3.253  12.813  22.894  0.00  0.00    +0.000 C 
ATOM     13  C   UNL     1      -4.680  12.976  23.438  0.00  0.00    +0.000 C 
ATOM     14  C   UNL     1      -3.569  12.006  19.225  0.00  0.00    +0.000 A 
ATOM     15  N   UNL     1      -4.860  12.228  18.807  0.00  0.00    +0.000 N 
ATOM     16  C   UNL     1      -5.334  11.874  17.456  0.00  0.00    +0.000 C 
ATOM     17  C   UNL     1      -6.838  12.273  17.543  0.00  0.00    +0.000 C 
ATOM     18  C   UNL     1      -6.961  13.797  17.714  0.00  0.00    +0.000 C 
ATOM     19  C   UNL     1      -6.416  14.014  19.122  0.00  0.00    +0.000 C 
ATOM     20  C   UNL     1      -6.037  12.580  19.584  0.00  0.00    +0.000 C 
ATOM     21  C   UNL     1      -7.166  11.772  18.942  0.00  0.00    +0.000 C 
ATOM     22  N   UNL     1      -2.838  11.279  18.330  0.00  0.00    +0.000 NA
ATOM     23  C   UNL     1      -1.584  10.908  18.654  0.00  0.00    +0.000 A 
ATOM     24  C   UNL     1      -0.829  10.126  17.781  0.00  0.00    +0.000 A 
ENDROOT
TORSDOF 0
ENDMDL
MODEL 6
REMARK VINA RESULT:      -6.6      9.272     10.919
REMARK  Name = 
REMARK  0 active torsions:
REMARK  status: ('A' for Active; 'I' for Inactive)
REMARK                            x       y       z     vdW  Elec       q    Type
REMARK                         _______ _______ _______ _____ _____    ______ ____
ROOT
ATOM      1  C   UNL     1       7.375  11.832  25.437  0.00  0.00    +0.000 A 
ATOM      2  C   UNL     1       6.348  12.729  25.239  0.00  0.00    +0.000 A 
ATOM      3  N   UNL     1       6.215  13.468  24.116  0.00  0.00    +0.000 NA
ATOM      4  C   UNL     1       7.137  13.333  23.136  0.00  0.00    +0.000 A 
ATOM      5  N   UNL     1       6.983  14.046  22.027  0.00  0.00    +0.000 NA
ATOM      6  C   UNL     1       7.894  13.957  21.006  0.00  0.00    +0.000 A 
ATOM      7  N   UNL     1       7.583  14.788  19.962  0.00  0.00    +0.000 N 
ATOM      8  C   UNL     1       8.426  15.574  19.083  0.00  0.00    +0.000 C 
ATOM      9  C   UNL     1       7.433  16.031  17.998  0.00  0.00    +0.000 C 
ATOM     10  C   UNL     1       6.672  17.209  18.581  0.00  0.00    +0.000 C 
ATOM     11  C   UNL     1       5.850  16.518  19.688  0.00  0.00    +0.000 C 
ATOM     12  C   UNL     1       6.198  15.005  19.541  0.00  0.00    +0.000 C 
ATOM     13  C   UNL     1       6.391  14.903  18.020  0.00  0.00    +0.000 C 
ATOM     14  C   UNL     1       9.002  13.050  21.130  0.00  0.00    +0.000 A 
ATOM     15  N   UNL     1       9.954  12.744  20.185  0.00  0.00    +0.000 N 
ATOM     16  C   UNL     1      11.106  11.868  20.466  0.00  0.00    +0.000 C 
ATOM     17  C   UNL     1      11.801  11.816  19.073  0.00  0.00    +0.000 C 
ATOM     18  C   UNL     1      12.333  13.213  18.706  0.00  0.00    +0.000 C 
ATOM     19  C   UNL     1      11.050  14.003  18.475  0.00  0.00    +0.000 C 
ATOM     20  C   UNL     1       9.933  12.958  18.748  0.00  0.00    +0.000 C 
ATOM     21  C   UNL     1      10.581  11.698  18.171  0.00  0.00    +0.000 C 
ATOM     22  N   UNL     1       9.146  12.330  22.281  0.00  0.00    +0.000 NA
ATOM     23  C   UNL     1       8.225  12.460  23.257  0.00  0.00    +0.000 A 
ATOM     24  C   UNL     1       8.319  11.704  24.424  0.00  0.00    +0.000 A 
ENDROOT
TORSDOF 0
ENDMDL
MODEL 7
REMARK VINA RESULT:      -6.5      9.144     11.530
REMARK  Name = 
REMARK  0 active torsions:
REMARK  status: ('A' for Active; 'I' for Inactive)
REMARK                            x       y       z     vdW  Elec       q    Type
REMARK                         _______ _______ _______ _____ _____    ______ ____
ROOT
ATOM      1  C   UNL     1       7.103  12.826  26.038  0.00  0.00    +0.000 A 
ATOM      2  C   UNL     1       7.040  11.581  25.451  0.00  0.00    +0.000 A 
ATOM      3  N   UNL     1       7.536  11.314  24.223  0.00  0.00    +0.000 NA
ATOM      4  C   UNL     1       8.117  12.315  23.524  0.00  0.00    +0.000 A 
ATOM      5  N   UNL     1       8.623  12.036  22.329  0.00  0.00    +0.000 NA
ATOM      6  C   UNL     1       9.212  13.016  21.573  0.00  0.00    +0.000 A 
ATOM      7  N   UNL     1       9.645  12.543  20.361  0.00  0.00    +0.000 N 
ATOM      8  C   UNL     1       9.651  13.153  19.046  0.00  0.00    +0.000 C 
ATOM      9  C   UNL     1      10.517  12.171  18.234  0.00  0.00    +0.000 C 
ATOM     10  C   UNL     1       9.613  11.007  17.865  0.00  0.00    +0.000 C 
ATOM     11  C   UNL     1       9.370  10.365  19.245  0.00  0.00    +0.000 C 
ATOM     12  C   UNL     1      10.238  11.213  20.224  0.00  0.00    +0.000 C 
ATOM     13  C   UNL     1      11.425  11.571  19.317  0.00  0.00    +0.000 C 
ATOM     14  C   UNL     1       9.316  14.348  22.104  0.00  0.00    +0.000 A 
ATOM     15  N   UNL     1       9.957  15.431  21.550  0.00  0.00    +0.000 N 
ATOM     16  C   UNL     1       9.908  16.779  22.147  0.00  0.00    +0.000 C 
ATOM     17  C   UNL     1      10.827  17.579  21.176  0.00  0.00    +0.000 C 
ATOM     18  C   UNL     1      10.179  17.643  19.782  0.00  0.00    +0.000 C 
ATOM     19  C   UNL     1      10.273  16.196  19.309  0.00  0.00    +0.000 C 
ATOM     20  C   UNL     1      10.961  15.475  20.501  0.00  0.00    +0.000 C 
ATOM     21  C   UNL     1      11.937  16.560  20.960  0.00  0.00    +0.000 C 
ATOM     22  N   UNL     1       8.785  14.615  23.333  0.00  0.00    +0.000 NA
ATOM     23  C   UNL     1       8.210  13.617  24.032  0.00  0.00    +0.000 A 
ATOM     24  C   UNL     1       7.700  13.849  25.309  0.00  0.00    +0.000 A 
ENDROOT
TORSDOF 0
ENDMDL
MODEL 8
REMARK VINA RESULT:      -6.4      8.890     11.486
REMARK  Name = 
REMARK  0 active torsions:
REMARK  status: ('A' for Active; 'I' for Inactive)
REMARK                            x       y       z     vdW  Elec       q    Type
REMARK                         _______ _______ _______ _____ _____    ______ ____
ROOT
ATOM      1  C   UNL     1       8.009  13.937  25.974  0.00  0.00    +0.000 A 
ATOM      2  C   UNL     1       8.059  12.589  25.693  0.00  0.00    +0.000 A 
ATOM      3  N   UNL     1       8.340  12.098  24.467  0.00  0.00    +0.000 NA
ATOM      4  C   UNL     1       8.576  12.965  23.456  0.00  0.00    +0.000 A 
ATOM      5  N   UNL     1       8.875  12.471  22.261  0.00  0.00    +0.000 NA
ATOM      6  C   UNL     1       9.112  13.304  21.199  0.00  0.00    +0.000 A 
ATOM      7  N   UNL     1       9.373  12.611  20.046  0.00  0.00    +0.000 N 
ATOM      8  C   UNL     1       9.005  12.875  18.669  0.00  0.00    +0.000 C 
ATOM      9  C   UNL     1       9.856  11.847  17.899  0.00  0.00    +0.000 C 
ATOM     10  C   UNL     1       9.126  10.520  18.007  0.00  0.00    +0.000 C 
ATOM     11  C   UNL     1       9.285  10.208  19.508  0.00  0.00    +0.000 C 
ATOM     12  C   UNL     1      10.161  11.377  20.055  0.00  0.00    +0.000 C 
ATOM     13  C   UNL     1      11.056  11.656  18.838  0.00  0.00    +0.000 C 
ATOM     14  C   UNL     1       9.075  14.727  21.400  0.00  0.00    +0.000 A 
ATOM     15  N   UNL     1       9.383  15.717  20.496  0.00  0.00    +0.000 N 
ATOM     16  C   UNL     1       9.208  17.151  20.791  0.00  0.00    +0.000 C 
ATOM     17  C   UNL     1       9.753  17.803  19.485  0.00  0.00    +0.000 C 
ATOM     18  C   UNL     1       8.839  17.438  18.303  0.00  0.00    +0.000 C 
ATOM     19  C   UNL     1       9.100  15.945  18.134  0.00  0.00    +0.000 C 
ATOM     20  C   UNL     1      10.132  15.635  19.253  0.00  0.00    +0.000 C 
ATOM     21  C   UNL     1      10.964  16.917  19.230  0.00  0.00    +0.000 C 
ATOM     22  N   UNL     1       8.760  15.216  22.635  0.00  0.00    +0.000 NA
ATOM     23  C   UNL     1       8.528  14.352  23.644  0.00  0.00    +0.000 A 
ATOM     24  C   UNL     1       8.250  14.820  24.927  0.00  0.00    +0.000 A 
ENDROOT
TORSDOF 0
ENDMDL
MODEL 9
REMARK VINA RESULT:      -6.4      8.010     10.888
REMARK  Name = 
REMARK  0 active torsions:
REMARK  status: ('A' for Active; 'I' for Inactive)
REMARK                            x       y       z     vdW  Elec       q    Type
REMARK                         _______ _______ _______ _____ _____    ______ ____
ROOT
ATOM      1  C   UNL     1       0.681  14.462  21.959  0.00  0.00    +0.000 A 
ATOM      2  C   UNL     1      -0.335  14.980  22.732  0.00  0.00    +0.000 A 
ATOM      3  N   UNL     1      -1.644  14.746  22.490  0.00  0.00    +0.000 NA
ATOM      4  C   UNL     1      -1.983  13.976  21.432  0.00  0.00    +0.000 A 
ATOM      5  N   UNL     1      -3.270  13.733  21.218  0.00  0.00    +0.000 NA
ATOM      6  C   UNL     1      -3.670  12.969  20.153  0.00  0.00    +0.000 A 
ATOM      7  N   UNL     1      -5.034  12.857  20.080  0.00  0.00    +0.000 N 
ATOM      8  C   UNL     1      -5.930  12.826  18.941  0.00  0.00    +0.000 C 
ATOM      9  C   UNL     1      -7.267  12.414  19.587  0.00  0.00    +0.000 C 
ATOM     10  C   UNL     1      -7.847  13.672  20.210  0.00  0.00    +0.000 C 
ATOM     11  C   UNL     1      -6.849  13.928  21.356  0.00  0.00    +0.000 C 
ATOM     12  C   UNL     1      -5.858  12.726  21.282  0.00  0.00    +0.000 C 
ATOM     13  C   UNL     1      -6.799  11.609  20.808  0.00  0.00    +0.000 C 
ATOM     14  C   UNL     1      -2.677  12.393  19.288  0.00  0.00    +0.000 A 
ATOM     15  N   UNL     1      -2.870  11.522  18.241  0.00  0.00    +0.000 N 
ATOM     16  C   UNL     1      -1.774  11.077  17.360  0.00  0.00    +0.000 C 
ATOM     17  C   UNL     1      -2.519  10.083  16.420  0.00  0.00    +0.000 C 
ATOM     18  C   UNL     1      -3.547  10.847  15.566  0.00  0.00    +0.000 C 
ATOM     19  C   UNL     1      -4.587  11.265  16.600  0.00  0.00    +0.000 C 
ATOM     20  C   UNL     1      -4.021  10.691  17.928  0.00  0.00    +0.000 C 
ATOM     21  C   UNL     1      -3.413   9.379  17.431  0.00  0.00    +0.000 C 
ATOM     22  N   UNL     1      -1.358  12.658  19.522  0.00  0.00    +0.000 NA
ATOM     23  C   UNL     1      -1.019  13.423  20.579  0.00  0.00    +0.000 A 
ATOM     24  C   UNL     1       0.321  13.673  20.871  0.00  0.00    +0.000 A 
ENDROOT
TORSDOF 0
ENDMDL
