MODEL 1
REMARK VINA RESULT:      -7.8      0.000      0.000
REMARK  Name = 
REMARK  4 active torsions:
REMARK  status: ('A' for Active; 'I' for Inactive)
REMARK    1  A    between atoms: C_10  and  C_11
REMARK    2  A    between atoms: C_14  and  O_15
REMARK    3  A    between atoms: O_15  and  C_16
REMARK    4  A    between atoms: C_16  and  C_17
REMARK                            x       y       z     vdW  Elec       q    Type
REMARK                         _______ _______ _______ _____ _____    ______ ____
ROOT
ATOM      1  C   UNL     1       2.960   6.082  19.016  0.00  0.00    +0.000 A 
ATOM      2  C   UNL     1       2.291   5.204  18.160  0.00  0.00    +0.000 A 
ATOM      3  C   UNL     1       3.013   4.371  17.309  0.00  0.00    +0.000 A 
ATOM      4  C   UNL     1       4.407   4.432  17.282  0.00  0.00    +0.000 A 
ATOM      5  C   UNL     1       5.079   5.267  18.178  0.00  0.00    +0.000 A 
ATOM      6  C   UNL     1       4.358   6.098  19.041  0.00  0.00    +0.000 A 
ENDROOT
BRANCH   1  16
ATOM      7  O   UNL     1       2.639   8.381  17.294  0.00  0.00    +0.000 OA
ATOM      8  C   UNL     1       1.997   8.871  18.215  0.00  0.00    +0.000 C 
ATOM      9  N   UNL     1       1.431  10.112  18.072  0.00  0.00    +0.000 N 
ATOM     10  C   UNL     1       0.741  10.803  19.017  0.00  0.00    +0.000 C 
ATOM     11  S   UNL     1       0.121  12.313  18.706  0.00  0.00    +0.000 S 
ATOM     12  N   UNL     1       0.583  10.211  20.231  0.00  0.00    +0.000 N 
ATOM     13  C   UNL     1       1.034   8.970  20.592  0.00  0.00    +0.000 C 
ATOM     14  O   UNL     1       0.845   8.537  21.723  0.00  0.00    +0.000 OA
ATOM     15  C   UNL     1       1.761   8.224  19.531  0.00  0.00    +0.000 C 
ATOM     16  C   UNL     1       2.174   6.984  19.854  0.00  0.00    +0.000 C 
ATOM     17  H   UNL     1       1.576  10.551  17.171  0.00  0.00    +0.000 HD
ATOM     18  H   UNL     1       0.086  10.722  20.949  0.00  0.00    +0.000 HD
ENDBRANCH   1  16
BRANCH   4  19
ATOM     19  O   UNL     1       5.196   3.724  16.414  0.00  0.00    +0.000 OA
BRANCH  19  20
ATOM     20  C   UNL     1       6.424   4.373  16.072  0.00  0.00    +0.000 C 
BRANCH  20  21
ATOM     21  C   UNL     1       6.617   4.343  14.578  0.00  0.00    +0.000 A 
ATOM     22  C   UNL     1       7.574   5.161  13.966  0.00  0.00    +0.000 A 
ATOM     23  C   UNL     1       7.751   5.121  12.581  0.00  0.00    +0.000 A 
ATOM     24  C   UNL     1       6.974   4.264  11.802  0.00  0.00    +0.000 A 
ATOM     25  C   UNL     1       6.021   3.444  12.403  0.00  0.00    +0.000 A 
ATOM     26  C   UNL     1       5.843   3.482  13.786  0.00  0.00    +0.000 A 
ENDBRANCH  20  21
ENDBRANCH  19  20
ENDBRANCH   4  19
TORSDOF 4
ENDMDL
MODEL 2
REMARK VINA RESULT:      -7.6      4.269      5.880
REMARK  Name = 
REMARK  4 active torsions:
REMARK  status: ('A' for Active; 'I' for Inactive)
REMARK    1  A    between atoms: C_10  and  C_11
REMARK    2  A    between atoms: C_14  and  O_15
REMARK    3  A    between atoms: O_15  and  C_16
REMARK    4  A    between atoms: C_16  and  C_17
REMARK                            x       y       z     vdW  Elec       q    Type
REMARK                         _______ _______ _______ _____ _____    ______ ____
ROOT
ATOM      1  C   UNL     1       0.574  10.047  19.419  0.00  0.00    +0.000 A 
ATOM      2  C   UNL     1       0.836   9.038  20.349  0.00  0.00    +0.000 A 
ATOM      3  C   UNL     1       1.719   8.008  20.035  0.00  0.00    +0.000 A 
ATOM      4  C   UNL     1       2.323   7.961  18.777  0.00  0.00    +0.000 A 
ATOM      5  C   UNL     1       2.107   8.999  17.868  0.00  0.00    +0.000 A 
ATOM      6  C   UNL     1       1.229  10.040  18.184  0.00  0.00    +0.000 A 
ENDROOT
BRANCH   1  16
ATOM      7  O   UNL     1      -1.604   9.433  17.621  0.00  0.00    +0.000 OA
ATOM      8  C   UNL     1      -2.180  10.385  18.135  0.00  0.00    +0.000 C 
ATOM      9  N   UNL     1      -3.452  10.709  17.742  0.00  0.00    +0.000 N 
ATOM     10  C   UNL     1      -4.193  11.762  18.178  0.00  0.00    +0.000 C 
ATOM     11  S   UNL     1      -5.725  12.043  17.600  0.00  0.00    +0.000 S 
ATOM     12  N   UNL     1      -3.627  12.581  19.106  0.00  0.00    +0.000 N 
ATOM     13  C   UNL     1      -2.385  12.437  19.662  0.00  0.00    +0.000 C 
ATOM     14  O   UNL     1      -1.968  13.245  20.485  0.00  0.00    +0.000 OA
ATOM     15  C   UNL     1      -1.608  11.263  19.189  0.00  0.00    +0.000 C 
ATOM     16  C   UNL     1      -0.402  11.080  19.758  0.00  0.00    +0.000 C 
ATOM     17  H   UNL     1      -3.853  10.106  17.035  0.00  0.00    +0.000 HD
ATOM     18  H   UNL     1      -4.161  13.378  19.426  0.00  0.00    +0.000 HD
ENDBRANCH   1  16
BRANCH   4  19
ATOM     19  O   UNL     1       3.127   6.940  18.343  0.00  0.00    +0.000 OA
BRANCH  19  20
ATOM     20  C   UNL     1       3.482   5.997  19.359  0.00  0.00    +0.000 C 
BRANCH  20  21
ATOM     21  C   UNL     1       2.543   4.820  19.311  0.00  0.00    +0.000 A 
ATOM     22  C   UNL     1       2.333   4.123  18.115  0.00  0.00    +0.000 A 
ATOM     23  C   UNL     1       1.467   3.028  18.082  0.00  0.00    +0.000 A 
ATOM     24  C   UNL     1       0.808   2.623  19.243  0.00  0.00    +0.000 A 
ATOM     25  C   UNL     1       1.013   3.310  20.438  0.00  0.00    +0.000 A 
ATOM     26  C   UNL     1       1.878   4.404  20.473  0.00  0.00    +0.000 A 
ENDBRANCH  20  21
ENDBRANCH  19  20
ENDBRANCH   4  19
TORSDOF 4
ENDMDL
MODEL 3
REMARK VINA RESULT:      -7.5      0.529      1.067
REMARK  Name = 
REMARK  4 active torsions:
REMARK  status: ('A' for Active; 'I' for Inactive)
REMARK    1  A    between atoms: C_10  and  C_11
REMARK    2  A    between atoms: C_14  and  O_15
REMARK    3  A    between atoms: O_15  and  C_16
REMARK    4  A    between atoms: C_16  and  C_17
REMARK                            x       y       z     vdW  Elec       q    Type
REMARK                         _______ _______ _______ _____ _____    ______ ____
ROOT
ATOM      1  C   UNL     1       2.805   6.539  18.786  0.00  0.00    +0.000 A 
ATOM      2  C   UNL     1       4.061   6.923  18.310  0.00  0.00    +0.000 A 
ATOM      3  C   UNL     1       4.756   6.100  17.428  0.00  0.00    +0.000 A 
ATOM      4  C   UNL     1       4.217   4.872  17.041  0.00  0.00    +0.000 A 
ATOM      5  C   UNL     1       2.938   4.514  17.470  0.00  0.00    +0.000 A 
ATOM      6  C   UNL     1       2.232   5.342  18.348  0.00  0.00    +0.000 A 
ENDROOT
BRANCH   1  16
ATOM      7  O   UNL     1       2.008   8.787  17.152  0.00  0.00    +0.000 OA
ATOM      8  C   UNL     1       1.516   9.244  18.177  0.00  0.00    +0.000 C 
ATOM      9  N   UNL     1       0.849  10.441  18.141  0.00  0.00    +0.000 N 
ATOM     10  C   UNL     1       0.301  11.097  19.198  0.00  0.00    +0.000 C 
ATOM     11  S   UNL     1      -0.470  12.556  19.008  0.00  0.00    +0.000 S 
ATOM     12  N   UNL     1       0.413  10.512  20.421  0.00  0.00    +0.000 N 
ATOM     13  C   UNL     1       1.010   9.310  20.692  0.00  0.00    +0.000 C 
ATOM     14  O   UNL     1       1.066   8.881  21.839  0.00  0.00    +0.000 OA
ATOM     15  C   UNL     1       1.576   8.601  19.515  0.00  0.00    +0.000 C 
ATOM     16  C   UNL     1       2.127   7.397  19.756  0.00  0.00    +0.000 C 
ATOM     17  H   UNL     1       0.792  10.877  17.229  0.00  0.00    +0.000 HD
ATOM     18  H   UNL     1       0.025  10.998  21.219  0.00  0.00    +0.000 HD
ENDBRANCH   1  16
BRANCH   4  19
ATOM     19  O   UNL     1       4.867   3.955  16.257  0.00  0.00    +0.000 OA
BRANCH  19  20
ATOM     20  C   UNL     1       6.253   4.238  16.045  0.00  0.00    +0.000 C 
BRANCH  20  21
ATOM     21  C   UNL     1       6.545   4.281  14.569  0.00  0.00    +0.000 A 
ATOM     22  C   UNL     1       7.517   5.150  14.058  0.00  0.00    +0.000 A 
ATOM     23  C   UNL     1       7.787   5.179  12.688  0.00  0.00    +0.000 A 
ATOM     24  C   UNL     1       7.088   4.339  11.821  0.00  0.00    +0.000 A 
ATOM     25  C   UNL     1       6.120   3.468  12.321  0.00  0.00    +0.000 A 
ATOM     26  C   UNL     1       5.849   3.439  13.689  0.00  0.00    +0.000 A 
ENDBRANCH  20  21
ENDBRANCH  19  20
ENDBRANCH   4  19
TORSDOF 4
ENDMDL
MODEL 4
REMARK VINA RESULT:      -7.5      4.350      6.009
REMARK  Name = 
REMARK  4 active torsions:
REMARK  status: ('A' for Active; 'I' for Inactive)
REMARK    1  A    between atoms: C_10  and  C_11
REMARK    2  A    between atoms: C_14  and  O_15
REMARK    3  A    between atoms: O_15  and  C_16
REMARK    4  A    between atoms: C_16  and  C_17
REMARK                            x       y       z     vdW  Elec       q    Type
REMARK                         _______ _______ _______ _____ _____    ______ ____
ROOT
ATOM      1  C   UNL     1       0.515  10.245  19.469  0.00  0.00    +0.000 A 
ATOM      2  C   UNL     1       0.713   9.187  20.359  0.00  0.00    +0.000 A 
ATOM      3  C   UNL     1       1.571   8.142  20.024  0.00  0.00    +0.000 A 
ATOM      4  C   UNL     1       2.210   8.129  18.783  0.00  0.00    +0.000 A 
ATOM      5  C   UNL     1       2.057   9.213  17.916  0.00  0.00    +0.000 A 
ATOM      6  C   UNL     1       1.206  10.270  18.254  0.00  0.00    +0.000 A 
ENDROOT
BRANCH   1  16
ATOM      7  O   UNL     1      -1.777   9.566  17.843  0.00  0.00    +0.000 OA
ATOM      8  C   UNL     1      -2.316  10.541  18.352  0.00  0.00    +0.000 C 
ATOM      9  N   UNL     1      -3.611  10.854  18.029  0.00  0.00    +0.000 N 
ATOM     10  C   UNL     1      -4.320  11.928  18.467  0.00  0.00    +0.000 C 
ATOM     11  S   UNL     1      -5.885  12.191  17.978  0.00  0.00    +0.000 S 
ATOM     12  N   UNL     1      -3.694  12.782  19.321  0.00  0.00    +0.000 N 
ATOM     13  C   UNL     1      -2.419  12.657  19.802  0.00  0.00    +0.000 C 
ATOM     14  O   UNL     1      -1.948  13.496  20.561  0.00  0.00    +0.000 OA
ATOM     15  C   UNL     1      -1.676  11.459  19.329  0.00  0.00    +0.000 C 
ATOM     16  C   UNL     1      -0.435  11.296  19.826  0.00  0.00    +0.000 C 
ATOM     17  H   UNL     1      -4.057  10.223  17.375  0.00  0.00    +0.000 HD
ATOM     18  H   UNL     1      -4.205  13.595  19.641  0.00  0.00    +0.000 HD
ENDBRANCH   1  16
BRANCH   4  19
ATOM     19  O   UNL     1       2.992   7.101  18.327  0.00  0.00    +0.000 OA
BRANCH  19  20
ATOM     20  C   UNL     1       3.404   6.179  19.340  0.00  0.00    +0.000 C 
BRANCH  20  21
ATOM     21  C   UNL     1       2.481   4.990  19.352  0.00  0.00    +0.000 A 
ATOM     22  C   UNL     1       1.910   4.542  20.550  0.00  0.00    +0.000 A 
ATOM     23  C   UNL     1       1.048   3.443  20.551  0.00  0.00    +0.000 A 
ATOM     24  C   UNL     1       0.752   2.787  19.357  0.00  0.00    +0.000 A 
ATOM     25  C   UNL     1       1.313   3.227  18.159  0.00  0.00    +0.000 A 
ATOM     26  C   UNL     1       2.174   4.325  18.156  0.00  0.00    +0.000 A 
ENDBRANCH  20  21
ENDBRANCH  19  20
ENDBRANCH   4  19
TORSDOF 4
ENDMDL
MODEL 5
REMARK VINA RESULT:      -7.4      4.105      5.612
REMARK  Name = 
REMARK  4 active torsions:
REMARK  status: ('A' for Active; 'I' for Inactive)
REMARK    1  A    between atoms: C_10  and  C_11
REMARK    2  A    between atoms: C_14  and  O_15
REMARK    3  A    between atoms: O_15  and  C_16
REMARK    4  A    between atoms: C_16  and  C_17
REMARK                            x       y       z     vdW  Elec       q    Type
REMARK                         _______ _______ _______ _____ _____    ______ ____
ROOT
ATOM      1  C   UNL     1       0.585   9.615  19.023  0.00  0.00    +0.000 A 
ATOM      2  C   UNL     1       1.029   8.927  20.154  0.00  0.00    +0.000 A 
ATOM      3  C   UNL     1       2.007   7.942  20.035  0.00  0.00    +0.000 A 
ATOM      4  C   UNL     1       2.523   7.613  18.780  0.00  0.00    +0.000 A 
ATOM      5  C   UNL     1       2.121   8.338  17.657  0.00  0.00    +0.000 A 
ATOM      6  C   UNL     1       1.148   9.336  17.774  0.00  0.00    +0.000 A 
ENDROOT
BRANCH   1  16
ATOM      7  O   UNL     1       2.037  12.108  18.846  0.00  0.00    +0.000 OA
ATOM      8  C   UNL     1       0.947  12.651  18.986  0.00  0.00    +0.000 C 
ATOM      9  N   UNL     1       0.856  14.018  18.967  0.00  0.00    +0.000 N 
ATOM     10  C   UNL     1      -0.267  14.759  19.162  0.00  0.00    +0.000 C 
ATOM     11  S   UNL     1      -0.226  16.419  19.125  0.00  0.00    +0.000 S 
ATOM     12  N   UNL     1      -1.426  14.086  19.393  0.00  0.00    +0.000 N 
ATOM     13  C   UNL     1      -1.580  12.727  19.429  0.00  0.00    +0.000 C 
ATOM     14  O   UNL     1      -2.674  12.224  19.659  0.00  0.00    +0.000 OA
ATOM     15  C   UNL     1      -0.342  11.940  19.185  0.00  0.00    +0.000 C 
ATOM     16  C   UNL     1      -0.482  10.601  19.173  0.00  0.00    +0.000 C 
ATOM     17  H   UNL     1       1.729  14.508  18.817  0.00  0.00    +0.000 HD
ATOM     18  H   UNL     1      -2.266  14.626  19.557  0.00  0.00    +0.000 HD
ENDBRANCH   1  16
BRANCH   4  19
ATOM     19  O   UNL     1       3.412   6.596  18.552  0.00  0.00    +0.000 OA
BRANCH  19  20
ATOM     20  C   UNL     1       3.546   5.676  19.639  0.00  0.00    +0.000 C 
BRANCH  20  21
ATOM     21  C   UNL     1       2.584   4.531  19.460  0.00  0.00    +0.000 A 
ATOM     22  C   UNL     1       1.571   4.297  20.397  0.00  0.00    +0.000 A 
ATOM     23  C   UNL     1       0.678   3.238  20.219  0.00  0.00    +0.000 A 
ATOM     24  C   UNL     1       0.791   2.409  19.104  0.00  0.00    +0.000 A 
ATOM     25  C   UNL     1       1.795   2.636  18.163  0.00  0.00    +0.000 A 
ATOM     26  C   UNL     1       2.688   3.694  18.339  0.00  0.00    +0.000 A 
ENDBRANCH  20  21
ENDBRANCH  19  20
ENDBRANCH   4  19
TORSDOF 4
ENDMDL
MODEL 6
REMARK VINA RESULT:      -7.4      4.076      5.732
REMARK  Name = 
REMARK  4 active torsions:
REMARK  status: ('A' for Active; 'I' for Inactive)
REMARK    1  A    between atoms: C_10  and  C_11
REMARK    2  A    between atoms: C_14  and  O_15
REMARK    3  A    between atoms: O_15  and  C_16
REMARK    4  A    between atoms: C_16  and  C_17
REMARK                            x       y       z     vdW  Elec       q    Type
REMARK                         _______ _______ _______ _____ _____    ______ ____
ROOT
ATOM      1  C   UNL     1       0.360   9.883  19.226  0.00  0.00    +0.000 A 
ATOM      2  C   UNL     1       0.858   9.191  20.332  0.00  0.00    +0.000 A 
ATOM      3  C   UNL     1       1.822   8.200  20.161  0.00  0.00    +0.000 A 
ATOM      4  C   UNL     1       2.269   7.869  18.881  0.00  0.00    +0.000 A 
ATOM      5  C   UNL     1       1.814   8.598  17.781  0.00  0.00    +0.000 A 
ATOM      6  C   UNL     1       0.855   9.601  17.949  0.00  0.00    +0.000 A 
ENDROOT
BRANCH   1  16
ATOM      7  O   UNL     1       1.862  12.351  19.285  0.00  0.00    +0.000 OA
ATOM      8  C   UNL     1       0.780  12.903  19.445  0.00  0.00    +0.000 C 
ATOM      9  N   UNL     1       0.715  14.270  19.535  0.00  0.00    +0.000 N 
ATOM     10  C   UNL     1      -0.398  15.016  19.764  0.00  0.00    +0.000 C 
ATOM     11  S   UNL     1      -0.325  16.672  19.864  0.00  0.00    +0.000 S 
ATOM     12  N   UNL     1      -1.575  14.350  19.914  0.00  0.00    +0.000 N 
ATOM     13  C   UNL     1      -1.755  12.996  19.836  0.00  0.00    +0.000 C 
ATOM     14  O   UNL     1      -2.863  12.499  20.000  0.00  0.00    +0.000 OA
ATOM     15  C   UNL     1      -0.527  12.206  19.557  0.00  0.00    +0.000 C 
ATOM     16  C   UNL     1      -0.692  10.876  19.432  0.00  0.00    +0.000 C 
ATOM     17  H   UNL     1       1.601  14.751  19.445  0.00  0.00    +0.000 HD
ATOM     18  H   UNL     1      -2.408  14.892  20.103  0.00  0.00    +0.000 HD
ENDBRANCH   1  16
BRANCH   4  19
ATOM     19  O   UNL     1       3.139   6.847  18.606  0.00  0.00    +0.000 OA
BRANCH  19  20
ATOM     20  C   UNL     1       3.288   5.898  19.667  0.00  0.00    +0.000 C 
BRANCH  20  21
ATOM     21  C   UNL     1       2.479   4.665  19.364  0.00  0.00    +0.000 A 
ATOM     22  C   UNL     1       2.693   3.942  18.184  0.00  0.00    +0.000 A 
ATOM     23  C   UNL     1       1.943   2.795  17.915  0.00  0.00    +0.000 A 
ATOM     24  C   UNL     1       0.977   2.363  18.824  0.00  0.00    +0.000 A 
ATOM     25  C   UNL     1       0.759   3.074  20.003  0.00  0.00    +0.000 A 
ATOM     26  C   UNL     1       1.507   4.220  20.273  0.00  0.00    +0.000 A 
ENDBRANCH  20  21
ENDBRANCH  19  20
ENDBRANCH   4  19
TORSDOF 4
ENDMDL
MODEL 7
REMARK VINA RESULT:      -7.3      4.033      5.883
REMARK  Name = 
REMARK  4 active torsions:
REMARK  status: ('A' for Active; 'I' for Inactive)
REMARK    1  A    between atoms: C_10  and  C_11
REMARK    2  A    between atoms: C_14  and  O_15
REMARK    3  A    between atoms: O_15  and  C_16
REMARK    4  A    between atoms: C_16  and  C_17
REMARK                            x       y       z     vdW  Elec       q    Type
REMARK                         _______ _______ _______ _____ _____    ______ ____
ROOT
ATOM      1  C   UNL     1       0.212   9.777  19.301  0.00  0.00    +0.000 A 
ATOM      2  C   UNL     1       0.665   9.431  18.026  0.00  0.00    +0.000 A 
ATOM      3  C   UNL     1       1.658   8.467  17.873  0.00  0.00    +0.000 A 
ATOM      4  C   UNL     1       2.230   7.865  18.995  0.00  0.00    +0.000 A 
ATOM      5  C   UNL     1       1.739   8.167  20.266  0.00  0.00    +0.000 A 
ATOM      6  C   UNL     1       0.735   9.127  20.424  0.00  0.00    +0.000 A 
ENDROOT
BRANCH   1  16
ATOM      7  O   UNL     1       1.828  12.166  19.117  0.00  0.00    +0.000 OA
ATOM      8  C   UNL     1       0.775  12.781  19.240  0.00  0.00    +0.000 C 
ATOM      9  N   UNL     1       0.774  14.152  19.206  0.00  0.00    +0.000 N 
ATOM     10  C   UNL     1      -0.299  14.967  19.382  0.00  0.00    +0.000 C 
ATOM     11  S   UNL     1      -0.148  16.621  19.330  0.00  0.00    +0.000 S 
ATOM     12  N   UNL     1      -1.502  14.375  19.607  0.00  0.00    +0.000 N 
ATOM     13  C   UNL     1      -1.746  13.029  19.655  0.00  0.00    +0.000 C 
ATOM     14  O   UNL     1      -2.873  12.602  19.878  0.00  0.00    +0.000 OA
ATOM     15  C   UNL     1      -0.561  12.159  19.432  0.00  0.00    +0.000 C 
ATOM     16  C   UNL     1      -0.789  10.833  19.431  0.00  0.00    +0.000 C 
ATOM     17  H   UNL     1       1.680  14.581  19.061  0.00  0.00    +0.000 HD
ATOM     18  H   UNL     1      -2.306  14.970  19.757  0.00  0.00    +0.000 HD
ENDBRANCH   1  16
BRANCH   4  19
ATOM     19  O   UNL     1       3.276   6.981  18.949  0.00  0.00    +0.000 OA
BRANCH  19  20
ATOM     20  C   UNL     1       3.042   5.834  18.127  0.00  0.00    +0.000 C 
BRANCH  20  21
ATOM     21  C   UNL     1       2.366   4.758  18.935  0.00  0.00    +0.000 A 
ATOM     22  C   UNL     1       1.501   3.842  18.324  0.00  0.00    +0.000 A 
ATOM     23  C   UNL     1       0.885   2.842  19.079  0.00  0.00    +0.000 A 
ATOM     24  C   UNL     1       1.130   2.752  20.450  0.00  0.00    +0.000 A 
ATOM     25  C   UNL     1       1.991   3.657  21.067  0.00  0.00    +0.000 A 
ATOM     26  C   UNL     1       2.608   4.656  20.313  0.00  0.00    +0.000 A 
ENDBRANCH  20  21
ENDBRANCH  19  20
ENDBRANCH   4  19
TORSDOF 4
ENDMDL
MODEL 8
REMARK VINA RESULT:      -7.3      2.098      2.958
REMARK  Name = 
REMARK  4 active torsions:
REMARK  status: ('A' for Active; 'I' for Inactive)
REMARK    1  A    between atoms: C_10  and  C_11
REMARK    2  A    between atoms: C_14  and  O_15
REMARK    3  A    between atoms: O_15  and  C_16
REMARK    4  A    between atoms: C_16  and  C_17
REMARK                            x       y       z     vdW  Elec       q    Type
REMARK                         _______ _______ _______ _____ _____    ______ ____
ROOT
ATOM      1  C   UNL     1       4.751   4.371  17.993  0.00  0.00    +0.000 A 
ATOM      2  C   UNL     1       4.233   4.030  16.741  0.00  0.00    +0.000 A 
ATOM      3  C   UNL     1       5.065   3.995  15.625  0.00  0.00    +0.000 A 
ATOM      4  C   UNL     1       6.415   4.333  15.745  0.00  0.00    +0.000 A 
ATOM      5  C   UNL     1       6.945   4.618  17.004  0.00  0.00    +0.000 A 
ATOM      6  C   UNL     1       6.115   4.644  18.129  0.00  0.00    +0.000 A 
ENDROOT
BRANCH   1  16
ATOM      7  O   UNL     1       3.791   7.091  17.799  0.00  0.00    +0.000 OA
ATOM      8  C   UNL     1       3.121   6.832  18.791  0.00  0.00    +0.000 C 
ATOM      9  N   UNL     1       2.278   7.778  19.314  0.00  0.00    +0.000 N 
ATOM     10  C   UNL     1       1.517   7.656  20.434  0.00  0.00    +0.000 C 
ATOM     11  S   UNL     1       0.547   8.897  20.962  0.00  0.00    +0.000 S 
ATOM     12  N   UNL     1       1.584   6.477  21.109  0.00  0.00    +0.000 N 
ATOM     13  C   UNL     1       2.332   5.385  20.759  0.00  0.00    +0.000 C 
ATOM     14  O   UNL     1       2.327   4.373  21.450  0.00  0.00    +0.000 OA
ATOM     15  C   UNL     1       3.133   5.535  19.516  0.00  0.00    +0.000 C 
ATOM     16  C   UNL     1       3.840   4.456  19.132  0.00  0.00    +0.000 C 
ATOM     17  H   UNL     1       2.254   8.658  18.816  0.00  0.00    +0.000 HD
ATOM     18  H   UNL     1       1.036   6.380  21.954  0.00  0.00    +0.000 HD
ENDBRANCH   1  16
BRANCH   4  19
ATOM     19  O   UNL     1       7.286   4.421  14.692  0.00  0.00    +0.000 OA
BRANCH  19  20
ATOM     20  C   UNL     1       6.692   4.871  13.471  0.00  0.00    +0.000 C 
BRANCH  20  21
ATOM     21  C   UNL     1       6.497   3.704  12.539  0.00  0.00    +0.000 A 
ATOM     22  C   UNL     1       7.600   3.046  11.980  0.00  0.00    +0.000 A 
ATOM     23  C   UNL     1       7.411   1.960  11.122  0.00  0.00    +0.000 A 
ATOM     24  C   UNL     1       6.120   1.525  10.820  0.00  0.00    +0.000 A 
ATOM     25  C   UNL     1       5.017   2.172  11.375  0.00  0.00    +0.000 A 
ATOM     26  C   UNL     1       5.204   3.257  12.231  0.00  0.00    +0.000 A 
ENDBRANCH  20  21
ENDBRANCH  19  20
ENDBRANCH   4  19
TORSDOF 4
ENDMDL
MODEL 9
REMARK VINA RESULT:      -7.3      4.209      5.913
REMARK  Name = 
REMARK  4 active torsions:
REMARK  status: ('A' for Active; 'I' for Inactive)
REMARK    1  A    between atoms: C_10  and  C_11
REMARK    2  A    between atoms: C_14  and  O_15
REMARK    3  A    between atoms: O_15  and  C_16
REMARK    4  A    between atoms: C_16  and  C_17
REMARK                            x       y       z     vdW  Elec       q    Type
REMARK                         _______ _______ _______ _____ _____    ______ ____
ROOT
ATOM      1  C   UNL     1       0.383   9.820  19.223  0.00  0.00    +0.000 A 
ATOM      2  C   UNL     1       0.826   9.138  20.357  0.00  0.00    +0.000 A 
ATOM      3  C   UNL     1       1.780   8.130  20.239  0.00  0.00    +0.000 A 
ATOM      4  C   UNL     1       2.273   7.773  18.983  0.00  0.00    +0.000 A 
ATOM      5  C   UNL     1       1.873   8.493  17.855  0.00  0.00    +0.000 A 
ATOM      6  C   UNL     1       0.924   9.513  17.970  0.00  0.00    +0.000 A 
ENDROOT
BRANCH   1  16
ATOM      7  O   UNL     1       1.912  12.273  19.214  0.00  0.00    +0.000 OA
ATOM      8  C   UNL     1       0.834  12.842  19.334  0.00  0.00    +0.000 C 
ATOM      9  N   UNL     1       0.783  14.212  19.371  0.00  0.00    +0.000 N 
ATOM     10  C   UNL     1      -0.325  14.978  19.552  0.00  0.00    +0.000 C 
ATOM     11  S   UNL     1      -0.235  16.636  19.590  0.00  0.00    +0.000 S 
ATOM     12  N   UNL     1      -1.511  14.332  19.707  0.00  0.00    +0.000 N 
ATOM     13  C   UNL     1      -1.706  12.977  19.677  0.00  0.00    +0.000 C 
ATOM     14  O   UNL     1      -2.823  12.499  19.841  0.00  0.00    +0.000 OA
ATOM     15  C   UNL     1      -0.483  12.164  19.449  0.00  0.00    +0.000 C 
ATOM     16  C   UNL     1      -0.661  10.832  19.373  0.00  0.00    +0.000 C 
ATOM     17  H   UNL     1       1.676  14.680  19.277  0.00  0.00    +0.000 HD
ATOM     18  H   UNL     1      -2.341  14.890  19.861  0.00  0.00    +0.000 HD
ENDBRANCH   1  16
BRANCH   4  19
ATOM     19  O   UNL     1       3.137   6.734  18.757  0.00  0.00    +0.000 OA
BRANCH  19  20
ATOM     20  C   UNL     1       2.517   5.555  18.238  0.00  0.00    +0.000 C 
BRANCH  20  21
ATOM     21  C   UNL     1       2.465   4.494  19.306  0.00  0.00    +0.000 A 
ATOM     22  C   UNL     1       3.539   3.614  19.490  0.00  0.00    +0.000 A 
ATOM     23  C   UNL     1       3.486   2.638  20.488  0.00  0.00    +0.000 A 
ATOM     24  C   UNL     1       2.362   2.537  21.307  0.00  0.00    +0.000 A 
ATOM     25  C   UNL     1       1.290   3.411  21.133  0.00  0.00    +0.000 A 
ATOM     26  C   UNL     1       1.341   4.386  20.137  0.00  0.00    +0.000 A 
ENDBRANCH  20  21
ENDBRANCH  19  20
ENDBRANCH   4  19
TORSDOF 4
ENDMDL
