MODEL 1
REMARK VINA RESULT:      -7.9      0.000      0.000
REMARK  Name = 
REMARK  2 active torsions:
REMARK  status: ('A' for Active; 'I' for Inactive)
REMARK    1  A    between atoms: C_8  and  O_9
REMARK    2  A    between atoms: O_9  and  C_10
REMARK                            x       y       z     vdW  Elec       q    Type
REMARK                         _______ _______ _______ _____ _____    ______ ____
ROOT
ATOM      1  O   UNL     1       8.468   4.114  17.857  0.00  0.00    +0.000 OA
ATOM      2  C   UNL     1       7.422   4.739  17.748  0.00  0.00    +0.000 A 
ATOM      3  C   UNL     1       7.210   5.658  16.614  0.00  0.00    +0.000 A 
ATOM      4  C   UNL     1       6.097   6.387  16.480  0.00  0.00    +0.000 A 
ATOM      5  C   UNL     1       5.049   6.286  17.485  0.00  0.00    +0.000 A 
ATOM      6  C   UNL     1       3.882   7.046  17.425  0.00  0.00    +0.000 A 
ATOM      7  C   UNL     1       2.909   6.914  18.428  0.00  0.00    +0.000 A 
ATOM      8  C   UNL     1       3.092   6.032  19.501  0.00  0.00    +0.000 A 
ATOM      9  C   UNL     1       4.250   5.256  19.549  0.00  0.00    +0.000 A 
ATOM     10  C   UNL     1       5.214   5.402  18.548  0.00  0.00    +0.000 A 
ATOM     11  O   UNL     1       6.385   4.623  18.664  0.00  0.00    +0.000 OA
ENDROOT
BRANCH   8  12
ATOM     12  O   UNL     1       2.073   6.010  20.416  0.00  0.00    +0.000 OA
BRANCH  12  13
ATOM     13  C   UNL     1       1.346   4.792  20.565  0.00  0.00    +0.000 C 
ATOM     14  C   UNL     1       1.289   3.983  19.272  0.00  0.00    +0.000 C 
ATOM     15  C   UNL     1       0.984   2.569  19.736  0.00  0.00    +0.000 C 
ATOM     16  C   UNL     1       1.629   2.438  21.114  0.00  0.00    +0.000 C 
ATOM     17  C   UNL     1       2.087   3.842  21.509  0.00  0.00    +0.000 C 
ENDBRANCH  12  13
ENDBRANCH   8  12
TORSDOF 2
ENDMDL
MODEL 2
REMARK VINA RESULT:      -7.7      2.074      6.121
REMARK  Name = 
REMARK  2 active torsions:
REMARK  status: ('A' for Active; 'I' for Inactive)
REMARK    1  A    between atoms: C_8  and  O_9
REMARK    2  A    between atoms: O_9  and  C_10
REMARK                            x       y       z     vdW  Elec       q    Type
REMARK                         _______ _______ _______ _____ _____    ______ ____
ROOT
ATOM      1  O   UNL     1       1.315   2.334  22.285  0.00  0.00    +0.000 OA
ATOM      2  C   UNL     1       1.637   2.640  21.145  0.00  0.00    +0.000 A 
ATOM      3  C   UNL     1       0.708   2.430  20.019  0.00  0.00    +0.000 A 
ATOM      4  C   UNL     1       1.037   2.717  18.755  0.00  0.00    +0.000 A 
ATOM      5  C   UNL     1       2.359   3.251  18.462  0.00  0.00    +0.000 A 
ATOM      6  C   UNL     1       2.778   3.534  17.163  0.00  0.00    +0.000 A 
ATOM      7  C   UNL     1       4.068   4.040  16.938  0.00  0.00    +0.000 A 
ATOM      8  C   UNL     1       4.953   4.259  18.002  0.00  0.00    +0.000 A 
ATOM      9  C   UNL     1       4.525   3.996  19.303  0.00  0.00    +0.000 A 
ATOM     10  C   UNL     1       3.241   3.487  19.512  0.00  0.00    +0.000 A 
ATOM     11  O   UNL     1       2.872   3.200  20.843  0.00  0.00    +0.000 OA
ENDROOT
BRANCH   8  12
ATOM     12  O   UNL     1       6.184   4.741  17.644  0.00  0.00    +0.000 OA
BRANCH  12  13
ATOM     13  C   UNL     1       6.534   6.051  18.086  0.00  0.00    +0.000 C 
ATOM     14  C   UNL     1       7.871   6.082  18.822  0.00  0.00    +0.000 C 
ATOM     15  C   UNL     1       8.310   7.533  18.728  0.00  0.00    +0.000 C 
ATOM     16  C   UNL     1       7.743   8.051  17.407  0.00  0.00    +0.000 C 
ATOM     17  C   UNL     1       6.803   6.963  16.887  0.00  0.00    +0.000 C 
ENDBRANCH  12  13
ENDBRANCH   8  12
TORSDOF 2
ENDMDL
MODEL 3
REMARK VINA RESULT:      -7.6      1.057      1.284
REMARK  Name = 
REMARK  2 active torsions:
REMARK  status: ('A' for Active; 'I' for Inactive)
REMARK    1  A    between atoms: C_8  and  O_9
REMARK    2  A    between atoms: O_9  and  C_10
REMARK                            x       y       z     vdW  Elec       q    Type
REMARK                         _______ _______ _______ _____ _____    ______ ____
ROOT
ATOM      1  O   UNL     1       8.494   4.161  17.798  0.00  0.00    +0.000 OA
ATOM      2  C   UNL     1       7.456   4.801  17.701  0.00  0.00    +0.000 A 
ATOM      3  C   UNL     1       7.488   6.241  17.384  0.00  0.00    +0.000 A 
ATOM      4  C   UNL     1       6.378   6.984  17.306  0.00  0.00    +0.000 A 
ATOM      5  C   UNL     1       5.084   6.364  17.547  0.00  0.00    +0.000 A 
ATOM      6  C   UNL     1       3.893   7.089  17.520  0.00  0.00    +0.000 A 
ATOM      7  C   UNL     1       2.673   6.440  17.768  0.00  0.00    +0.000 A 
ATOM      8  C   UNL     1       2.629   5.070  18.054  0.00  0.00    +0.000 A 
ATOM      9  C   UNL     1       3.819   4.341  18.060  0.00  0.00    +0.000 A 
ATOM     10  C   UNL     1       5.026   5.000  17.818  0.00  0.00    +0.000 A 
ATOM     11  O   UNL     1       6.205   4.225  17.874  0.00  0.00    +0.000 OA
ENDROOT
BRANCH   8  12
ATOM     12  O   UNL     1       1.378   4.565  18.291  0.00  0.00    +0.000 OA
BRANCH  12  13
ATOM     13  C   UNL     1       1.111   4.046  19.592  0.00  0.00    +0.000 C 
ATOM     14  C   UNL     1       1.442   2.560  19.708  0.00  0.00    +0.000 C 
ATOM     15  C   UNL     1       1.612   2.337  21.201  0.00  0.00    +0.000 C 
ATOM     16  C   UNL     1       2.151   3.654  21.756  0.00  0.00    +0.000 C 
ATOM     17  C   UNL     1       2.059   4.671  20.619  0.00  0.00    +0.000 C 
ENDBRANCH  12  13
ENDBRANCH   8  12
TORSDOF 2
ENDMDL
MODEL 4
REMARK VINA RESULT:      -7.3      1.970      5.770
REMARK  Name = 
REMARK  2 active torsions:
REMARK  status: ('A' for Active; 'I' for Inactive)
REMARK    1  A    between atoms: C_8  and  O_9
REMARK    2  A    between atoms: O_9  and  C_10
REMARK                            x       y       z     vdW  Elec       q    Type
REMARK                         _______ _______ _______ _____ _____    ______ ____
ROOT
ATOM      1  O   UNL     1       2.003   2.597  22.337  0.00  0.00    +0.000 OA
ATOM      2  C   UNL     1       2.158   2.990  21.189  0.00  0.00    +0.000 A 
ATOM      3  C   UNL     1       0.999   3.383  20.366  0.00  0.00    +0.000 A 
ATOM      4  C   UNL     1       1.124   3.782  19.096  0.00  0.00    +0.000 A 
ATOM      5  C   UNL     1       2.445   3.829  18.486  0.00  0.00    +0.000 A 
ATOM      6  C   UNL     1       2.640   4.199  17.156  0.00  0.00    +0.000 A 
ATOM      7  C   UNL     1       3.936   4.218  16.618  0.00  0.00    +0.000 A 
ATOM      8  C   UNL     1       5.046   3.864  17.396  0.00  0.00    +0.000 A 
ATOM      9  C   UNL     1       4.853   3.515  18.732  0.00  0.00    +0.000 A 
ATOM     10  C   UNL     1       3.557   3.493  19.253  0.00  0.00    +0.000 A 
ATOM     11  O   UNL     1       3.411   3.095  20.599  0.00  0.00    +0.000 OA
ENDROOT
BRANCH   8  12
ATOM     12  O   UNL     1       6.251   3.912  16.745  0.00  0.00    +0.000 OA
BRANCH  12  13
ATOM     13  C   UNL     1       7.021   5.106  16.870  0.00  0.00    +0.000 C 
ATOM     14  C   UNL     1       6.155   6.364  16.866  0.00  0.00    +0.000 C 
ATOM     15  C   UNL     1       7.031   7.416  17.524  0.00  0.00    +0.000 C 
ATOM     16  C   UNL     1       7.907   6.659  18.521  0.00  0.00    +0.000 C 
ATOM     17  C   UNL     1       7.680   5.171  18.250  0.00  0.00    +0.000 C 
ENDBRANCH  12  13
ENDBRANCH   8  12
TORSDOF 2
ENDMDL
MODEL 5
REMARK VINA RESULT:      -7.2      2.742      6.194
REMARK  Name = 
REMARK  2 active torsions:
REMARK  status: ('A' for Active; 'I' for Inactive)
REMARK    1  A    between atoms: C_8  and  O_9
REMARK    2  A    between atoms: O_9  and  C_10
REMARK                            x       y       z     vdW  Elec       q    Type
REMARK                         _______ _______ _______ _____ _____    ______ ____
ROOT
ATOM      1  O   UNL     1       2.183   2.137  19.462  0.00  0.00    +0.000 OA
ATOM      2  C   UNL     1       2.647   3.169  18.995  0.00  0.00    +0.000 A 
ATOM      3  C   UNL     1       1.980   4.464  19.225  0.00  0.00    +0.000 A 
ATOM      4  C   UNL     1       2.435   5.608  18.700  0.00  0.00    +0.000 A 
ATOM      5  C   UNL     1       3.625   5.589  17.864  0.00  0.00    +0.000 A 
ATOM      6  C   UNL     1       4.128   6.738  17.256  0.00  0.00    +0.000 A 
ATOM      7  C   UNL     1       5.276   6.660  16.452  0.00  0.00    +0.000 A 
ATOM      8  C   UNL     1       5.927   5.437  16.240  0.00  0.00    +0.000 A 
ATOM      9  C   UNL     1       5.436   4.291  16.866  0.00  0.00    +0.000 A 
ATOM     10  C   UNL     1       4.289   4.383  17.658  0.00  0.00    +0.000 A 
ATOM     11  O   UNL     1       3.810   3.188  18.237  0.00  0.00    +0.000 OA
ENDROOT
BRANCH   8  12
ATOM     12  O   UNL     1       7.026   5.498  15.425  0.00  0.00    +0.000 OA
BRANCH  12  13
ATOM     13  C   UNL     1       7.129   4.530  14.383  0.00  0.00    +0.000 C 
ATOM     14  C   UNL     1       5.764   4.070  13.875  0.00  0.00    +0.000 C 
ATOM     15  C   UNL     1       6.056   3.509  12.493  0.00  0.00    +0.000 C 
ATOM     16  C   UNL     1       7.238   4.315  11.961  0.00  0.00    +0.000 C 
ATOM     17  C   UNL     1       7.745   5.159  13.131  0.00  0.00    +0.000 C 
ENDBRANCH  12  13
ENDBRANCH   8  12
TORSDOF 2
ENDMDL
MODEL 6
REMARK VINA RESULT:      -7.2      1.804      2.153
REMARK  Name = 
REMARK  2 active torsions:
REMARK  status: ('A' for Active; 'I' for Inactive)
REMARK    1  A    between atoms: C_8  and  O_9
REMARK    2  A    between atoms: O_9  and  C_10
REMARK                            x       y       z     vdW  Elec       q    Type
REMARK                         _______ _______ _______ _____ _____    ______ ____
ROOT
ATOM      1  O   UNL     1       7.719   4.752  15.277  0.00  0.00    +0.000 OA
ATOM      2  C   UNL     1       6.717   5.127  15.871  0.00  0.00    +0.000 A 
ATOM      3  C   UNL     1       6.647   6.483  16.445  0.00  0.00    +0.000 A 
ATOM      4  C   UNL     1       5.585   6.917  17.133  0.00  0.00    +0.000 A 
ATOM      5  C   UNL     1       4.451   6.027  17.337  0.00  0.00    +0.000 A 
ATOM      6  C   UNL     1       3.331   6.403  18.076  0.00  0.00    +0.000 A 
ATOM      7  C   UNL     1       2.270   5.500  18.248  0.00  0.00    +0.000 A 
ATOM      8  C   UNL     1       2.319   4.215  17.693  0.00  0.00    +0.000 A 
ATOM      9  C   UNL     1       3.431   3.847  16.935  0.00  0.00    +0.000 A 
ATOM     10  C   UNL     1       4.482   4.752  16.778  0.00  0.00    +0.000 A 
ATOM     11  O   UNL     1       5.601   4.317  16.035  0.00  0.00    +0.000 OA
ENDROOT
BRANCH   8  12
ATOM     12  O   UNL     1       1.226   3.430  17.947  0.00  0.00    +0.000 OA
BRANCH  12  13
ATOM     13  C   UNL     1       1.196   2.719  19.182  0.00  0.00    +0.000 C 
ATOM     14  C   UNL     1       2.589   2.308  19.653  0.00  0.00    +0.000 C 
ATOM     15  C   UNL     1       2.419   2.076  21.146  0.00  0.00    +0.000 C 
ATOM     16  C   UNL     1       1.323   3.042  21.591  0.00  0.00    +0.000 C 
ATOM     17  C   UNL     1       0.729   3.637  20.314  0.00  0.00    +0.000 C 
ENDBRANCH  12  13
ENDBRANCH   8  12
TORSDOF 2
ENDMDL
MODEL 7
REMARK VINA RESULT:      -7.2      1.858      2.342
REMARK  Name = 
REMARK  2 active torsions:
REMARK  status: ('A' for Active; 'I' for Inactive)
REMARK    1  A    between atoms: C_8  and  O_9
REMARK    2  A    between atoms: O_9  and  C_10
REMARK                            x       y       z     vdW  Elec       q    Type
REMARK                         _______ _______ _______ _____ _____    ______ ____
ROOT
ATOM      1  O   UNL     1       7.343   8.092  17.212  0.00  0.00    +0.000 OA
ATOM      2  C   UNL     1       6.711   7.046  17.153  0.00  0.00    +0.000 A 
ATOM      3  C   UNL     1       7.303   5.843  16.539  0.00  0.00    +0.000 A 
ATOM      4  C   UNL     1       6.631   4.693  16.422  0.00  0.00    +0.000 A 
ATOM      5  C   UNL     1       5.262   4.610  16.908  0.00  0.00    +0.000 A 
ATOM      6  C   UNL     1       4.494   3.453  16.783  0.00  0.00    +0.000 A 
ATOM      7  C   UNL     1       3.175   3.433  17.263  0.00  0.00    +0.000 A 
ATOM      8  C   UNL     1       2.608   4.565  17.864  0.00  0.00    +0.000 A 
ATOM      9  C   UNL     1       3.384   5.715  18.009  0.00  0.00    +0.000 A 
ATOM     10  C   UNL     1       4.693   5.723  17.520  0.00  0.00    +0.000 A 
ATOM     11  O   UNL     1       5.422   6.924  17.656  0.00  0.00    +0.000 OA
ENDROOT
BRANCH   8  12
ATOM     12  O   UNL     1       1.310   4.415  18.275  0.00  0.00    +0.000 OA
BRANCH  12  13
ATOM     13  C   UNL     1       1.086   4.073  19.641  0.00  0.00    +0.000 C 
ATOM     14  C   UNL     1       1.246   2.578  19.903  0.00  0.00    +0.000 C 
ATOM     15  C   UNL     1       1.505   2.492  21.398  0.00  0.00    +0.000 C 
ATOM     16  C   UNL     1       2.239   3.780  21.764  0.00  0.00    +0.000 C 
ATOM     17  C   UNL     1       2.180   4.676  20.527  0.00  0.00    +0.000 C 
ENDBRANCH  12  13
ENDBRANCH   8  12
TORSDOF 2
ENDMDL
MODEL 8
REMARK VINA RESULT:      -7.2      2.595      6.130
REMARK  Name = 
REMARK  2 active torsions:
REMARK  status: ('A' for Active; 'I' for Inactive)
REMARK    1  A    between atoms: C_8  and  O_9
REMARK    2  A    between atoms: O_9  and  C_10
REMARK                            x       y       z     vdW  Elec       q    Type
REMARK                         _______ _______ _______ _____ _____    ______ ____
ROOT
ATOM      1  O   UNL     1       2.975   2.906  20.848  0.00  0.00    +0.000 OA
ATOM      2  C   UNL     1       3.311   3.798  20.080  0.00  0.00    +0.000 A 
ATOM      3  C   UNL     1       2.589   5.084  20.060  0.00  0.00    +0.000 A 
ATOM      4  C   UNL     1       2.902   6.068  19.211  0.00  0.00    +0.000 A 
ATOM      5  C   UNL     1       3.987   5.877  18.260  0.00  0.00    +0.000 A 
ATOM      6  C   UNL     1       4.338   6.848  17.323  0.00  0.00    +0.000 A 
ATOM      7  C   UNL     1       5.389   6.605  16.424  0.00  0.00    +0.000 A 
ATOM      8  C   UNL     1       6.092   5.394  16.446  0.00  0.00    +0.000 A 
ATOM      9  C   UNL     1       5.755   4.432  17.398  0.00  0.00    +0.000 A 
ATOM     10  C   UNL     1       4.703   4.683  18.281  0.00  0.00    +0.000 A 
ATOM     11  O   UNL     1       4.376   3.662  19.199  0.00  0.00    +0.000 OA
ENDROOT
BRANCH   8  12
ATOM     12  O   UNL     1       7.084   5.281  15.507  0.00  0.00    +0.000 OA
BRANCH  12  13
ATOM     13  C   UNL     1       6.690   5.147  14.143  0.00  0.00    +0.000 C 
ATOM     14  C   UNL     1       7.880   5.145  13.188  0.00  0.00    +0.000 C 
ATOM     15  C   UNL     1       7.344   4.477  11.933  0.00  0.00    +0.000 C 
ATOM     16  C   UNL     1       6.288   3.484  12.413  0.00  0.00    +0.000 C 
ATOM     17  C   UNL     1       6.077   3.765  13.901  0.00  0.00    +0.000 C 
ENDBRANCH  12  13
ENDBRANCH   8  12
TORSDOF 2
ENDMDL
MODEL 9
REMARK VINA RESULT:      -7.1      3.114      6.558
REMARK  Name = 
REMARK  2 active torsions:
REMARK  status: ('A' for Active; 'I' for Inactive)
REMARK    1  A    between atoms: C_8  and  O_9
REMARK    2  A    between atoms: O_9  and  C_10
REMARK                            x       y       z     vdW  Elec       q    Type
REMARK                         _______ _______ _______ _____ _____    ______ ____
ROOT
ATOM      1  O   UNL     1       0.170   2.153  18.802  0.00  0.00    +0.000 OA
ATOM      2  C   UNL     1       1.327   2.552  18.795  0.00  0.00    +0.000 A 
ATOM      3  C   UNL     1       2.130   2.553  20.032  0.00  0.00    +0.000 A 
ATOM      4  C   UNL     1       3.384   3.015  20.073  0.00  0.00    +0.000 A 
ATOM      5  C   UNL     1       3.992   3.546  18.863  0.00  0.00    +0.000 A 
ATOM      6  C   UNL     1       5.281   4.078  18.846  0.00  0.00    +0.000 A 
ATOM      7  C   UNL     1       5.813   4.584  17.650  0.00  0.00    +0.000 A 
ATOM      8  C   UNL     1       5.066   4.572  16.465  0.00  0.00    +0.000 A 
ATOM      9  C   UNL     1       3.785   4.020  16.477  0.00  0.00    +0.000 A 
ATOM     10  C   UNL     1       3.265   3.526  17.675  0.00  0.00    +0.000 A 
ATOM     11  O   UNL     1       1.950   3.015  17.643  0.00  0.00    +0.000 OA
ENDROOT
BRANCH   8  12
ATOM     12  O   UNL     1       5.698   5.109  15.374  0.00  0.00    +0.000 OA
BRANCH  12  13
ATOM     13  C   UNL     1       6.232   4.204  14.410  0.00  0.00    +0.000 C 
ATOM     14  C   UNL     1       5.197   3.778  13.372  0.00  0.00    +0.000 C 
ATOM     15  C   UNL     1       6.031   3.300  12.195  0.00  0.00    +0.000 C 
ATOM     16  C   UNL     1       7.309   4.134  12.229  0.00  0.00    +0.000 C 
ATOM     17  C   UNL     1       7.285   4.906  13.548  0.00  0.00    +0.000 C 
ENDBRANCH  12  13
ENDBRANCH   8  12
TORSDOF 2
ENDMDL
