MODEL 1
REMARK VINA RESULT:      -6.4      0.000      0.000
REMARK  Name = 
REMARK  2 active torsions:
REMARK  status: ('A' for Active; 'I' for Inactive)
REMARK    1  A    between atoms: N_6  and  C_7
REMARK    2  A    between atoms: C_7  and  C_8
REMARK                            x       y       z     vdW  Elec       q    Type
REMARK                         _______ _______ _______ _____ _____    ______ ____
ROOT
ATOM      1  C   UNL     1       4.870   4.003  16.361  0.00  0.00    +0.000 C 
ENDROOT
BRANCH   1   7
ATOM      2  O   UNL     1       7.820   4.301  16.412  0.00  0.00    +0.000 OA
ATOM      3  C   UNL     1       7.051   5.229  16.585  0.00  0.00    +0.000 C 
ATOM      4  N   UNL     1       7.431   6.545  16.822  0.00  0.00    +0.000 N 
ATOM      5  C   UNL     1       6.295   7.327  17.226  0.00  0.00    +0.000 C 
ATOM      6  C   UNL     1       5.120   6.524  16.690  0.00  0.00    +0.000 C 
ATOM      7  N   UNL     1       5.662   5.188  16.615  0.00  0.00    +0.000 N 
ATOM      8  H   UNL     1       8.400   6.749  17.026  0.00  0.00    +0.000 HD
ENDBRANCH   1   7
BRANCH   1   9
ATOM      9  C   UNL     1       3.942   3.676  17.507  0.00  0.00    +0.000 A 
ATOM     10  C   UNL     1       2.555   3.630  17.301  0.00  0.00    +0.000 A 
ATOM     11  C   UNL     1       1.691   3.399  18.374  0.00  0.00    +0.000 A 
ATOM     12  C   UNL     1       2.209   3.223  19.655  0.00  0.00    +0.000 A 
ATOM     13 CL   UNL     1       1.143   2.985  20.985  0.00  0.00    +0.000 Cl
ATOM     14  C   UNL     1       3.586   3.252  19.873  0.00  0.00    +0.000 A 
ATOM     15  C   UNL     1       4.450   3.474  18.798  0.00  0.00    +0.000 A 
ENDBRANCH   1   9
TORSDOF 2
ENDMDL
MODEL 2
REMARK VINA RESULT:      -6.4      0.135      1.300
REMARK  Name = 
REMARK  2 active torsions:
REMARK  status: ('A' for Active; 'I' for Inactive)
REMARK    1  A    between atoms: N_6  and  C_7
REMARK    2  A    between atoms: C_7  and  C_8
REMARK                            x       y       z     vdW  Elec       q    Type
REMARK                         _______ _______ _______ _____ _____    ______ ____
ROOT
ATOM      1  C   UNL     1       4.829   4.056  16.462  0.00  0.00    +0.000 C 
ENDROOT
BRANCH   1   7
ATOM      2  O   UNL     1       7.782   4.291  16.328  0.00  0.00    +0.000 OA
ATOM      3  C   UNL     1       7.044   5.236  16.546  0.00  0.00    +0.000 C 
ATOM      4  N   UNL     1       7.466   6.544  16.756  0.00  0.00    +0.000 N 
ATOM      5  C   UNL     1       6.374   7.350  17.227  0.00  0.00    +0.000 C 
ATOM      6  C   UNL     1       5.152   6.572  16.767  0.00  0.00    +0.000 C 
ATOM      7  N   UNL     1       5.659   5.224  16.662  0.00  0.00    +0.000 N 
ATOM      8  H   UNL     1       8.450   6.728  16.898  0.00  0.00    +0.000 HD
ENDBRANCH   1   7
BRANCH   1   9
ATOM      9  C   UNL     1       3.909   3.797  17.632  0.00  0.00    +0.000 A 
ATOM     10  C   UNL     1       4.441   3.521  18.901  0.00  0.00    +0.000 A 
ATOM     11  C   UNL     1       3.594   3.209  19.966  0.00  0.00    +0.000 A 
ATOM     12  C   UNL     1       2.216   3.163  19.766  0.00  0.00    +0.000 A 
ATOM     13 CL   UNL     1       1.174   2.734  21.067  0.00  0.00    +0.000 Cl
ATOM     14  C   UNL     1       1.672   3.448  18.514  0.00  0.00    +0.000 A 
ATOM     15  C   UNL     1       2.519   3.768  17.451  0.00  0.00    +0.000 A 
ENDBRANCH   1   9
TORSDOF 2
ENDMDL
MODEL 3
REMARK VINA RESULT:      -6.2      1.599      2.030
REMARK  Name = 
REMARK  2 active torsions:
REMARK  status: ('A' for Active; 'I' for Inactive)
REMARK    1  A    between atoms: N_6  and  C_7
REMARK    2  A    between atoms: C_7  and  C_8
REMARK                            x       y       z     vdW  Elec       q    Type
REMARK                         _______ _______ _______ _____ _____    ______ ____
ROOT
ATOM      1  C   UNL     1       5.858   4.596  17.945  0.00  0.00    +0.000 C 
ENDROOT
BRANCH   1   7
ATOM      2  O   UNL     1       7.590   6.606  16.621  0.00  0.00    +0.000 OA
ATOM      3  C   UNL     1       7.115   5.646  16.041  0.00  0.00    +0.000 C 
ATOM      4  N   UNL     1       7.313   5.348  14.697  0.00  0.00    +0.000 N 
ATOM      5  C   UNL     1       6.421   4.302  14.282  0.00  0.00    +0.000 C 
ATOM      6  C   UNL     1       6.058   3.622  15.592  0.00  0.00    +0.000 C 
ATOM      7  N   UNL     1       6.269   4.672  16.560  0.00  0.00    +0.000 N 
ATOM      8  H   UNL     1       7.746   6.039  14.098  0.00  0.00    +0.000 HD
ENDBRANCH   1   7
BRANCH   1   9
ATOM      9  C   UNL     1       4.478   4.004  18.104  0.00  0.00    +0.000 A 
ATOM     10  C   UNL     1       3.362   4.659  17.561  0.00  0.00    +0.000 A 
ATOM     11  C   UNL     1       2.078   4.151  17.769  0.00  0.00    +0.000 A 
ATOM     12  C   UNL     1       1.903   2.995  18.528  0.00  0.00    +0.000 A 
ATOM     13 CL   UNL     1       0.318   2.395  18.824  0.00  0.00    +0.000 Cl
ATOM     14  C   UNL     1       3.004   2.327  19.062  0.00  0.00    +0.000 A 
ATOM     15  C   UNL     1       4.288   2.829  18.846  0.00  0.00    +0.000 A 
ENDBRANCH   1   9
TORSDOF 2
ENDMDL
MODEL 4
REMARK VINA RESULT:      -6.2      1.916      2.283
REMARK  Name = 
REMARK  2 active torsions:
REMARK  status: ('A' for Active; 'I' for Inactive)
REMARK    1  A    between atoms: N_6  and  C_7
REMARK    2  A    between atoms: C_7  and  C_8
REMARK                            x       y       z     vdW  Elec       q    Type
REMARK                         _______ _______ _______ _____ _____    ______ ____
ROOT
ATOM      1  C   UNL     1       5.321   5.620  16.799  0.00  0.00    +0.000 C 
ENDROOT
BRANCH   1   7
ATOM      2  O   UNL     1       7.590   7.528  16.734  0.00  0.00    +0.000 OA
ATOM      3  C   UNL     1       7.360   6.793  17.678  0.00  0.00    +0.000 C 
ATOM      4  N   UNL     1       8.108   6.742  18.849  0.00  0.00    +0.000 N 
ATOM      5  C   UNL     1       7.720   5.607  19.639  0.00  0.00    +0.000 C 
ATOM      6  C   UNL     1       6.323   5.295  19.126  0.00  0.00    +0.000 C 
ATOM      7  N   UNL     1       6.349   5.846  17.792  0.00  0.00    +0.000 N 
ATOM      8  H   UNL     1       8.998   7.221  18.886  0.00  0.00    +0.000 HD
ENDBRANCH   1   7
BRANCH   1   9
ATOM      9  C   UNL     1       4.163   4.817  17.342  0.00  0.00    +0.000 A 
ATOM     10  C   UNL     1       4.170   3.417  17.251  0.00  0.00    +0.000 A 
ATOM     11  C   UNL     1       3.069   2.677  17.687  0.00  0.00    +0.000 A 
ATOM     12  C   UNL     1       1.954   3.333  18.206  0.00  0.00    +0.000 A 
ATOM     13 CL   UNL     1       0.578   2.425  18.700  0.00  0.00    +0.000 Cl
ATOM     14  C   UNL     1       1.938   4.723  18.314  0.00  0.00    +0.000 A 
ATOM     15  C   UNL     1       3.043   5.462  17.887  0.00  0.00    +0.000 A 
ENDBRANCH   1   9
TORSDOF 2
ENDMDL
MODEL 5
REMARK VINA RESULT:      -6.2      3.752      5.462
REMARK  Name = 
REMARK  2 active torsions:
REMARK  status: ('A' for Active; 'I' for Inactive)
REMARK    1  A    between atoms: N_6  and  C_7
REMARK    2  A    between atoms: C_7  and  C_8
REMARK                            x       y       z     vdW  Elec       q    Type
REMARK                         _______ _______ _______ _____ _____    ______ ____
ROOT
ATOM      1  C   UNL     1       3.777   2.987  18.111  0.00  0.00    +0.000 C 
ENDROOT
BRANCH   1   7
ATOM      2  O   UNL     1       0.974   3.861  17.694  0.00  0.00    +0.000 OA
ATOM      3  C   UNL     1       1.422   3.544  18.782  0.00  0.00    +0.000 C 
ATOM      4  N   UNL     1       0.699   3.540  19.970  0.00  0.00    +0.000 N 
ATOM      5  C   UNL     1       1.582   3.360  21.089  0.00  0.00    +0.000 C 
ATOM      6  C   UNL     1       2.806   2.716  20.459  0.00  0.00    +0.000 C 
ATOM      7  N   UNL     1       2.721   3.157  19.086  0.00  0.00    +0.000 N 
ATOM      8  H   UNL     1      -0.215   3.971  19.992  0.00  0.00    +0.000 HD
ENDBRANCH   1   7
BRANCH   1   9
ATOM      9  C   UNL     1       4.650   4.213  17.989  0.00  0.00    +0.000 A 
ATOM     10  C   UNL     1       4.487   5.092  16.908  0.00  0.00    +0.000 A 
ATOM     11  C   UNL     1       5.341   6.187  16.755  0.00  0.00    +0.000 A 
ATOM     12  C   UNL     1       6.366   6.401  17.675  0.00  0.00    +0.000 A 
ATOM     13 CL   UNL     1       7.447   7.722  17.461  0.00  0.00    +0.000 Cl
ATOM     14  C   UNL     1       6.531   5.544  18.762  0.00  0.00    +0.000 A 
ATOM     15  C   UNL     1       5.672   4.455  18.920  0.00  0.00    +0.000 A 
ENDBRANCH   1   9
TORSDOF 2
ENDMDL
MODEL 6
REMARK VINA RESULT:      -6.2      1.522      1.766
REMARK  Name = 
REMARK  2 active torsions:
REMARK  status: ('A' for Active; 'I' for Inactive)
REMARK    1  A    between atoms: N_6  and  C_7
REMARK    2  A    between atoms: C_7  and  C_8
REMARK                            x       y       z     vdW  Elec       q    Type
REMARK                         _______ _______ _______ _____ _____    ______ ____
ROOT
ATOM      1  C   UNL     1       5.152   5.506  18.240  0.00  0.00    +0.000 C 
ENDROOT
BRANCH   1   7
ATOM      2  O   UNL     1       7.917   4.437  18.271  0.00  0.00    +0.000 OA
ATOM      3  C   UNL     1       7.299   4.663  17.247  0.00  0.00    +0.000 C 
ATOM      4  N   UNL     1       7.784   4.453  15.961  0.00  0.00    +0.000 N 
ATOM      5  C   UNL     1       6.906   5.052  14.994  0.00  0.00    +0.000 C 
ATOM      6  C   UNL     1       5.590   5.160  15.747  0.00  0.00    +0.000 C 
ATOM      7  N   UNL     1       6.020   5.193  17.125  0.00  0.00    +0.000 N 
ATOM      8  H   UNL     1       8.766   4.249  15.831  0.00  0.00    +0.000 HD
ENDBRANCH   1   7
BRANCH   1   9
ATOM      9  C   UNL     1       3.961   4.581  18.319  0.00  0.00    +0.000 A 
ATOM     10  C   UNL     1       2.692   5.026  17.918  0.00  0.00    +0.000 A 
ATOM     11  C   UNL     1       1.578   4.196  18.058  0.00  0.00    +0.000 A 
ATOM     12  C   UNL     1       1.725   2.924  18.608  0.00  0.00    +0.000 A 
ATOM     13 CL   UNL     1       0.345   1.919  18.824  0.00  0.00    +0.000 Cl
ATOM     14  C   UNL     1       2.981   2.463  18.998  0.00  0.00    +0.000 A 
ATOM     15  C   UNL     1       4.097   3.289  18.849  0.00  0.00    +0.000 A 
ENDBRANCH   1   9
TORSDOF 2
ENDMDL
MODEL 7
REMARK VINA RESULT:      -6.1      3.726      5.552
REMARK  Name = 
REMARK  2 active torsions:
REMARK  status: ('A' for Active; 'I' for Inactive)
REMARK    1  A    between atoms: N_6  and  C_7
REMARK    2  A    between atoms: C_7  and  C_8
REMARK                            x       y       z     vdW  Elec       q    Type
REMARK                         _______ _______ _______ _____ _____    ______ ____
ROOT
ATOM      1  C   UNL     1       3.649   2.677  18.154  0.00  0.00    +0.000 C 
ENDROOT
BRANCH   1   7
ATOM      2  O   UNL     1       0.983   3.884  17.675  0.00  0.00    +0.000 OA
ATOM      3  C   UNL     1       1.365   3.519  18.772  0.00  0.00    +0.000 C 
ATOM      4  N   UNL     1       0.621   3.606  19.944  0.00  0.00    +0.000 N 
ATOM      5  C   UNL     1       1.451   3.324  21.082  0.00  0.00    +0.000 C 
ATOM      6  C   UNL     1       2.601   2.533  20.480  0.00  0.00    +0.000 C 
ATOM      7  N   UNL     1       2.601   2.977  19.106  0.00  0.00    +0.000 N 
ATOM      8  H   UNL     1      -0.234   4.146  19.946  0.00  0.00    +0.000 HD
ENDBRANCH   1   7
BRANCH   1   9
ATOM      9  C   UNL     1       4.585   3.843  17.943  0.00  0.00    +0.000 A 
ATOM     10  C   UNL     1       5.373   4.318  19.002  0.00  0.00    +0.000 A 
ATOM     11  C   UNL     1       6.185   5.441  18.829  0.00  0.00    +0.000 A 
ATOM     12  C   UNL     1       6.204   6.099  17.601  0.00  0.00    +0.000 A 
ATOM     13 CL   UNL     1       7.169   7.510  17.400  0.00  0.00    +0.000 Cl
ATOM     14  C   UNL     1       5.437   5.632  16.535  0.00  0.00    +0.000 A 
ATOM     15  C   UNL     1       4.632   4.503  16.706  0.00  0.00    +0.000 A 
ENDBRANCH   1   9
TORSDOF 2
ENDMDL
MODEL 8
REMARK VINA RESULT:      -6.1      1.514      1.698
REMARK  Name = 
REMARK  2 active torsions:
REMARK  status: ('A' for Active; 'I' for Inactive)
REMARK    1  A    between atoms: N_6  and  C_7
REMARK    2  A    between atoms: C_7  and  C_8
REMARK                            x       y       z     vdW  Elec       q    Type
REMARK                         _______ _______ _______ _____ _____    ______ ____
ROOT
ATOM      1  C   UNL     1       4.135   4.775  16.849  0.00  0.00    +0.000 C 
ENDROOT
BRANCH   1   7
ATOM      2  O   UNL     1       6.204   3.668  15.037  0.00  0.00    +0.000 OA
ATOM      3  C   UNL     1       6.461   4.183  16.110  0.00  0.00    +0.000 C 
ATOM      4  N   UNL     1       7.740   4.333  16.636  0.00  0.00    +0.000 N 
ATOM      5  C   UNL     1       7.667   4.747  18.010  0.00  0.00    +0.000 C 
ATOM      6  C   UNL     1       6.279   5.359  18.110  0.00  0.00    +0.000 C 
ATOM      7  N   UNL     1       5.567   4.697  17.042  0.00  0.00    +0.000 N 
ATOM      8  H   UNL     1       8.513   3.854  16.196  0.00  0.00    +0.000 HD
ENDBRANCH   1   7
BRANCH   1   9
ATOM      9  C   UNL     1       3.366   4.219  18.024  0.00  0.00    +0.000 A 
ATOM     10  C   UNL     1       2.567   5.064  18.809  0.00  0.00    +0.000 A 
ATOM     11  C   UNL     1       1.913   4.567  19.938  0.00  0.00    +0.000 A 
ATOM     12  C   UNL     1       2.063   3.228  20.292  0.00  0.00    +0.000 A 
ATOM     13 CL   UNL     1       1.295   2.624  21.710  0.00  0.00    +0.000 Cl
ATOM     14  C   UNL     1       2.843   2.373  19.515  0.00  0.00    +0.000 A 
ATOM     15  C   UNL     1       3.489   2.868  18.381  0.00  0.00    +0.000 A 
ENDBRANCH   1   9
TORSDOF 2
ENDMDL
MODEL 9
REMARK VINA RESULT:      -6.1      1.600      2.133
REMARK  Name = 
REMARK  2 active torsions:
REMARK  status: ('A' for Active; 'I' for Inactive)
REMARK    1  A    between atoms: N_6  and  C_7
REMARK    2  A    between atoms: C_7  and  C_8
REMARK                            x       y       z     vdW  Elec       q    Type
REMARK                         _______ _______ _______ _____ _____    ______ ____
ROOT
ATOM      1  C   UNL     1       4.501   6.250  17.078  0.00  0.00    +0.000 C 
ENDROOT
BRANCH   1   7
ATOM      2  O   UNL     1       6.133   5.468  14.729  0.00  0.00    +0.000 OA
ATOM      3  C   UNL     1       6.501   5.316  15.880  0.00  0.00    +0.000 C 
ATOM      4  N   UNL     1       7.721   4.768  16.261  0.00  0.00    +0.000 N 
ATOM      5  C   UNL     1       7.730   4.507  17.674  0.00  0.00    +0.000 C 
ATOM      6  C   UNL     1       6.645   5.432  18.200  0.00  0.00    +0.000 C 
ATOM      7  N   UNL     1       5.801   5.616  17.043  0.00  0.00    +0.000 N 
ATOM      8  H   UNL     1       8.296   4.313  15.565  0.00  0.00    +0.000 HD
ENDBRANCH   1   7
BRANCH   1   9
ATOM      9  C   UNL     1       3.523   5.511  17.960  0.00  0.00    +0.000 A 
ATOM     10  C   UNL     1       3.188   6.020  19.224  0.00  0.00    +0.000 A 
ATOM     11  C   UNL     1       2.341   5.301  20.070  0.00  0.00    +0.000 A 
ATOM     12  C   UNL     1       1.834   4.069  19.662  0.00  0.00    +0.000 A 
ATOM     13 CL   UNL     1       0.828   3.162  20.722  0.00  0.00    +0.000 Cl
ATOM     14  C   UNL     1       2.148   3.558  18.403  0.00  0.00    +0.000 A 
ATOM     15  C   UNL     1       2.988   4.280  17.554  0.00  0.00    +0.000 A 
ENDBRANCH   1   9
TORSDOF 2
ENDMDL
