MODEL 1
REMARK VINA RESULT:      -7.3      0.000      0.000
REMARK  Name = 
REMARK  7 active torsions:
REMARK  status: ('A' for Active; 'I' for Inactive)
REMARK    1  A    between atoms: C_1  and  N_2
REMARK    2  A    between atoms: N_2  and  C_3
REMARK    3  A    between atoms: N_2  and  C_4
REMARK    4  A    between atoms: C_4  and  C_5
REMARK    5  A    between atoms: C_5  and  N_6
REMARK    6  A    between atoms: C_7  and  C_9
REMARK    7  A    between atoms: N_22  and  C_23
REMARK                            x       y       z     vdW  Elec       q    Type
REMARK                         _______ _______ _______ _____ _____    ______ ____
ROOT
ATOM      1  C   UNL     1       3.952   4.718  19.138  0.00  0.00    +0.000 A 
ATOM      2  C   UNL     1       3.380   3.668  18.380  0.00  0.00    +0.000 A 
ATOM      3  C   UNL     1       2.285   3.920  17.598  0.00  0.00    +0.000 A 
ATOM      4  C   UNL     1       1.628   5.103  17.767  0.00  0.00    +0.000 A 
ATOM      5  C   UNL     1       2.352   6.188  18.167  0.00  0.00    +0.000 A 
ATOM      6  N   UNL     1       1.835   7.336  17.692  0.00  0.00    +0.000 NA
ATOM      7  C   UNL     1       1.616   8.332  18.539  0.00  0.00    +0.000 A 
ATOM      8  C   UNL     1       1.011   9.455  18.044  0.00  0.00    +0.000 A 
ATOM      9  C   UNL     1       0.421  10.418  18.869  0.00  0.00    +0.000 A 
ATOM     10  C   UNL     1       0.351  10.053  20.205  0.00  0.00    +0.000 A 
ATOM     11  C   UNL     1       1.024   8.923  20.730  0.00  0.00    +0.000 A 
ATOM     12  C   UNL     1       0.482   8.875  22.061  0.00  0.00    +0.000 A 
ATOM     13  N   UNL     1      -0.364   9.885  22.342  0.00  0.00    +0.000 NA
ATOM     14  N   UNL     1      -0.407  10.641  21.214  0.00  0.00    +0.000 N 
ATOM     15  C   UNL     1      -1.253  11.780  21.109  0.00  0.00    +0.000 C 
ATOM     16  C   UNL     1       1.876   8.100  19.897  0.00  0.00    +0.000 A 
ATOM     17  N   UNL     1       2.738   7.027  20.265  0.00  0.00    +0.000 NA
ATOM     18  C   UNL     1       3.149   6.039  19.286  0.00  0.00    +0.000 A 
ENDROOT
BRANCH   1  20
ATOM     19  N   UNL     1       6.074   4.202  17.673  0.00  0.00    +0.000 N 
ATOM     20  C   UNL     1       5.547   4.591  18.958  0.00  0.00    +0.000 C 
ATOM     21  O   UNL     1       6.309   4.958  19.857  0.00  0.00    +0.000 OA
ATOM     22  H   UNL     1       5.434   3.995  16.926  0.00  0.00    +0.000 HD
BRANCH  19  23
ATOM     23  C   UNL     1       7.452   4.377  17.095  0.00  0.00    +0.000 C 
BRANCH  23  24
ATOM     24  C   UNL     1       7.613   5.163  15.738  0.00  0.00    +0.000 C 
BRANCH  24  26
ATOM     25  C   UNL     1       6.009   4.022  14.307  0.00  0.00    +0.000 C 
ATOM     26  N   UNL     1       6.454   5.335  14.818  0.00  0.00    +0.000 NA
ATOM     27  C   UNL     1       5.323   5.982  15.469  0.00  0.00    +0.000 C 
ENDBRANCH  24  26
ENDBRANCH  23  24
ENDBRANCH  19  23
ENDBRANCH   1  20
TORSDOF 4
ENDMDL
MODEL 2
REMARK VINA RESULT:      -7.2      2.214      3.955
REMARK  Name = 
REMARK  7 active torsions:
REMARK  status: ('A' for Active; 'I' for Inactive)
REMARK    1  A    between atoms: C_1  and  N_2
REMARK    2  A    between atoms: N_2  and  C_3
REMARK    3  A    between atoms: N_2  and  C_4
REMARK    4  A    between atoms: C_4  and  C_5
REMARK    5  A    between atoms: C_5  and  N_6
REMARK    6  A    between atoms: C_7  and  C_9
REMARK    7  A    between atoms: N_22  and  C_23
REMARK                            x       y       z     vdW  Elec       q    Type
REMARK                         _______ _______ _______ _____ _____    ______ ____
ROOT
ATOM      1  C   UNL     1       6.361   5.597  16.539  0.00  0.00    +0.000 A 
ATOM      2  C   UNL     1       7.628   5.428  17.150  0.00  0.00    +0.000 A 
ATOM      3  C   UNL     1       7.705   5.265  18.507  0.00  0.00    +0.000 A 
ATOM      4  C   UNL     1       6.594   5.524  19.254  0.00  0.00    +0.000 A 
ATOM      5  C   UNL     1       5.373   5.308  18.685  0.00  0.00    +0.000 A 
ATOM      6  N   UNL     1       4.451   4.957  19.600  0.00  0.00    +0.000 NA
ATOM      7  C   UNL     1       3.295   5.606  19.618  0.00  0.00    +0.000 A 
ATOM      8  C   UNL     1       2.411   5.286  20.612  0.00  0.00    +0.000 A 
ATOM      9  C   UNL     1       1.331   6.107  20.953  0.00  0.00    +0.000 A 
ATOM     10  C   UNL     1       1.336   7.340  20.318  0.00  0.00    +0.000 A 
ATOM     11  C   UNL     1       2.212   7.653  19.250  0.00  0.00    +0.000 A 
ATOM     12  C   UNL     1       1.963   9.061  19.094  0.00  0.00    +0.000 A 
ATOM     13  N   UNL     1       1.009   9.540  19.915  0.00  0.00    +0.000 NA
ATOM     14  N   UNL     1       0.585   8.469  20.636  0.00  0.00    +0.000 N 
ATOM     15  C   UNL     1      -0.392   8.597  21.662  0.00  0.00    +0.000 C 
ATOM     16  C   UNL     1       3.132   6.669  18.719  0.00  0.00    +0.000 A 
ATOM     17  N   UNL     1       3.975   6.744  17.573  0.00  0.00    +0.000 NA
ATOM     18  C   UNL     1       5.138   5.886  17.453  0.00  0.00    +0.000 A 
ENDROOT
BRANCH   1  20
ATOM     19  N   UNL     1       7.026   5.154  14.034  0.00  0.00    +0.000 N 
ATOM     20  C   UNL     1       6.365   4.672  15.222  0.00  0.00    +0.000 C 
ATOM     21  O   UNL     1       5.939   3.514  15.269  0.00  0.00    +0.000 OA
ATOM     22  H   UNL     1       7.446   6.067  14.047  0.00  0.00    +0.000 HD
BRANCH  19  23
ATOM     23  C   UNL     1       7.532   4.405  12.832  0.00  0.00    +0.000 C 
BRANCH  23  24
ATOM     24  C   UNL     1       6.504   3.972  11.718  0.00  0.00    +0.000 C 
BRANCH  24  26
ATOM     25  C   UNL     1       4.204   3.237  11.414  0.00  0.00    +0.000 C 
ATOM     26  N   UNL     1       5.525   2.878  11.971  0.00  0.00    +0.000 NA
ATOM     27  C   UNL     1       5.945   1.614  11.380  0.00  0.00    +0.000 C 
ENDBRANCH  24  26
ENDBRANCH  23  24
ENDBRANCH  19  23
ENDBRANCH   1  20
TORSDOF 4
ENDMDL
MODEL 3
REMARK VINA RESULT:      -7.1      0.905      1.250
REMARK  Name = 
REMARK  7 active torsions:
REMARK  status: ('A' for Active; 'I' for Inactive)
REMARK    1  A    between atoms: C_1  and  N_2
REMARK    2  A    between atoms: N_2  and  C_3
REMARK    3  A    between atoms: N_2  and  C_4
REMARK    4  A    between atoms: C_4  and  C_5
REMARK    5  A    between atoms: C_5  and  N_6
REMARK    6  A    between atoms: C_7  and  C_9
REMARK    7  A    between atoms: N_22  and  C_23
REMARK                            x       y       z     vdW  Elec       q    Type
REMARK                         _______ _______ _______ _____ _____    ______ ____
ROOT
ATOM      1  C   UNL     1       3.763   4.651  19.198  0.00  0.00    +0.000 A 
ATOM      2  C   UNL     1       3.160   3.626  18.428  0.00  0.00    +0.000 A 
ATOM      3  C   UNL     1       2.089   3.926  17.630  0.00  0.00    +0.000 A 
ATOM      4  C   UNL     1       1.479   5.134  17.791  0.00  0.00    +0.000 A 
ATOM      5  C   UNL     1       2.240   6.187  18.206  0.00  0.00    +0.000 A 
ATOM      6  N   UNL     1       1.779   7.356  17.726  0.00  0.00    +0.000 NA
ATOM      7  C   UNL     1       1.587   8.359  18.572  0.00  0.00    +0.000 A 
ATOM      8  C   UNL     1       1.036   9.508  18.071  0.00  0.00    +0.000 A 
ATOM      9  C   UNL     1       0.473  10.492  18.888  0.00  0.00    +0.000 A 
ATOM     10  C   UNL     1       0.367  10.127  20.222  0.00  0.00    +0.000 A 
ATOM     11  C   UNL     1       0.985   8.969  20.755  0.00  0.00    +0.000 A 
ATOM     12  C   UNL     1       0.420   8.941  22.077  0.00  0.00    +0.000 A 
ATOM     13  N   UNL     1      -0.389   9.984  22.347  0.00  0.00    +0.000 NA
ATOM     14  N   UNL     1      -0.383  10.743  21.220  0.00  0.00    +0.000 N 
ATOM     15  C   UNL     1      -1.179  11.917  21.105  0.00  0.00    +0.000 C 
ATOM     16  C   UNL     1       1.815   8.114  19.933  0.00  0.00    +0.000 A 
ATOM     17  N   UNL     1       2.626   7.006  20.312  0.00  0.00    +0.000 NA
ATOM     18  C   UNL     1       3.012   6.004  19.336  0.00  0.00    +0.000 A 
ENDROOT
BRANCH   1  20
ATOM     19  N   UNL     1       5.893   4.135  17.745  0.00  0.00    +0.000 N 
ATOM     20  C   UNL     1       5.353   4.459  19.043  0.00  0.00    +0.000 C 
ATOM     21  O   UNL     1       6.110   4.725  19.981  0.00  0.00    +0.000 OA
ATOM     22  H   UNL     1       5.263   4.011  16.973  0.00  0.00    +0.000 HD
BRANCH  19  23
ATOM     23  C   UNL     1       7.292   4.281  17.211  0.00  0.00    +0.000 C 
BRANCH  23  24
ATOM     24  C   UNL     1       7.635   5.531  16.314  0.00  0.00    +0.000 C 
BRANCH  24  26
ATOM     25  C   UNL     1       5.973   7.229  16.842  0.00  0.00    +0.000 C 
ATOM     26  N   UNL     1       7.417   6.915  16.823  0.00  0.00    +0.000 NA
ATOM     27  C   UNL     1       7.945   7.098  18.168  0.00  0.00    +0.000 C 
ENDBRANCH  24  26
ENDBRANCH  23  24
ENDBRANCH  19  23
ENDBRANCH   1  20
TORSDOF 4
ENDMDL
MODEL 4
REMARK VINA RESULT:      -7.0      3.359      6.118
REMARK  Name = 
REMARK  7 active torsions:
REMARK  status: ('A' for Active; 'I' for Inactive)
REMARK    1  A    between atoms: C_1  and  N_2
REMARK    2  A    between atoms: N_2  and  C_3
REMARK    3  A    between atoms: N_2  and  C_4
REMARK    4  A    between atoms: C_4  and  C_5
REMARK    5  A    between atoms: C_5  and  N_6
REMARK    6  A    between atoms: C_7  and  C_9
REMARK    7  A    between atoms: N_22  and  C_23
REMARK                            x       y       z     vdW  Elec       q    Type
REMARK                         _______ _______ _______ _____ _____    ______ ____
ROOT
ATOM      1  C   UNL     1       1.276   9.803  18.135  0.00  0.00    +0.000 A 
ATOM      2  C   UNL     1       2.360  10.700  17.968  0.00  0.00    +0.000 A 
ATOM      3  C   UNL     1       2.220  12.004  18.358  0.00  0.00    +0.000 A 
ATOM      4  C   UNL     1       0.970  12.460  18.657  0.00  0.00    +0.000 A 
ATOM      5  C   UNL     1       0.069  11.573  19.170  0.00  0.00    +0.000 A 
ATOM      6  N   UNL     1      -0.808  12.174  19.994  0.00  0.00    +0.000 NA
ATOM      7  C   UNL     1      -2.103  11.961  19.808  0.00  0.00    +0.000 A 
ATOM      8  C   UNL     1      -2.975  12.650  20.607  0.00  0.00    +0.000 A 
ATOM      9  C   UNL     1      -4.332  12.785  20.300  0.00  0.00    +0.000 A 
ATOM     10  C   UNL     1      -4.678  12.311  19.043  0.00  0.00    +0.000 A 
ATOM     11  C   UNL     1      -3.797  11.547  18.239  0.00  0.00    +0.000 A 
ATOM     12  C   UNL     1      -4.535  11.485  17.006  0.00  0.00    +0.000 A 
ATOM     13  N   UNL     1      -5.743  12.077  17.063  0.00  0.00    +0.000 NA
ATOM     14  N   UNL     1      -5.854  12.543  18.335  0.00  0.00    +0.000 N 
ATOM     15  C   UNL     1      -6.989  13.287  18.763  0.00  0.00    +0.000 C 
ATOM     16  C   UNL     1      -2.482  11.171  18.713  0.00  0.00    +0.000 A 
ATOM     17  N   UNL     1      -1.522  10.298  18.123  0.00  0.00    +0.000 NA
ATOM     18  C   UNL     1      -0.119  10.393  18.478  0.00  0.00    +0.000 A 
ENDROOT
BRANCH   1  20
ATOM     19  N   UNL     1       2.723   7.624  17.858  0.00  0.00    +0.000 N 
ATOM     20  C   UNL     1       1.902   8.440  18.719  0.00  0.00    +0.000 C 
ATOM     21  O   UNL     1       1.802   8.170  19.920  0.00  0.00    +0.000 OA
ATOM     22  H   UNL     1       2.865   7.912  16.906  0.00  0.00    +0.000 HD
BRANCH  19  23
ATOM     23  C   UNL     1       3.731   6.561  18.200  0.00  0.00    +0.000 C 
BRANCH  23  24
ATOM     24  C   UNL     1       3.234   5.080  18.401  0.00  0.00    +0.000 C 
BRANCH  24  26
ATOM     25  C   UNL     1       1.359   3.530  18.328  0.00  0.00    +0.000 C 
ATOM     26  N   UNL     1       1.857   4.800  18.896  0.00  0.00    +0.000 NA
ATOM     27  C   UNL     1       1.800   4.708  20.348  0.00  0.00    +0.000 C 
ENDBRANCH  24  26
ENDBRANCH  23  24
ENDBRANCH  19  23
ENDBRANCH   1  20
TORSDOF 4
ENDMDL
MODEL 5
REMARK VINA RESULT:      -6.9      3.392      5.943
REMARK  Name = 
REMARK  7 active torsions:
REMARK  status: ('A' for Active; 'I' for Inactive)
REMARK    1  A    between atoms: C_1  and  N_2
REMARK    2  A    between atoms: N_2  and  C_3
REMARK    3  A    between atoms: N_2  and  C_4
REMARK    4  A    between atoms: C_4  and  C_5
REMARK    5  A    between atoms: C_5  and  N_6
REMARK    6  A    between atoms: C_7  and  C_9
REMARK    7  A    between atoms: N_22  and  C_23
REMARK                            x       y       z     vdW  Elec       q    Type
REMARK                         _______ _______ _______ _____ _____    ______ ____
ROOT
ATOM      1  C   UNL     1       1.211   9.950  18.122  0.00  0.00    +0.000 A 
ATOM      2  C   UNL     1       2.287  10.862  17.992  0.00  0.00    +0.000 A 
ATOM      3  C   UNL     1       2.135  12.150  18.428  0.00  0.00    +0.000 A 
ATOM      4  C   UNL     1       0.880  12.584  18.739  0.00  0.00    +0.000 A 
ATOM      5  C   UNL     1      -0.015  11.671  19.215  0.00  0.00    +0.000 A 
ATOM      6  N   UNL     1      -0.901  12.234  20.057  0.00  0.00    +0.000 NA
ATOM      7  C   UNL     1      -2.193  12.017  19.858  0.00  0.00    +0.000 A 
ATOM      8  C   UNL     1      -3.074  12.670  20.677  0.00  0.00    +0.000 A 
ATOM      9  C   UNL     1      -4.432  12.803  20.370  0.00  0.00    +0.000 A 
ATOM     10  C   UNL     1      -4.768  12.372  19.096  0.00  0.00    +0.000 A 
ATOM     11  C   UNL     1      -3.878  11.645  18.268  0.00  0.00    +0.000 A 
ATOM     12  C   UNL     1      -4.610  11.621  17.031  0.00  0.00    +0.000 A 
ATOM     13  N   UNL     1      -5.824  12.200  17.104  0.00  0.00    +0.000 NA
ATOM     14  N   UNL     1      -5.944  12.619  18.391  0.00  0.00    +0.000 N 
ATOM     15  C   UNL     1      -7.087  13.338  18.841  0.00  0.00    +0.000 C 
ATOM     16  C   UNL     1      -2.561  11.264  18.734  0.00  0.00    +0.000 A 
ATOM     17  N   UNL     1      -1.591  10.421  18.117  0.00  0.00    +0.000 NA
ATOM     18  C   UNL     1      -0.190  10.515  18.481  0.00  0.00    +0.000 A 
ENDROOT
BRANCH   1  20
ATOM     19  N   UNL     1       2.662   7.785  17.767  0.00  0.00    +0.000 N 
ATOM     20  C   UNL     1       1.847   8.573  18.660  0.00  0.00    +0.000 C 
ATOM     21  O   UNL     1       1.760   8.267  19.853  0.00  0.00    +0.000 OA
ATOM     22  H   UNL     1       2.793   8.101  16.823  0.00  0.00    +0.000 HD
BRANCH  19  23
ATOM     23  C   UNL     1       3.676   6.716  18.067  0.00  0.00    +0.000 C 
BRANCH  23  24
ATOM     24  C   UNL     1       4.989   6.650  17.198  0.00  0.00    +0.000 C 
BRANCH  24  26
ATOM     25  C   UNL     1       7.369   6.772  17.695  0.00  0.00    +0.000 C 
ATOM     26  N   UNL     1       6.181   5.893  17.676  0.00  0.00    +0.000 NA
ATOM     27  C   UNL     1       5.989   5.351  19.015  0.00  0.00    +0.000 C 
ENDBRANCH  24  26
ENDBRANCH  23  24
ENDBRANCH  19  23
ENDBRANCH   1  20
TORSDOF 4
ENDMDL
MODEL 6
REMARK VINA RESULT:      -6.9      1.502      1.867
REMARK  Name = 
REMARK  7 active torsions:
REMARK  status: ('A' for Active; 'I' for Inactive)
REMARK    1  A    between atoms: C_1  and  N_2
REMARK    2  A    between atoms: N_2  and  C_3
REMARK    3  A    between atoms: N_2  and  C_4
REMARK    4  A    between atoms: C_4  and  C_5
REMARK    5  A    between atoms: C_5  and  N_6
REMARK    6  A    between atoms: C_7  and  C_9
REMARK    7  A    between atoms: N_22  and  C_23
REMARK                            x       y       z     vdW  Elec       q    Type
REMARK                         _______ _______ _______ _____ _____    ______ ____
ROOT
ATOM      1  C   UNL     1       3.330   4.342  19.387  0.00  0.00    +0.000 A 
ATOM      2  C   UNL     1       2.726   3.425  18.493  0.00  0.00    +0.000 A 
ATOM      3  C   UNL     1       1.842   3.884  17.554  0.00  0.00    +0.000 A 
ATOM      4  C   UNL     1       1.377   5.161  17.671  0.00  0.00    +0.000 A 
ATOM      5  C   UNL     1       2.196   6.092  18.241  0.00  0.00    +0.000 A 
ATOM      6  N   UNL     1       1.972   7.323  17.746  0.00  0.00    +0.000 NA
ATOM      7  C   UNL     1       1.783   8.324  18.594  0.00  0.00    +0.000 A 
ATOM      8  C   UNL     1       1.473   9.547  18.064  0.00  0.00    +0.000 A 
ATOM      9  C   UNL     1       0.923  10.581  18.826  0.00  0.00    +0.000 A 
ATOM     10  C   UNL     1       0.563  10.206  20.112  0.00  0.00    +0.000 A 
ATOM     11  C   UNL     1       0.932   8.964  20.684  0.00  0.00    +0.000 A 
ATOM     12  C   UNL     1       0.169   8.985  21.902  0.00  0.00    +0.000 A 
ATOM     13  N   UNL     1      -0.529  10.121  22.090  0.00  0.00    +0.000 NA
ATOM     14  N   UNL     1      -0.247  10.897  21.010  0.00  0.00    +0.000 N 
ATOM     15  C   UNL     1      -0.855  12.170  20.824  0.00  0.00    +0.000 C 
ATOM     16  C   UNL     1       1.762   8.021  19.963  0.00  0.00    +0.000 A 
ATOM     17  N   UNL     1       2.352   6.805  20.413  0.00  0.00    +0.000 NA
ATOM     18  C   UNL     1       2.750   5.781  19.467  0.00  0.00    +0.000 A 
ENDROOT
BRANCH   1  20
ATOM     19  N   UNL     1       5.876   4.889  19.024  0.00  0.00    +0.000 N 
ATOM     20  C   UNL     1       4.886   3.939  19.468  0.00  0.00    +0.000 C 
ATOM     21  O   UNL     1       5.234   2.898  20.033  0.00  0.00    +0.000 OA
ATOM     22  H   UNL     1       5.572   5.770  18.649  0.00  0.00    +0.000 HD
BRANCH  19  23
ATOM     23  C   UNL     1       7.347   4.974  19.329  0.00  0.00    +0.000 C 
BRANCH  23  24
ATOM     24  C   UNL     1       8.137   6.270  18.906  0.00  0.00    +0.000 C 
BRANCH  24  26
ATOM     25  C   UNL     1       8.298   8.547  18.060  0.00  0.00    +0.000 C 
ATOM     26  N   UNL     1       7.493   7.307  18.051  0.00  0.00    +0.000 NA
ATOM     27  C   UNL     1       7.341   6.869  16.670  0.00  0.00    +0.000 C 
ENDBRANCH  24  26
ENDBRANCH  23  24
ENDBRANCH  19  23
ENDBRANCH   1  20
TORSDOF 4
ENDMDL
MODEL 7
REMARK VINA RESULT:      -6.7      2.169      7.545
REMARK  Name = 
REMARK  7 active torsions:
REMARK  status: ('A' for Active; 'I' for Inactive)
REMARK    1  A    between atoms: C_1  and  N_2
REMARK    2  A    between atoms: N_2  and  C_3
REMARK    3  A    between atoms: N_2  and  C_4
REMARK    4  A    between atoms: C_4  and  C_5
REMARK    5  A    between atoms: C_5  and  N_6
REMARK    6  A    between atoms: C_7  and  C_9
REMARK    7  A    between atoms: N_22  and  C_23
REMARK                            x       y       z     vdW  Elec       q    Type
REMARK                         _______ _______ _______ _____ _____    ______ ____
ROOT
ATOM      1  C   UNL     1       2.380   3.756  19.643  0.00  0.00    +0.000 A 
ATOM      2  C   UNL     1       2.647   2.709  20.558  0.00  0.00    +0.000 A 
ATOM      3  C   UNL     1       3.923   2.224  20.673  0.00  0.00    +0.000 A 
ATOM      4  C   UNL     1       4.839   2.584  19.730  0.00  0.00    +0.000 A 
ATOM      5  C   UNL     1       4.704   3.806  19.137  0.00  0.00    +0.000 A 
ATOM      6  N   UNL     1       5.894   4.318  18.774  0.00  0.00    +0.000 NA
ATOM      7  C   UNL     1       6.042   4.765  17.535  0.00  0.00    +0.000 A 
ATOM      8  C   UNL     1       7.287   5.202  17.169  0.00  0.00    +0.000 A 
ATOM      9  C   UNL     1       7.663   5.371  15.833  0.00  0.00    +0.000 A 
ATOM     10  C   UNL     1       6.734   4.897  14.920  0.00  0.00    +0.000 A 
ATOM     11  C   UNL     1       5.425   4.499  15.288  0.00  0.00    +0.000 A 
ATOM     12  C   UNL     1       4.957   3.923  14.057  0.00  0.00    +0.000 A 
ATOM     13  N   UNL     1       5.838   4.013  13.042  0.00  0.00    +0.000 NA
ATOM     14  N   UNL     1       6.915   4.660  13.560  0.00  0.00    +0.000 N 
ATOM     15  C   UNL     1       8.089   4.892  12.790  0.00  0.00    +0.000 C 
ATOM     16  C   UNL     1       4.962   4.613  16.655  0.00  0.00    +0.000 A 
ATOM     17  N   UNL     1       3.657   4.406  17.189  0.00  0.00    +0.000 NA
ATOM     18  C   UNL     1       3.471   4.114  18.598  0.00  0.00    +0.000 A 
ENDROOT
BRANCH   1  20
ATOM     19  N   UNL     1       1.929   6.109  20.725  0.00  0.00    +0.000 N 
ATOM     20  C   UNL     1       1.422   4.796  20.411  0.00  0.00    +0.000 C 
ATOM     21  O   UNL     1       0.232   4.529  20.600  0.00  0.00    +0.000 OA
ATOM     22  H   UNL     1       2.877   6.337  20.480  0.00  0.00    +0.000 HD
BRANCH  19  23
ATOM     23  C   UNL     1       1.196   7.381  21.055  0.00  0.00    +0.000 C 
BRANCH  23  24
ATOM     24  C   UNL     1       1.605   8.709  20.312  0.00  0.00    +0.000 C 
BRANCH  24  26
ATOM     25  C   UNL     1       1.048  10.320  18.574  0.00  0.00    +0.000 C 
ATOM     26  N   UNL     1       1.304   8.894  18.864  0.00  0.00    +0.000 NA
ATOM     27  C   UNL     1       2.393   8.440  18.010  0.00  0.00    +0.000 C 
ENDBRANCH  24  26
ENDBRANCH  23  24
ENDBRANCH  19  23
ENDBRANCH   1  20
TORSDOF 4
ENDMDL
MODEL 8
REMARK VINA RESULT:      -6.7      3.353      6.344
REMARK  Name = 
REMARK  7 active torsions:
REMARK  status: ('A' for Active; 'I' for Inactive)
REMARK    1  A    between atoms: C_1  and  N_2
REMARK    2  A    between atoms: N_2  and  C_3
REMARK    3  A    between atoms: N_2  and  C_4
REMARK    4  A    between atoms: C_4  and  C_5
REMARK    5  A    between atoms: C_5  and  N_6
REMARK    6  A    between atoms: C_7  and  C_9
REMARK    7  A    between atoms: N_22  and  C_23
REMARK                            x       y       z     vdW  Elec       q    Type
REMARK                         _______ _______ _______ _____ _____    ______ ____
ROOT
ATOM      1  C   UNL     1       1.345   9.968  18.050  0.00  0.00    +0.000 A 
ATOM      2  C   UNL     1       2.408  10.894  17.918  0.00  0.00    +0.000 A 
ATOM      3  C   UNL     1       2.243  12.177  18.365  0.00  0.00    +0.000 A 
ATOM      4  C   UNL     1       0.985  12.593  18.688  0.00  0.00    +0.000 A 
ATOM      5  C   UNL     1       0.105  11.665  19.165  0.00  0.00    +0.000 A 
ATOM      6  N   UNL     1      -0.781  12.211  20.018  0.00  0.00    +0.000 NA
ATOM      7  C   UNL     1      -2.072  11.979  19.826  0.00  0.00    +0.000 A 
ATOM      8  C   UNL     1      -2.955  12.614  20.658  0.00  0.00    +0.000 A 
ATOM      9  C   UNL     1      -4.316  12.733  20.362  0.00  0.00    +0.000 A 
ATOM     10  C   UNL     1      -4.657  12.307  19.087  0.00  0.00    +0.000 A 
ATOM     11  C   UNL     1      -3.764  11.598  18.247  0.00  0.00    +0.000 A 
ATOM     12  C   UNL     1      -4.505  11.574  17.016  0.00  0.00    +0.000 A 
ATOM     13  N   UNL     1      -5.726  12.136  17.102  0.00  0.00    +0.000 NA
ATOM     14  N   UNL     1      -5.841  12.544  18.393  0.00  0.00    +0.000 N 
ATOM     15  C   UNL     1      -6.989  13.245  18.857  0.00  0.00    +0.000 C 
ATOM     16  C   UNL     1      -2.439  11.229  18.700  0.00  0.00    +0.000 A 
ATOM     17  N   UNL     1      -1.464  10.404  18.069  0.00  0.00    +0.000 NA
ATOM     18  C   UNL     1      -0.061  10.512  18.423  0.00  0.00    +0.000 A 
ENDROOT
BRANCH   1  20
ATOM     19  N   UNL     1       1.689   8.135  19.904  0.00  0.00    +0.000 N 
ATOM     20  C   UNL     1       2.001   8.594  18.572  0.00  0.00    +0.000 C 
ATOM     21  O   UNL     1       2.642   7.874  17.801  0.00  0.00    +0.000 OA
ATOM     22  H   UNL     1       1.090   8.695  20.484  0.00  0.00    +0.000 HD
BRANCH  19  23
ATOM     23  C   UNL     1       1.809   6.764  20.511  0.00  0.00    +0.000 C 
BRANCH  23  24
ATOM     24  C   UNL     1       2.731   5.698  19.806  0.00  0.00    +0.000 C 
BRANCH  24  26
ATOM     25  C   UNL     1       1.049   3.989  20.224  0.00  0.00    +0.000 C 
ATOM     26  N   UNL     1       2.176   4.391  19.356  0.00  0.00    +0.000 NA
ATOM     27  C   UNL     1       1.701   4.436  17.980  0.00  0.00    +0.000 C 
ENDBRANCH  24  26
ENDBRANCH  23  24
ENDBRANCH  19  23
ENDBRANCH   1  20
TORSDOF 4
ENDMDL
MODEL 9
REMARK VINA RESULT:      -6.6      6.248      8.522
REMARK  Name = 
REMARK  7 active torsions:
REMARK  status: ('A' for Active; 'I' for Inactive)
REMARK    1  A    between atoms: C_1  and  N_2
REMARK    2  A    between atoms: N_2  and  C_3
REMARK    3  A    between atoms: N_2  and  C_4
REMARK    4  A    between atoms: C_4  and  C_5
REMARK    5  A    between atoms: C_5  and  N_6
REMARK    6  A    between atoms: C_7  and  C_9
REMARK    7  A    between atoms: N_22  and  C_23
REMARK                            x       y       z     vdW  Elec       q    Type
REMARK                         _______ _______ _______ _____ _____    ______ ____
ROOT
ATOM      1  C   UNL     1       0.879  11.725  19.377  0.00  0.00    +0.000 A 
ATOM      2  C   UNL     1       1.000  10.546  18.601  0.00  0.00    +0.000 A 
ATOM      3  C   UNL     1      -0.129   9.891  18.190  0.00  0.00    +0.000 A 
ATOM      4  C   UNL     1      -1.322  10.245  18.748  0.00  0.00    +0.000 A 
ATOM      5  C   UNL     1      -1.483  11.538  19.152  0.00  0.00    +0.000 A 
ATOM      6  N   UNL     1      -2.765  11.935  19.058  0.00  0.00    +0.000 NA
ATOM      7  C   UNL     1      -3.331  12.510  20.109  0.00  0.00    +0.000 A 
ATOM      8  C   UNL     1      -4.659  12.826  20.014  0.00  0.00    +0.000 A 
ATOM      9  C   UNL     1      -5.448  13.111  21.132  0.00  0.00    +0.000 A 
ATOM     10  C   UNL     1      -4.816  12.878  22.344  0.00  0.00    +0.000 A 
ATOM     11  C   UNL     1      -3.429  12.609  22.450  0.00  0.00    +0.000 A 
ATOM     12  C   UNL     1      -3.324  12.256  23.840  0.00  0.00    +0.000 A 
ATOM     13  N   UNL     1      -4.483  12.359  24.519  0.00  0.00    +0.000 NA
ATOM     14  N   UNL     1      -5.394  12.791  23.608  0.00  0.00    +0.000 N 
ATOM     15  C   UNL     1      -6.765  12.965  23.946  0.00  0.00    +0.000 C 
ATOM     16  C   UNL     1      -2.572  12.609  21.284  0.00  0.00    +0.000 A 
ATOM     17  N   UNL     1      -1.153  12.507  21.203  0.00  0.00    +0.000 NA
ATOM     18  C   UNL     1      -0.511  12.068  19.979  0.00  0.00    +0.000 A 
ENDROOT
BRANCH   1  20
ATOM     19  N   UNL     1       1.842  14.162  19.159  0.00  0.00    +0.000 N 
ATOM     20  C   UNL     1       1.939  12.775  18.774  0.00  0.00    +0.000 C 
ATOM     21  O   UNL     1       2.903  12.381  18.111  0.00  0.00    +0.000 OA
ATOM     22  H   UNL     1       1.100  14.446  19.774  0.00  0.00    +0.000 HD
BRANCH  19  23
ATOM     23  C   UNL     1       2.866  15.262  19.097  0.00  0.00    +0.000 C 
BRANCH  23  24
ATOM     24  C   UNL     1       2.404  16.746  19.353  0.00  0.00    +0.000 C 
BRANCH  24  26
ATOM     25  C   UNL     1       2.684  17.176  16.973  0.00  0.00    +0.000 C 
ATOM     26  N   UNL     1       2.026  17.632  18.215  0.00  0.00    +0.000 NA
ATOM     27  C   UNL     1       0.587  17.657  17.990  0.00  0.00    +0.000 C 
ENDBRANCH  24  26
ENDBRANCH  23  24
ENDBRANCH  19  23
ENDBRANCH   1  20
TORSDOF 4
ENDMDL
