MODEL 1
REMARK VINA RESULT:      -7.8      0.000      0.000
REMARK  Name = 
REMARK  12 active torsions:
REMARK  status: ('A' for Active; 'I' for Inactive)
REMARK    1  A    between atoms: C_1  and  C_2
REMARK    2  A    between atoms: C_2  and  C_3
REMARK    3  A    between atoms: C_2  and  O_4
REMARK    4  A    between atoms: O_4  and  C_5
REMARK    5  A    between atoms: C_8  and  S_9
REMARK    6  A    between atoms: S_9  and  N_12
REMARK    7  A    between atoms: N_15  and  C_16
REMARK    8  A    between atoms: C_19  and  N_20
REMARK    9  A    between atoms: C_23  and  O_24
REMARK   10  A    between atoms: O_24  and  C_25
REMARK   11  A    between atoms: C_25  and  C_26
REMARK   12  A    between atoms: C_26  and  O_28
REMARK                            x       y       z     vdW  Elec       q    Type
REMARK                         _______ _______ _______ _____ _____    ______ ____
ROOT
ATOM      1  N   UNL     1      -0.165  10.687  19.696  0.00  0.00    +0.000 NA
ATOM      2  C   UNL     1       0.284  10.527  18.299  0.00  0.00    +0.000 C 
ATOM      3  C   UNL     1       1.607   9.759  18.208  0.00  0.00    +0.000 C 
ATOM      4  N   UNL     1       1.561   8.491  18.975  0.00  0.00    +0.000 N 
ATOM      5  C   UNL     1       1.047   8.613  20.363  0.00  0.00    +0.000 C 
ATOM      6  C   UNL     1      -0.287   9.390  20.395  0.00  0.00    +0.000 C 
ENDROOT
BRANCH   4   7
ATOM      7  C   UNL     1       2.516   7.509  18.702  0.00  0.00    +0.000 A 
ATOM      8  C   UNL     1       3.447   7.674  17.664  0.00  0.00    +0.000 A 
ATOM      9  C   UNL     1       4.476   6.754  17.447  0.00  0.00    +0.000 A 
ATOM     10  C   UNL     1       4.595   5.651  18.296  0.00  0.00    +0.000 A 
ATOM     11  C   UNL     1       3.697   5.434  19.341  0.00  0.00    +0.000 A 
ATOM     12  C   UNL     1       2.654   6.357  19.504  0.00  0.00    +0.000 A 
BRANCH  10  13
ATOM     13  N   UNL     1       5.705   4.748  18.080  0.00  0.00    +0.000 N 
ATOM     14  O   UNL     1       5.644   4.015  17.081  0.00  0.00    +0.000 OA
ATOM     15  O   UNL     1       6.649   4.800  18.879  0.00  0.00    +0.000 OA
ENDBRANCH  10  13
BRANCH  11  16
ATOM     16  O   UNL     1       3.822   4.308  20.114  0.00  0.00    +0.000 OA
BRANCH  16  17
ATOM     17  C   UNL     1       2.871   3.263  19.868  0.00  0.00    +0.000 C 
BRANCH  17  18
ATOM     18  C   UNL     1       2.028   2.967  21.101  0.00  0.00    +0.000 C 
ATOM     19  O   UNL     1       2.491   2.690  22.198  0.00  0.00    +0.000 OA
BRANCH  18  20
ATOM     20  O   UNL     1       0.697   3.054  20.871  0.00  0.00    +0.000 OA
ATOM     21  H   UNL     1       0.495   3.734  20.193  0.00  0.00    +0.000 HD
ENDBRANCH  18  20
ENDBRANCH  17  18
ENDBRANCH  16  17
ENDBRANCH  11  16
ENDBRANCH   4   7
BRANCH   1  22
ATOM     22  S   UNL     1       0.106  12.107  20.543  0.00  0.00    +0.000 S 
ATOM     23  O   UNL     1       0.245  13.161  19.558  0.00  0.00    +0.000 OA
ATOM     24  O   UNL     1       1.149  11.862  21.516  0.00  0.00    +0.000 OA
BRANCH  22  28
ATOM     25  C   UNL     1      -3.836  12.653  22.842  0.00  0.00    +0.000 A 
ATOM     26  C   UNL     1      -3.755  13.022  21.496  0.00  0.00    +0.000 A 
ATOM     27  C   UNL     1      -2.539  12.912  20.799  0.00  0.00    +0.000 A 
ATOM     28  C   UNL     1      -1.388  12.466  21.456  0.00  0.00    +0.000 A 
ATOM     29  C   UNL     1      -1.463  12.102  22.805  0.00  0.00    +0.000 A 
ATOM     30  C   UNL     1      -2.678  12.203  23.489  0.00  0.00    +0.000 A 
BRANCH  25  31
ATOM     31  O   UNL     1      -4.950  12.671  23.634  0.00  0.00    +0.000 OA
BRANCH  31  33
ATOM     32  C   UNL     1      -7.318  12.384  23.638  0.00  0.00    +0.000 C 
ATOM     33  C   UNL     1      -6.164  13.267  23.158  0.00  0.00    +0.000 C 
ATOM     34  C   UNL     1      -6.314  14.667  23.745  0.00  0.00    +0.000 C 
ENDBRANCH  31  33
ENDBRANCH  25  31
ENDBRANCH  22  28
ENDBRANCH   1  22
TORSDOF 10
ENDMDL
MODEL 2
REMARK VINA RESULT:      -7.8      1.022      1.207
REMARK  Name = 
REMARK  12 active torsions:
REMARK  status: ('A' for Active; 'I' for Inactive)
REMARK    1  A    between atoms: C_1  and  C_2
REMARK    2  A    between atoms: C_2  and  C_3
REMARK    3  A    between atoms: C_2  and  O_4
REMARK    4  A    between atoms: O_4  and  C_5
REMARK    5  A    between atoms: C_8  and  S_9
REMARK    6  A    between atoms: S_9  and  N_12
REMARK    7  A    between atoms: N_15  and  C_16
REMARK    8  A    between atoms: C_19  and  N_20
REMARK    9  A    between atoms: C_23  and  O_24
REMARK   10  A    between atoms: O_24  and  C_25
REMARK   11  A    between atoms: C_25  and  C_26
REMARK   12  A    between atoms: C_26  and  O_28
REMARK                            x       y       z     vdW  Elec       q    Type
REMARK                         _______ _______ _______ _____ _____    ______ ____
ROOT
ATOM      1  N   UNL     1      -0.028  10.203  19.759  0.00  0.00    +0.000 NA
ATOM      2  C   UNL     1       0.174   9.998  18.311  0.00  0.00    +0.000 C 
ATOM      3  C   UNL     1       1.516   9.320  18.013  0.00  0.00    +0.000 C 
ATOM      4  N   UNL     1       1.708   8.096  18.828  0.00  0.00    +0.000 N 
ATOM      5  C   UNL     1       1.442   8.260  20.281  0.00  0.00    +0.000 C 
ATOM      6  C   UNL     1       0.079   8.942  20.523  0.00  0.00    +0.000 C 
ENDROOT
BRANCH   4   7
ATOM      7  C   UNL     1       2.672   7.169  18.426  0.00  0.00    +0.000 A 
ATOM      8  C   UNL     1       3.764   7.558  17.634  0.00  0.00    +0.000 A 
ATOM      9  C   UNL     1       4.794   6.669  17.315  0.00  0.00    +0.000 A 
ATOM     10  C   UNL     1       4.748   5.366  17.813  0.00  0.00    +0.000 A 
ATOM     11  C   UNL     1       3.686   4.922  18.602  0.00  0.00    +0.000 A 
ATOM     12  C   UNL     1       2.651   5.830  18.869  0.00  0.00    +0.000 A 
BRANCH  10  13
ATOM     13  N   UNL     1       5.858   4.486  17.511  0.00  0.00    +0.000 N 
ATOM     14  O   UNL     1       5.840   3.920  16.408  0.00  0.00    +0.000 OA
ATOM     15  O   UNL     1       6.761   4.395  18.354  0.00  0.00    +0.000 OA
ENDBRANCH  10  13
BRANCH  11  16
ATOM     16  O   UNL     1       3.658   3.616  19.023  0.00  0.00    +0.000 OA
BRANCH  16  17
ATOM     17  C   UNL     1       2.452   3.186  19.667  0.00  0.00    +0.000 C 
BRANCH  17  18
ATOM     18  C   UNL     1       1.599   2.323  18.747  0.00  0.00    +0.000 C 
ATOM     19  O   UNL     1       0.379   2.281  18.782  0.00  0.00    +0.000 OA
BRANCH  18  20
ATOM     20  O   UNL     1       2.330   1.604  17.862  0.00  0.00    +0.000 OA
ATOM     21  H   UNL     1       1.985   0.689  17.774  0.00  0.00    +0.000 HD
ENDBRANCH  18  20
ENDBRANCH  17  18
ENDBRANCH  16  17
ENDBRANCH  11  16
ENDBRANCH   4   7
BRANCH   1  22
ATOM     22  S   UNL     1       0.277  11.684  20.481  0.00  0.00    +0.000 S 
ATOM     23  O   UNL     1       0.448  12.645  19.410  0.00  0.00    +0.000 OA
ATOM     24  O   UNL     1       1.310  11.497  21.478  0.00  0.00    +0.000 OA
BRANCH  22  28
ATOM     25  C   UNL     1      -3.669  12.537  22.677  0.00  0.00    +0.000 A 
ATOM     26  C   UNL     1      -3.538  12.861  21.323  0.00  0.00    +0.000 A 
ATOM     27  C   UNL     1      -2.317  12.658  20.657  0.00  0.00    +0.000 A 
ATOM     28  C   UNL     1      -1.210  12.161  21.351  0.00  0.00    +0.000 A 
ATOM     29  C   UNL     1      -1.335  11.840  22.707  0.00  0.00    +0.000 A 
ATOM     30  C   UNL     1      -2.555  12.035  23.361  0.00  0.00    +0.000 A 
BRANCH  25  31
ATOM     31  O   UNL     1      -4.796  12.646  23.443  0.00  0.00    +0.000 OA
BRANCH  31  33
ATOM     32  C   UNL     1      -6.992  13.395  23.995  0.00  0.00    +0.000 C 
ATOM     33  C   UNL     1      -5.707  13.733  23.235  0.00  0.00    +0.000 C 
ATOM     34  C   UNL     1      -5.107  15.020  23.792  0.00  0.00    +0.000 C 
ENDBRANCH  31  33
ENDBRANCH  25  31
ENDBRANCH  22  28
ENDBRANCH   1  22
TORSDOF 10
ENDMDL
MODEL 3
REMARK VINA RESULT:      -7.6      1.317      1.439
REMARK  Name = 
REMARK  12 active torsions:
REMARK  status: ('A' for Active; 'I' for Inactive)
REMARK    1  A    between atoms: C_1  and  C_2
REMARK    2  A    between atoms: C_2  and  C_3
REMARK    3  A    between atoms: C_2  and  O_4
REMARK    4  A    between atoms: O_4  and  C_5
REMARK    5  A    between atoms: C_8  and  S_9
REMARK    6  A    between atoms: S_9  and  N_12
REMARK    7  A    between atoms: N_15  and  C_16
REMARK    8  A    between atoms: C_19  and  N_20
REMARK    9  A    between atoms: C_23  and  O_24
REMARK   10  A    between atoms: O_24  and  C_25
REMARK   11  A    between atoms: C_25  and  C_26
REMARK   12  A    between atoms: C_26  and  O_28
REMARK                            x       y       z     vdW  Elec       q    Type
REMARK                         _______ _______ _______ _____ _____    ______ ____
ROOT
ATOM      1  N   UNL     1       0.002  10.090  19.839  0.00  0.00    +0.000 NA
ATOM      2  C   UNL     1       0.049   9.936  18.372  0.00  0.00    +0.000 C 
ATOM      3  C   UNL     1       1.370   9.312  17.906  0.00  0.00    +0.000 C 
ATOM      4  N   UNL     1       1.687   8.071  18.654  0.00  0.00    +0.000 N 
ATOM      5  C   UNL     1       1.578   8.182  20.131  0.00  0.00    +0.000 C 
ATOM      6  C   UNL     1       0.230   8.811  20.544  0.00  0.00    +0.000 C 
ENDROOT
BRANCH   4   7
ATOM      7  C   UNL     1       2.629   7.190  18.118  0.00  0.00    +0.000 A 
ATOM      8  C   UNL     1       3.894   7.642  17.712  0.00  0.00    +0.000 A 
ATOM      9  C   UNL     1       4.886   6.758  17.277  0.00  0.00    +0.000 A 
ATOM     10  C   UNL     1       4.618   5.388  17.264  0.00  0.00    +0.000 A 
ATOM     11  C   UNL     1       3.379   4.881  17.653  0.00  0.00    +0.000 A 
ATOM     12  C   UNL     1       2.395   5.801  18.046  0.00  0.00    +0.000 A 
BRANCH  10  13
ATOM     13  N   UNL     1       5.685   4.495  16.862  0.00  0.00    +0.000 N 
ATOM     14  O   UNL     1       5.645   4.064  15.700  0.00  0.00    +0.000 OA
ATOM     15  O   UNL     1       6.577   4.260  17.688  0.00  0.00    +0.000 OA
ENDBRANCH  10  13
BRANCH  11  16
ATOM     16  O   UNL     1       3.146   3.532  17.571  0.00  0.00    +0.000 OA
BRANCH  16  17
ATOM     17  C   UNL     1       2.905   2.856  18.813  0.00  0.00    +0.000 C 
BRANCH  17  18
ATOM     18  C   UNL     1       4.101   2.016  19.238  0.00  0.00    +0.000 C 
ATOM     19  O   UNL     1       4.894   2.343  20.109  0.00  0.00    +0.000 OA
BRANCH  18  20
ATOM     20  O   UNL     1       4.201   0.848  18.562  0.00  0.00    +0.000 OA
ATOM     21  H   UNL     1       4.921   0.286  18.921  0.00  0.00    +0.000 HD
ENDBRANCH  18  20
ENDBRANCH  17  18
ENDBRANCH  16  17
ENDBRANCH  11  16
ENDBRANCH   4   7
BRANCH   1  22
ATOM     22  S   UNL     1       0.340  11.558  20.573  0.00  0.00    +0.000 S 
ATOM     23  O   UNL     1       0.534  12.523  19.509  0.00  0.00    +0.000 OA
ATOM     24  O   UNL     1       1.368  11.339  21.569  0.00  0.00    +0.000 OA
BRANCH  22  28
ATOM     25  C   UNL     1      -3.594  12.488  22.759  0.00  0.00    +0.000 A 
ATOM     26  C   UNL     1      -3.432  12.862  21.422  0.00  0.00    +0.000 A 
ATOM     27  C   UNL     1      -2.213  12.634  20.761  0.00  0.00    +0.000 A 
ATOM     28  C   UNL     1      -1.136  12.061  21.446  0.00  0.00    +0.000 A 
ATOM     29  C   UNL     1      -1.292  11.691  22.786  0.00  0.00    +0.000 A 
ATOM     30  C   UNL     1      -2.510  11.911  23.435  0.00  0.00    +0.000 A 
BRANCH  25  31
ATOM     31  O   UNL     1      -4.725  12.613  23.517  0.00  0.00    +0.000 OA
BRANCH  31  33
ATOM     32  C   UNL     1      -7.105  12.450  23.532  0.00  0.00    +0.000 C 
ATOM     33  C   UNL     1      -5.904  13.208  22.961  0.00  0.00    +0.000 C 
ATOM     34  C   UNL     1      -5.983  14.675  23.372  0.00  0.00    +0.000 C 
ENDBRANCH  31  33
ENDBRANCH  25  31
ENDBRANCH  22  28
ENDBRANCH   1  22
TORSDOF 10
ENDMDL
MODEL 4
REMARK VINA RESULT:      -7.5      1.002      1.436
REMARK  Name = 
REMARK  12 active torsions:
REMARK  status: ('A' for Active; 'I' for Inactive)
REMARK    1  A    between atoms: C_1  and  C_2
REMARK    2  A    between atoms: C_2  and  C_3
REMARK    3  A    between atoms: C_2  and  O_4
REMARK    4  A    between atoms: O_4  and  C_5
REMARK    5  A    between atoms: C_8  and  S_9
REMARK    6  A    between atoms: S_9  and  N_12
REMARK    7  A    between atoms: N_15  and  C_16
REMARK    8  A    between atoms: C_19  and  N_20
REMARK    9  A    between atoms: C_23  and  O_24
REMARK   10  A    between atoms: O_24  and  C_25
REMARK   11  A    between atoms: C_25  and  C_26
REMARK   12  A    between atoms: C_26  and  O_28
REMARK                            x       y       z     vdW  Elec       q    Type
REMARK                         _______ _______ _______ _____ _____    ______ ____
ROOT
ATOM      1  N   UNL     1      -0.003  10.327  19.894  0.00  0.00    +0.000 NA
ATOM      2  C   UNL     1       0.168  10.071  18.451  0.00  0.00    +0.000 C 
ATOM      3  C   UNL     1       1.502   9.381  18.147  0.00  0.00    +0.000 C 
ATOM      4  N   UNL     1       1.712   8.186  19.001  0.00  0.00    +0.000 N 
ATOM      5  C   UNL     1       1.478   8.401  20.452  0.00  0.00    +0.000 C 
ATOM      6  C   UNL     1       0.121   9.093  20.700  0.00  0.00    +0.000 C 
ENDROOT
BRANCH   4   7
ATOM      7  C   UNL     1       2.667   7.245  18.611  0.00  0.00    +0.000 A 
ATOM      8  C   UNL     1       3.592   7.531  17.594  0.00  0.00    +0.000 A 
ATOM      9  C   UNL     1       4.622   6.645  17.267  0.00  0.00    +0.000 A 
ATOM     10  C   UNL     1       4.747   5.452  17.982  0.00  0.00    +0.000 A 
ATOM     11  C   UNL     1       3.855   5.113  19.000  0.00  0.00    +0.000 A 
ATOM     12  C   UNL     1       2.811   6.009  19.274  0.00  0.00    +0.000 A 
BRANCH  10  13
ATOM     13  N   UNL     1       5.858   4.582  17.657  0.00  0.00    +0.000 N 
ATOM     14  O   UNL     1       5.803   3.987  16.571  0.00  0.00    +0.000 OA
ATOM     15  O   UNL     1       6.796   4.528  18.463  0.00  0.00    +0.000 OA
ENDBRANCH  10  13
BRANCH  11  16
ATOM     16  O   UNL     1       3.987   3.906  19.638  0.00  0.00    +0.000 OA
BRANCH  16  17
ATOM     17  C   UNL     1       2.788   3.133  19.783  0.00  0.00    +0.000 C 
BRANCH  17  18
ATOM     18  C   UNL     1       2.666   2.074  18.696  0.00  0.00    +0.000 C 
ATOM     19  O   UNL     1       3.579   1.743  17.955  0.00  0.00    +0.000 OA
BRANCH  18  20
ATOM     20  O   UNL     1       1.436   1.513  18.635  0.00  0.00    +0.000 OA
ATOM     21  H   UNL     1       1.001   1.507  19.515  0.00  0.00    +0.000 HD
ENDBRANCH  18  20
ENDBRANCH  17  18
ENDBRANCH  16  17
ENDBRANCH  11  16
ENDBRANCH   4   7
BRANCH   1  22
ATOM     22  S   UNL     1       0.319  11.832  20.558  0.00  0.00    +0.000 S 
ATOM     23  O   UNL     1       0.465  12.755  19.450  0.00  0.00    +0.000 OA
ATOM     24  O   UNL     1       1.374  11.679  21.537  0.00  0.00    +0.000 OA
BRANCH  22  28
ATOM     25  C   UNL     1      -3.232  13.412  23.011  0.00  0.00    +0.000 A 
ATOM     26  C   UNL     1      -2.531  12.282  23.443  0.00  0.00    +0.000 A 
ATOM     27  C   UNL     1      -1.480  11.757  22.671  0.00  0.00    +0.000 A 
ATOM     28  C   UNL     1      -1.148  12.339  21.444  0.00  0.00    +0.000 A 
ATOM     29  C   UNL     1      -1.851  13.466  21.005  0.00  0.00    +0.000 A 
ATOM     30  C   UNL     1      -2.887  13.990  21.783  0.00  0.00    +0.000 A 
BRANCH  25  31
ATOM     31  O   UNL     1      -4.246  14.051  23.668  0.00  0.00    +0.000 OA
BRANCH  31  33
ATOM     32  C   UNL     1      -6.157  12.696  24.115  0.00  0.00    +0.000 C 
ATOM     33  C   UNL     1      -5.606  13.847  23.269  0.00  0.00    +0.000 C 
ATOM     34  C   UNL     1      -6.417  15.111  23.536  0.00  0.00    +0.000 C 
ENDBRANCH  31  33
ENDBRANCH  25  31
ENDBRANCH  22  28
ENDBRANCH   1  22
TORSDOF 10
ENDMDL
MODEL 5
REMARK VINA RESULT:      -7.4      1.204      1.521
REMARK  Name = 
REMARK  12 active torsions:
REMARK  status: ('A' for Active; 'I' for Inactive)
REMARK    1  A    between atoms: C_1  and  C_2
REMARK    2  A    between atoms: C_2  and  C_3
REMARK    3  A    between atoms: C_2  and  O_4
REMARK    4  A    between atoms: O_4  and  C_5
REMARK    5  A    between atoms: C_8  and  S_9
REMARK    6  A    between atoms: S_9  and  N_12
REMARK    7  A    between atoms: N_15  and  C_16
REMARK    8  A    between atoms: C_19  and  N_20
REMARK    9  A    between atoms: C_23  and  O_24
REMARK   10  A    between atoms: O_24  and  C_25
REMARK   11  A    between atoms: C_25  and  C_26
REMARK   12  A    between atoms: C_26  and  O_28
REMARK                            x       y       z     vdW  Elec       q    Type
REMARK                         _______ _______ _______ _____ _____    ______ ____
ROOT
ATOM      1  N   UNL     1      -0.133   9.691  20.737  0.00  0.00    +0.000 NA
ATOM      2  C   UNL     1       0.209   9.833  19.309  0.00  0.00    +0.000 C 
ATOM      3  C   UNL     1       1.563   9.195  18.980  0.00  0.00    +0.000 C 
ATOM      4  N   UNL     1       1.656   7.805  19.487  0.00  0.00    +0.000 N 
ATOM      5  C   UNL     1       1.249   7.624  20.904  0.00  0.00    +0.000 C 
ATOM      6  C   UNL     1      -0.121   8.279  21.178  0.00  0.00    +0.000 C 
ENDROOT
BRANCH   4   7
ATOM      7  C   UNL     1       2.642   6.966  18.962  0.00  0.00    +0.000 A 
ATOM      8  C   UNL     1       3.488   7.401  17.930  0.00  0.00    +0.000 A 
ATOM      9  C   UNL     1       4.549   6.616  17.470  0.00  0.00    +0.000 A 
ATOM     10  C   UNL     1       4.786   5.375  18.064  0.00  0.00    +0.000 A 
ATOM     11  C   UNL     1       3.977   4.890  19.091  0.00  0.00    +0.000 A 
ATOM     12  C   UNL     1       2.898   5.688  19.500  0.00  0.00    +0.000 A 
BRANCH  10  13
ATOM     13  N   UNL     1       5.927   4.612  17.604  0.00  0.00    +0.000 N 
ATOM     14  O   UNL     1       6.910   4.566  18.357  0.00  0.00    +0.000 OA
ATOM     15  O   UNL     1       5.824   4.029  16.516  0.00  0.00    +0.000 OA
ENDBRANCH  10  13
BRANCH  11  16
ATOM     16  O   UNL     1       4.217   3.642  19.608  0.00  0.00    +0.000 OA
BRANCH  16  17
ATOM     17  C   UNL     1       3.612   2.543  18.913  0.00  0.00    +0.000 C 
BRANCH  17  18
ATOM     18  C   UNL     1       2.245   2.198  19.488  0.00  0.00    +0.000 C 
ATOM     19  O   UNL     1       1.903   2.438  20.636  0.00  0.00    +0.000 OA
BRANCH  18  20
ATOM     20  O   UNL     1       1.424   1.604  18.590  0.00  0.00    +0.000 OA
ATOM     21  H   UNL     1       1.435   2.075  17.729  0.00  0.00    +0.000 HD
ENDBRANCH  18  20
ENDBRANCH  17  18
ENDBRANCH  16  17
ENDBRANCH  11  16
ENDBRANCH   4   7
BRANCH   1  22
ATOM     22  S   UNL     1       0.120  10.941  21.824  0.00  0.00    +0.000 S 
ATOM     23  O   UNL     1       1.077  11.840  21.211  0.00  0.00    +0.000 OA
ATOM     24  O   UNL     1       0.377  10.363  23.126  0.00  0.00    +0.000 OA
BRANCH  22  28
ATOM     25  C   UNL     1      -4.013  12.930  22.105  0.00  0.00    +0.000 A 
ATOM     26  C   UNL     1      -3.323  12.919  20.889  0.00  0.00    +0.000 A 
ATOM     27  C   UNL     1      -2.035  12.365  20.806  0.00  0.00    +0.000 A 
ATOM     28  C   UNL     1      -1.415  11.848  21.948  0.00  0.00    +0.000 A 
ATOM     29  C   UNL     1      -2.098  11.862  23.168  0.00  0.00    +0.000 A 
ATOM     30  C   UNL     1      -3.384  12.406  23.242  0.00  0.00    +0.000 A 
BRANCH  25  31
ATOM     31  O   UNL     1      -5.277  13.400  22.330  0.00  0.00    +0.000 OA
BRANCH  31  33
ATOM     32  C   UNL     1      -6.044  15.434  21.348  0.00  0.00    +0.000 C 
ATOM     33  C   UNL     1      -5.491  14.786  22.620  0.00  0.00    +0.000 C 
ATOM     34  C   UNL     1      -6.508  14.926  23.748  0.00  0.00    +0.000 C 
ENDBRANCH  31  33
ENDBRANCH  25  31
ENDBRANCH  22  28
ENDBRANCH   1  22
TORSDOF 10
ENDMDL
MODEL 6
REMARK VINA RESULT:      -7.4      1.401      2.914
REMARK  Name = 
REMARK  12 active torsions:
REMARK  status: ('A' for Active; 'I' for Inactive)
REMARK    1  A    between atoms: C_1  and  C_2
REMARK    2  A    between atoms: C_2  and  C_3
REMARK    3  A    between atoms: C_2  and  O_4
REMARK    4  A    between atoms: O_4  and  C_5
REMARK    5  A    between atoms: C_8  and  S_9
REMARK    6  A    between atoms: S_9  and  N_12
REMARK    7  A    between atoms: N_15  and  C_16
REMARK    8  A    between atoms: C_19  and  N_20
REMARK    9  A    between atoms: C_23  and  O_24
REMARK   10  A    between atoms: O_24  and  C_25
REMARK   11  A    between atoms: C_25  and  C_26
REMARK   12  A    between atoms: C_26  and  O_28
REMARK                            x       y       z     vdW  Elec       q    Type
REMARK                         _______ _______ _______ _____ _____    ______ ____
ROOT
ATOM      1  N   UNL     1       0.401  11.315  19.156  0.00  0.00    +0.000 NA
ATOM      2  C   UNL     1       1.428  11.057  18.129  0.00  0.00    +0.000 C 
ATOM      3  C   UNL     1       2.378   9.928  18.543  0.00  0.00    +0.000 C 
ATOM      4  N   UNL     1       1.640   8.717  18.976  0.00  0.00    +0.000 N 
ATOM      5  C   UNL     1       0.553   8.961  19.959  0.00  0.00    +0.000 C 
ATOM      6  C   UNL     1      -0.375  10.102  19.491  0.00  0.00    +0.000 C 
ENDROOT
BRANCH   4   7
ATOM      7  C   UNL     1       2.322   7.499  19.024  0.00  0.00    +0.000 A 
ATOM      8  C   UNL     1       2.230   6.661  20.146  0.00  0.00    +0.000 A 
ATOM      9  C   UNL     1       2.816   5.393  20.166  0.00  0.00    +0.000 A 
ATOM     10  C   UNL     1       3.494   4.938  19.034  0.00  0.00    +0.000 A 
ATOM     11  C   UNL     1       3.621   5.728  17.892  0.00  0.00    +0.000 A 
ATOM     12  C   UNL     1       3.054   7.010  17.922  0.00  0.00    +0.000 A 
BRANCH  10  13
ATOM     13  N   UNL     1       4.041   3.597  19.067  0.00  0.00    +0.000 N 
ATOM     14  O   UNL     1       3.287   2.677  18.720  0.00  0.00    +0.000 OA
ATOM     15  O   UNL     1       5.228   3.471  19.396  0.00  0.00    +0.000 OA
ENDBRANCH  10  13
BRANCH  11  16
ATOM     16  O   UNL     1       4.344   5.258  16.824  0.00  0.00    +0.000 OA
BRANCH  16  17
ATOM     17  C   UNL     1       5.468   6.053  16.423  0.00  0.00    +0.000 C 
BRANCH  17  18
ATOM     18  C   UNL     1       6.715   5.204  16.221  0.00  0.00    +0.000 C 
ATOM     19  O   UNL     1       7.603   5.467  15.423  0.00  0.00    +0.000 OA
BRANCH  18  20
ATOM     20  O   UNL     1       6.757   4.119  17.029  0.00  0.00    +0.000 OA
ATOM     21  H   UNL     1       7.667   3.955  17.360  0.00  0.00    +0.000 HD
ENDBRANCH  18  20
ENDBRANCH  17  18
ENDBRANCH  16  17
ENDBRANCH  11  16
ENDBRANCH   4   7
BRANCH   1  22
ATOM     22  S   UNL     1       0.561  12.572  20.254  0.00  0.00    +0.000 S 
ATOM     23  O   UNL     1       0.682  13.791  19.479  0.00  0.00    +0.000 OA
ATOM     24  O   UNL     1       1.577  12.204  21.217  0.00  0.00    +0.000 OA
BRANCH  22  28
ATOM     25  C   UNL     1      -3.468  12.500  22.464  0.00  0.00    +0.000 A 
ATOM     26  C   UNL     1      -3.399  12.973  21.150  0.00  0.00    +0.000 A 
ATOM     27  C   UNL     1      -2.164  13.053  20.485  0.00  0.00    +0.000 A 
ATOM     28  C   UNL     1      -0.984  12.692  21.144  0.00  0.00    +0.000 A 
ATOM     29  C   UNL     1      -1.047  12.224  22.460  0.00  0.00    +0.000 A 
ATOM     30  C   UNL     1      -2.280  12.137  23.113  0.00  0.00    +0.000 A 
BRANCH  25  31
ATOM     31  O   UNL     1      -4.594  12.334  23.220  0.00  0.00    +0.000 OA
BRANCH  31  33
ATOM     32  C   UNL     1      -6.801  12.771  24.012  0.00  0.00    +0.000 C 
ATOM     33  C   UNL     1      -5.626  13.329  23.206  0.00  0.00    +0.000 C 
ATOM     34  C   UNL     1      -5.116  14.607  23.864  0.00  0.00    +0.000 C 
ENDBRANCH  31  33
ENDBRANCH  25  31
ENDBRANCH  22  28
ENDBRANCH   1  22
TORSDOF 10
ENDMDL
MODEL 7
REMARK VINA RESULT:      -7.4      1.128      1.564
REMARK  Name = 
REMARK  12 active torsions:
REMARK  status: ('A' for Active; 'I' for Inactive)
REMARK    1  A    between atoms: C_1  and  C_2
REMARK    2  A    between atoms: C_2  and  C_3
REMARK    3  A    between atoms: C_2  and  O_4
REMARK    4  A    between atoms: O_4  and  C_5
REMARK    5  A    between atoms: C_8  and  S_9
REMARK    6  A    between atoms: S_9  and  N_12
REMARK    7  A    between atoms: N_15  and  C_16
REMARK    8  A    between atoms: C_19  and  N_20
REMARK    9  A    between atoms: C_23  and  O_24
REMARK   10  A    between atoms: O_24  and  C_25
REMARK   11  A    between atoms: C_25  and  C_26
REMARK   12  A    between atoms: C_26  and  O_28
REMARK                            x       y       z     vdW  Elec       q    Type
REMARK                         _______ _______ _______ _____ _____    ______ ____
ROOT
ATOM      1  N   UNL     1       0.122   9.941  19.823  0.00  0.00    +0.000 NA
ATOM      2  C   UNL     1       0.365   9.788  18.375  0.00  0.00    +0.000 C 
ATOM      3  C   UNL     1       1.733   9.159  18.089  0.00  0.00    +0.000 C 
ATOM      4  N   UNL     1       1.942   7.916  18.869  0.00  0.00    +0.000 N 
ATOM      5  C   UNL     1       1.637   8.025  20.319  0.00  0.00    +0.000 C 
ATOM      6  C   UNL     1       0.249   8.659  20.549  0.00  0.00    +0.000 C 
ENDROOT
BRANCH   4   7
ATOM      7  C   UNL     1       2.942   7.031  18.462  0.00  0.00    +0.000 A 
ATOM      8  C   UNL     1       3.906   7.413  17.515  0.00  0.00    +0.000 A 
ATOM      9  C   UNL     1       4.977   6.581  17.179  0.00  0.00    +0.000 A 
ATOM     10  C   UNL     1       5.104   5.344  17.814  0.00  0.00    +0.000 A 
ATOM     11  C   UNL     1       4.176   4.910  18.760  0.00  0.00    +0.000 A 
ATOM     12  C   UNL     1       3.093   5.755  19.043  0.00  0.00    +0.000 A 
BRANCH  10  13
ATOM     13  N   UNL     1       6.255   4.530  17.485  0.00  0.00    +0.000 N 
ATOM     14  O   UNL     1       6.256   3.988  16.370  0.00  0.00    +0.000 OA
ATOM     15  O   UNL     1       7.169   4.467  18.318  0.00  0.00    +0.000 OA
ENDBRANCH  10  13
BRANCH  11  16
ATOM     16  O   UNL     1       4.313   3.664  19.318  0.00  0.00    +0.000 OA
BRANCH  16  17
ATOM     17  C   UNL     1       3.689   2.583  18.612  0.00  0.00    +0.000 C 
BRANCH  17  18
ATOM     18  C   UNL     1       2.290   2.299  19.140  0.00  0.00    +0.000 C 
ATOM     19  O   UNL     1       1.971   2.380  20.317  0.00  0.00    +0.000 OA
BRANCH  18  20
ATOM     20  O   UNL     1       1.413   1.956  18.168  0.00  0.00    +0.000 OA
ATOM     21  H   UNL     1       1.637   1.085  17.776  0.00  0.00    +0.000 HD
ENDBRANCH  18  20
ENDBRANCH  17  18
ENDBRANCH  16  17
ENDBRANCH  11  16
ENDBRANCH   4   7
BRANCH   1  22
ATOM     22  S   UNL     1       0.366  11.406  20.599  0.00  0.00    +0.000 S 
ATOM     23  O   UNL     1       0.591  12.395  19.564  0.00  0.00    +0.000 OA
ATOM     24  O   UNL     1       1.338  11.203  21.652  0.00  0.00    +0.000 OA
BRANCH  22  28
ATOM     25  C   UNL     1      -3.436  12.882  22.718  0.00  0.00    +0.000 A 
ATOM     26  C   UNL     1      -2.538  12.049  23.392  0.00  0.00    +0.000 A 
ATOM     27  C   UNL     1      -1.402  11.546  22.735  0.00  0.00    +0.000 A 
ATOM     28  C   UNL     1      -1.177  11.845  21.388  0.00  0.00    +0.000 A 
ATOM     29  C   UNL     1      -2.075  12.673  20.707  0.00  0.00    +0.000 A 
ATOM     30  C   UNL     1      -3.198  13.179  21.369  0.00  0.00    +0.000 A 
BRANCH  25  31
ATOM     31  O   UNL     1      -4.557  13.471  23.233  0.00  0.00    +0.000 OA
BRANCH  31  33
ATOM     32  C   UNL     1      -6.044  15.245  23.808  0.00  0.00    +0.000 C 
ATOM     33  C   UNL     1      -4.609  14.892  23.409  0.00  0.00    +0.000 C 
ATOM     34  C   UNL     1      -3.653  15.307  24.522  0.00  0.00    +0.000 C 
ENDBRANCH  31  33
ENDBRANCH  25  31
ENDBRANCH  22  28
ENDBRANCH   1  22
TORSDOF 10
ENDMDL
MODEL 8
REMARK VINA RESULT:      -7.4      1.237      1.714
REMARK  Name = 
REMARK  12 active torsions:
REMARK  status: ('A' for Active; 'I' for Inactive)
REMARK    1  A    between atoms: C_1  and  C_2
REMARK    2  A    between atoms: C_2  and  C_3
REMARK    3  A    between atoms: C_2  and  O_4
REMARK    4  A    between atoms: O_4  and  C_5
REMARK    5  A    between atoms: C_8  and  S_9
REMARK    6  A    between atoms: S_9  and  N_12
REMARK    7  A    between atoms: N_15  and  C_16
REMARK    8  A    between atoms: C_19  and  N_20
REMARK    9  A    between atoms: C_23  and  O_24
REMARK   10  A    between atoms: O_24  and  C_25
REMARK   11  A    between atoms: C_25  and  C_26
REMARK   12  A    between atoms: C_26  and  O_28
REMARK                            x       y       z     vdW  Elec       q    Type
REMARK                         _______ _______ _______ _____ _____    ______ ____
ROOT
ATOM      1  N   UNL     1      -0.331  10.698  19.779  0.00  0.00    +0.000 NA
ATOM      2  C   UNL     1      -0.147  10.307  18.368  0.00  0.00    +0.000 C 
ATOM      3  C   UNL     1       1.193   9.598  18.142  0.00  0.00    +0.000 C 
ATOM      4  N   UNL     1       1.400   8.491  19.106  0.00  0.00    +0.000 N 
ATOM      5  C   UNL     1       1.153   8.841  20.528  0.00  0.00    +0.000 C 
ATOM      6  C   UNL     1      -0.209   9.546  20.699  0.00  0.00    +0.000 C 
ENDROOT
BRANCH   4   7
ATOM      7  C   UNL     1       2.363   7.522  18.815  0.00  0.00    +0.000 A 
ATOM      8  C   UNL     1       3.279   7.704  17.766  0.00  0.00    +0.000 A 
ATOM      9  C   UNL     1       4.316   6.797  17.531  0.00  0.00    +0.000 A 
ATOM     10  C   UNL     1       4.458   5.691  18.372  0.00  0.00    +0.000 A 
ATOM     11  C   UNL     1       3.576   5.458  19.427  0.00  0.00    +0.000 A 
ATOM     12  C   UNL     1       2.524   6.368  19.608  0.00  0.00    +0.000 A 
BRANCH  10  13
ATOM     13  N   UNL     1       5.576   4.802  18.136  0.00  0.00    +0.000 N 
ATOM     14  O   UNL     1       6.516   4.860  18.942  0.00  0.00    +0.000 OA
ATOM     15  O   UNL     1       5.495   4.023  17.177  0.00  0.00    +0.000 OA
ENDBRANCH  10  13
BRANCH  11  16
ATOM     16  O   UNL     1       3.724   4.328  20.192  0.00  0.00    +0.000 OA
BRANCH  16  17
ATOM     17  C   UNL     1       2.952   3.188  19.792  0.00  0.00    +0.000 C 
BRANCH  17  18
ATOM     18  C   UNL     1       3.834   2.079  19.234  0.00  0.00    +0.000 C 
ATOM     19  O   UNL     1       3.479   1.288  18.373  0.00  0.00    +0.000 OA
BRANCH  18  20
ATOM     20  O   UNL     1       5.072   2.057  19.780  0.00  0.00    +0.000 OA
ATOM     21  H   UNL     1       5.728   1.670  19.162  0.00  0.00    +0.000 HD
ENDBRANCH  18  20
ENDBRANCH  17  18
ENDBRANCH  16  17
ENDBRANCH  11  16
ENDBRANCH   4   7
BRANCH   1  22
ATOM     22  S   UNL     1      -0.022  12.260  20.299  0.00  0.00    +0.000 S 
ATOM     23  O   UNL     1       0.523  12.979  19.165  0.00  0.00    +0.000 OA
ATOM     24  O   UNL     1       0.708  12.185  21.547  0.00  0.00    +0.000 OA
BRANCH  22  28
ATOM     25  C   UNL     1      -4.107  13.961  21.542  0.00  0.00    +0.000 A 
ATOM     26  C   UNL     1      -4.029  12.990  20.539  0.00  0.00    +0.000 A 
ATOM     27  C   UNL     1      -2.781  12.505  20.111  0.00  0.00    +0.000 A 
ATOM     28  C   UNL     1      -1.601  13.015  20.662  0.00  0.00    +0.000 A 
ATOM     29  C   UNL     1      -1.673  13.991  21.661  0.00  0.00    +0.000 A 
ATOM     30  C   UNL     1      -2.918  14.462  22.090  0.00  0.00    +0.000 A 
BRANCH  25  31
ATOM     31  O   UNL     1      -5.243  14.498  22.081  0.00  0.00    +0.000 OA
BRANCH  31  33
ATOM     32  C   UNL     1      -6.405  15.524  23.894  0.00  0.00    +0.000 C 
ATOM     33  C   UNL     1      -5.519  14.346  23.478  0.00  0.00    +0.000 C 
ATOM     34  C   UNL     1      -6.265  13.037  23.716  0.00  0.00    +0.000 C 
ENDBRANCH  31  33
ENDBRANCH  25  31
ENDBRANCH  22  28
ENDBRANCH   1  22
TORSDOF 10
ENDMDL
MODEL 9
REMARK VINA RESULT:      -7.4      1.498      2.194
REMARK  Name = 
REMARK  12 active torsions:
REMARK  status: ('A' for Active; 'I' for Inactive)
REMARK    1  A    between atoms: C_1  and  C_2
REMARK    2  A    between atoms: C_2  and  C_3
REMARK    3  A    between atoms: C_2  and  O_4
REMARK    4  A    between atoms: O_4  and  C_5
REMARK    5  A    between atoms: C_8  and  S_9
REMARK    6  A    between atoms: S_9  and  N_12
REMARK    7  A    between atoms: N_15  and  C_16
REMARK    8  A    between atoms: C_19  and  N_20
REMARK    9  A    between atoms: C_23  and  O_24
REMARK   10  A    between atoms: O_24  and  C_25
REMARK   11  A    between atoms: C_25  and  C_26
REMARK   12  A    between atoms: C_26  and  O_28
REMARK                            x       y       z     vdW  Elec       q    Type
REMARK                         _______ _______ _______ _____ _____    ______ ____
ROOT
ATOM      1  N   UNL     1       0.342  11.321  19.352  0.00  0.00    +0.000 NA
ATOM      2  C   UNL     1       0.353  10.328  20.444  0.00  0.00    +0.000 C 
ATOM      3  C   UNL     1       0.645   8.915  19.928  0.00  0.00    +0.000 C 
ATOM      4  N   UNL     1       1.853   8.880  19.069  0.00  0.00    +0.000 N 
ATOM      5  C   UNL     1       1.898   9.915  18.005  0.00  0.00    +0.000 C 
ATOM      6  C   UNL     1       1.603  11.317  18.579  0.00  0.00    +0.000 C 
ENDROOT
BRANCH   4   7
ATOM      7  C   UNL     1       2.468   7.649  18.830  0.00  0.00    +0.000 A 
ATOM      8  C   UNL     1       3.398   7.495  17.790  0.00  0.00    +0.000 A 
ATOM      9  C   UNL     1       4.103   6.302  17.606  0.00  0.00    +0.000 A 
ATOM     10  C   UNL     1       3.892   5.242  18.490  0.00  0.00    +0.000 A 
ATOM     11  C   UNL     1       2.978   5.337  19.539  0.00  0.00    +0.000 A 
ATOM     12  C   UNL     1       2.261   6.535  19.670  0.00  0.00    +0.000 A 
BRANCH  10  13
ATOM     13  N   UNL     1       4.679   4.041  18.306  0.00  0.00    +0.000 N 
ATOM     14  O   UNL     1       5.728   3.954  18.961  0.00  0.00    +0.000 OA
ATOM     15  O   UNL     1       4.231   3.174  17.544  0.00  0.00    +0.000 OA
ENDBRANCH  10  13
BRANCH  11  16
ATOM     16  O   UNL     1       2.766   4.250  20.350  0.00  0.00    +0.000 OA
BRANCH  16  17
ATOM     17  C   UNL     1       1.461   3.661  20.287  0.00  0.00    +0.000 C 
BRANCH  17  18
ATOM     18  C   UNL     1       1.304   2.766  19.066  0.00  0.00    +0.000 C 
ATOM     19  O   UNL     1       0.559   3.009  18.128  0.00  0.00    +0.000 OA
BRANCH  18  20
ATOM     20  O   UNL     1       2.090   1.665  19.107  0.00  0.00    +0.000 OA
ATOM     21  H   UNL     1       2.854   1.793  19.710  0.00  0.00    +0.000 HD
ENDBRANCH  18  20
ENDBRANCH  17  18
ENDBRANCH  16  17
ENDBRANCH  11  16
ENDBRANCH   4   7
BRANCH   1  22
ATOM     22  S   UNL     1      -1.093  11.848  18.666  0.00  0.00    +0.000 S 
ATOM     23  O   UNL     1      -1.713  10.692  18.051  0.00  0.00    +0.000 OA
ATOM     24  O   UNL     1      -0.814  13.038  17.890  0.00  0.00    +0.000 OA
BRANCH  22  28
ATOM     25  C   UNL     1      -3.892  13.459  21.936  0.00  0.00    +0.000 A 
ATOM     26  C   UNL     1      -2.507  13.482  22.127  0.00  0.00    +0.000 A 
ATOM     27  C   UNL     1      -1.645  12.940  21.159  0.00  0.00    +0.000 A 
ATOM     28  C   UNL     1      -2.167  12.340  20.009  0.00  0.00    +0.000 A 
ATOM     29  C   UNL     1      -3.552  12.309  19.815  0.00  0.00    +0.000 A 
ATOM     30  C   UNL     1      -4.404  12.860  20.778  0.00  0.00    +0.000 A 
BRANCH  25  31
ATOM     31  O   UNL     1      -4.846  13.976  22.768  0.00  0.00    +0.000 OA
BRANCH  31  33
ATOM     32  C   UNL     1      -5.007  12.466  24.607  0.00  0.00    +0.000 C 
ATOM     33  C   UNL     1      -5.764  13.107  23.442  0.00  0.00    +0.000 C 
ATOM     34  C   UNL     1      -6.939  13.916  23.980  0.00  0.00    +0.000 C 
ENDBRANCH  31  33
ENDBRANCH  25  31
ENDBRANCH  22  28
ENDBRANCH   1  22
TORSDOF 10
ENDMDL
