MODEL 1
REMARK VINA RESULT:      -8.4      0.000      0.000
REMARK  Name = 
REMARK  4 active torsions:
REMARK  status: ('A' for Active; 'I' for Inactive)
REMARK    1  A    between atoms: C_1  and  N_2
REMARK    2  A    between atoms: C_3  and  C_4
REMARK    3  A    between atoms: C_5  and  C_6
REMARK    4  A    between atoms: C_16  and  N_17
REMARK                            x       y       z     vdW  Elec       q    Type
REMARK                         _______ _______ _______ _____ _____    ______ ____
ROOT
ATOM      1  C   UNL     1       0.652   5.133  20.315  0.00  0.00    +0.000 C 
ATOM      2  N   UNL     1       2.014   5.128  19.723  0.00  0.00    +0.000 N 
ATOM      3  C   UNL     1       2.656   6.303  19.501  0.00  0.00    +0.000 A 
ATOM      4  C   UNL     1       3.793   6.336  18.695  0.00  0.00    +0.000 A 
ATOM      5  C   UNL     1       4.304   5.177  18.102  0.00  0.00    +0.000 A 
ATOM      6  C   UNL     1       3.715   3.939  18.480  0.00  0.00    +0.000 A 
ATOM      7  C   UNL     1       4.168   2.681  18.007  0.00  0.00    +0.000 A 
ATOM      8  C   UNL     1       3.601   1.471  18.407  0.00  0.00    +0.000 A 
ATOM      9  C   UNL     1       2.523   1.475  19.268  0.00  0.00    +0.000 A 
ATOM     10  C   UNL     1       2.009   2.692  19.715  0.00  0.00    +0.000 A 
ATOM     11  C   UNL     1       2.572   3.936  19.328  0.00  0.00    +0.000 A 
ENDROOT
BRANCH   5  12
ATOM     12  N   UNL     1       5.276   5.277  17.112  0.00  0.00    +0.000 N 
ATOM     13  C   UNL     1       4.941   5.864  15.804  0.00  0.00    +0.000 C 
ATOM     14  C   UNL     1       5.602   5.027  14.711  0.00  0.00    +0.000 C 
ATOM     15  C   UNL     1       7.110   4.907  14.930  0.00  0.00    +0.000 C 
ATOM     16  C   UNL     1       7.435   4.435  16.350  0.00  0.00    +0.000 C 
ATOM     17  C   UNL     1       6.717   5.287  17.407  0.00  0.00    +0.000 C 
ENDBRANCH   5  12
BRANCH   3  18
ATOM     18  C   UNL     1       2.087   7.574  19.981  0.00  0.00    +0.000 C 
ATOM     19  C   UNL     1       1.566   8.551  19.211  0.00  0.00    +0.000 C 
BRANCH  19  20
ATOM     20  C   UNL     1       1.075   9.809  19.709  0.00  0.00    +0.000 A 
ATOM     21  C   UNL     1       1.187  11.019  19.053  0.00  0.00    +0.000 A 
ATOM     22  N   UNL     1       0.567  11.980  19.807  0.00  0.00    +0.000 N 
ATOM     23  C   UNL     1       0.047  11.425  20.950  0.00  0.00    +0.000 A 
ATOM     24  C   UNL     1      -0.672  12.037  21.984  0.00  0.00    +0.000 A 
ATOM     25  C   UNL     1      -1.072  11.241  23.059  0.00  0.00    +0.000 A 
ATOM     26  C   UNL     1      -0.760   9.884  23.091  0.00  0.00    +0.000 A 
ATOM     27  C   UNL     1      -0.047   9.284  22.040  0.00  0.00    +0.000 A 
ATOM     28  C   UNL     1       0.366  10.063  20.935  0.00  0.00    +0.000 A 
ATOM     29  H   UNL     1       0.496  12.961  19.568  0.00  0.00    +0.000 HD
ENDBRANCH  19  20
ENDBRANCH   3  18
TORSDOF 3
ENDMDL
MODEL 2
REMARK VINA RESULT:      -8.1      1.955      2.179
REMARK  Name = 
REMARK  4 active torsions:
REMARK  status: ('A' for Active; 'I' for Inactive)
REMARK    1  A    between atoms: C_1  and  N_2
REMARK    2  A    between atoms: C_3  and  C_4
REMARK    3  A    between atoms: C_5  and  C_6
REMARK    4  A    between atoms: C_16  and  N_17
REMARK                            x       y       z     vdW  Elec       q    Type
REMARK                         _______ _______ _______ _____ _____    ______ ____
ROOT
ATOM      1  C   UNL     1       0.874   5.733  20.582  0.00  0.00    +0.000 C 
ATOM      2  N   UNL     1       2.213   5.751  19.940  0.00  0.00    +0.000 N 
ATOM      3  C   UNL     1       2.624   6.858  19.269  0.00  0.00    +0.000 A 
ATOM      4  C   UNL     1       3.734   6.794  18.430  0.00  0.00    +0.000 A 
ATOM      5  C   UNL     1       4.453   5.607  18.255  0.00  0.00    +0.000 A 
ATOM      6  C   UNL     1       4.107   4.509  19.088  0.00  0.00    +0.000 A 
ATOM      7  C   UNL     1       4.787   3.264  19.066  0.00  0.00    +0.000 A 
ATOM      8  C   UNL     1       4.457   2.203  19.908  0.00  0.00    +0.000 A 
ATOM      9  C   UNL     1       3.398   2.331  20.782  0.00  0.00    +0.000 A 
ATOM     10  C   UNL     1       2.665   3.518  20.800  0.00  0.00    +0.000 A 
ATOM     11  C   UNL     1       2.985   4.614  19.958  0.00  0.00    +0.000 A 
ENDROOT
BRANCH   5  12
ATOM     12  N   UNL     1       5.389   5.509  17.230  0.00  0.00    +0.000 N 
ATOM     13  C   UNL     1       5.029   5.908  15.860  0.00  0.00    +0.000 C 
ATOM     14  C   UNL     1       5.609   4.883  14.887  0.00  0.00    +0.000 C 
ATOM     15  C   UNL     1       7.117   4.724  15.073  0.00  0.00    +0.000 C 
ATOM     16  C   UNL     1       7.477   4.457  16.537  0.00  0.00    +0.000 C 
ATOM     17  C   UNL     1       6.840   5.493  17.474  0.00  0.00    +0.000 C 
ENDBRANCH   5  12
BRANCH   3  18
ATOM     18  C   UNL     1       1.827   8.096  19.303  0.00  0.00    +0.000 C 
ATOM     19  C   UNL     1       1.741   9.011  18.316  0.00  0.00    +0.000 C 
BRANCH  19  20
ATOM     20  C   UNL     1       1.001  10.243  18.407  0.00  0.00    +0.000 A 
ATOM     21  C   UNL     1       1.554  11.482  18.660  0.00  0.00    +0.000 A 
ATOM     22  N   UNL     1       0.554  12.419  18.627  0.00  0.00    +0.000 N 
ATOM     23  C   UNL     1      -0.650  11.818  18.355  0.00  0.00    +0.000 A 
ATOM     24  C   UNL     1      -1.917  12.397  18.218  0.00  0.00    +0.000 A 
ATOM     25  C   UNL     1      -2.996  11.549  17.961  0.00  0.00    +0.000 A 
ATOM     26  C   UNL     1      -2.806  10.175  17.848  0.00  0.00    +0.000 A 
ATOM     27  C   UNL     1      -1.526   9.611  17.978  0.00  0.00    +0.000 A 
ATOM     28  C   UNL     1      -0.413  10.444  18.232  0.00  0.00    +0.000 A 
ATOM     29  H   UNL     1       0.673  13.412  18.779  0.00  0.00    +0.000 HD
ENDBRANCH  19  20
ENDBRANCH   3  18
TORSDOF 3
ENDMDL
MODEL 3
REMARK VINA RESULT:      -8.0      1.881      8.554
REMARK  Name = 
REMARK  4 active torsions:
REMARK  status: ('A' for Active; 'I' for Inactive)
REMARK    1  A    between atoms: C_1  and  N_2
REMARK    2  A    between atoms: C_3  and  C_4
REMARK    3  A    between atoms: C_5  and  C_6
REMARK    4  A    between atoms: C_16  and  N_17
REMARK                            x       y       z     vdW  Elec       q    Type
REMARK                         _______ _______ _______ _____ _____    ______ ____
ROOT
ATOM      1  C   UNL     1       1.468   7.264  21.004  0.00  0.00    +0.000 C 
ATOM      2  N   UNL     1       1.133   8.553  20.348  0.00  0.00    +0.000 N 
ATOM      3  C   UNL     1       1.566   8.799  19.085  0.00  0.00    +0.000 A 
ATOM      4  C   UNL     1       1.512  10.091  18.567  0.00  0.00    +0.000 A 
ATOM      5  C   UNL     1       1.014  11.161  19.318  0.00  0.00    +0.000 A 
ATOM      6  C   UNL     1       0.418  10.854  20.571  0.00  0.00    +0.000 A 
ATOM      7  C   UNL     1      -0.182  11.826  21.413  0.00  0.00    +0.000 A 
ATOM      8  C   UNL     1      -0.789  11.509  22.626  0.00  0.00    +0.000 A 
ATOM      9  C   UNL     1      -0.784  10.203  23.071  0.00  0.00    +0.000 A 
ATOM     10  C   UNL     1      -0.157   9.222  22.303  0.00  0.00    +0.000 A 
ATOM     11  C   UNL     1       0.462   9.517  21.061  0.00  0.00    +0.000 A 
ENDROOT
BRANCH   5  12
ATOM     12  N   UNL     1       1.206  12.466  18.875  0.00  0.00    +0.000 N 
ATOM     13  C   UNL     1       2.531  12.901  18.407  0.00  0.00    +0.000 C 
ATOM     14  C   UNL     1       2.803  14.303  18.950  0.00  0.00    +0.000 C 
ATOM     15  C   UNL     1       1.695  15.280  18.560  0.00  0.00    +0.000 C 
ATOM     16  C   UNL     1       0.312  14.735  18.925  0.00  0.00    +0.000 C 
ATOM     17  C   UNL     1       0.105  13.312  18.387  0.00  0.00    +0.000 C 
ENDBRANCH   5  12
BRANCH   3  18
ATOM     18  C   UNL     1       2.229   7.744  18.299  0.00  0.00    +0.000 C 
ATOM     19  C   UNL     1       2.607   6.533  18.757  0.00  0.00    +0.000 C 
BRANCH  19  20
ATOM     20  C   UNL     1       3.311   5.549  17.977  0.00  0.00    +0.000 A 
ATOM     21  C   UNL     1       2.795   4.329  17.589  0.00  0.00    +0.000 A 
ATOM     22  N   UNL     1       3.733   3.685  16.824  0.00  0.00    +0.000 N 
ATOM     23  C   UNL     1       4.860   4.460  16.701  0.00  0.00    +0.000 A 
ATOM     24  C   UNL     1       6.044   4.196  16.002  0.00  0.00    +0.000 A 
ATOM     25  C   UNL     1       7.059   5.154  16.057  0.00  0.00    +0.000 A 
ATOM     26  C   UNL     1       6.888   6.327  16.786  0.00  0.00    +0.000 A 
ATOM     27  C   UNL     1       5.690   6.580  17.474  0.00  0.00    +0.000 A 
ATOM     28  C   UNL     1       4.641   5.633  17.432  0.00  0.00    +0.000 A 
ATOM     29  H   UNL     1       3.624   2.770  16.406  0.00  0.00    +0.000 HD
ENDBRANCH  19  20
ENDBRANCH   3  18
TORSDOF 3
ENDMDL
MODEL 4
REMARK VINA RESULT:      -7.9      1.883      2.492
REMARK  Name = 
REMARK  4 active torsions:
REMARK  status: ('A' for Active; 'I' for Inactive)
REMARK    1  A    between atoms: C_1  and  N_2
REMARK    2  A    between atoms: C_3  and  C_4
REMARK    3  A    between atoms: C_5  and  C_6
REMARK    4  A    between atoms: C_16  and  N_17
REMARK                            x       y       z     vdW  Elec       q    Type
REMARK                         _______ _______ _______ _____ _____    ______ ____
ROOT
ATOM      1  C   UNL     1       0.831   5.791  20.649  0.00  0.00    +0.000 C 
ATOM      2  N   UNL     1       2.171   5.819  20.010  0.00  0.00    +0.000 N 
ATOM      3  C   UNL     1       2.585   6.939  19.362  0.00  0.00    +0.000 A 
ATOM      4  C   UNL     1       3.696   6.890  18.523  0.00  0.00    +0.000 A 
ATOM      5  C   UNL     1       4.414   5.706  18.327  0.00  0.00    +0.000 A 
ATOM      6  C   UNL     1       4.065   4.591  19.138  0.00  0.00    +0.000 A 
ATOM      7  C   UNL     1       4.743   3.346  19.092  0.00  0.00    +0.000 A 
ATOM      8  C   UNL     1       4.410   2.270  19.912  0.00  0.00    +0.000 A 
ATOM      9  C   UNL     1       3.350   2.382  20.788  0.00  0.00    +0.000 A 
ATOM     10  C   UNL     1       2.618   3.569  20.827  0.00  0.00    +0.000 A 
ATOM     11  C   UNL     1       2.941   4.681  20.008  0.00  0.00    +0.000 A 
ENDROOT
BRANCH   5  12
ATOM     12  N   UNL     1       5.351   5.626  17.302  0.00  0.00    +0.000 N 
ATOM     13  C   UNL     1       4.986   6.023  15.933  0.00  0.00    +0.000 C 
ATOM     14  C   UNL     1       5.583   5.011  14.957  0.00  0.00    +0.000 C 
ATOM     15  C   UNL     1       7.094   4.877  15.143  0.00  0.00    +0.000 C 
ATOM     16  C   UNL     1       7.458   4.611  16.606  0.00  0.00    +0.000 C 
ATOM     17  C   UNL     1       6.803   5.633  17.546  0.00  0.00    +0.000 C 
ENDBRANCH   5  12
BRANCH   3  18
ATOM     18  C   UNL     1       1.789   8.177  19.418  0.00  0.00    +0.000 C 
ATOM     19  C   UNL     1       1.548   9.012  18.387  0.00  0.00    +0.000 C 
BRANCH  19  20
ATOM     20  C   UNL     1       0.818  10.249  18.492  0.00  0.00    +0.000 A 
ATOM     21  C   UNL     1      -0.546  10.350  18.677  0.00  0.00    +0.000 A 
ATOM     22  N   UNL     1      -0.874  11.678  18.774  0.00  0.00    +0.000 N 
ATOM     23  C   UNL     1       0.253  12.454  18.657  0.00  0.00    +0.000 A 
ATOM     24  C   UNL     1       0.377  13.848  18.711  0.00  0.00    +0.000 A 
ATOM     25  C   UNL     1       1.649  14.395  18.538  0.00  0.00    +0.000 A 
ATOM     26  C   UNL     1       2.751  13.573  18.318  0.00  0.00    +0.000 A 
ATOM     27  C   UNL     1       2.610  12.176  18.277  0.00  0.00    +0.000 A 
ATOM     28  C   UNL     1       1.336  11.591  18.455  0.00  0.00    +0.000 A 
ATOM     29  H   UNL     1      -1.806  12.045  18.912  0.00  0.00    +0.000 HD
ENDBRANCH  19  20
ENDBRANCH   3  18
TORSDOF 3
ENDMDL
MODEL 5
REMARK VINA RESULT:      -7.9      1.926      8.527
REMARK  Name = 
REMARK  4 active torsions:
REMARK  status: ('A' for Active; 'I' for Inactive)
REMARK    1  A    between atoms: C_1  and  N_2
REMARK    2  A    between atoms: C_3  and  C_4
REMARK    3  A    between atoms: C_5  and  C_6
REMARK    4  A    between atoms: C_16  and  N_17
REMARK                            x       y       z     vdW  Elec       q    Type
REMARK                         _______ _______ _______ _____ _____    ______ ____
ROOT
ATOM      1  C   UNL     1       1.214   7.659  21.293  0.00  0.00    +0.000 C 
ATOM      2  N   UNL     1       0.885   8.917  20.576  0.00  0.00    +0.000 N 
ATOM      3  C   UNL     1       1.333   9.107  19.308  0.00  0.00    +0.000 A 
ATOM      4  C   UNL     1       1.283  10.375  18.732  0.00  0.00    +0.000 A 
ATOM      5  C   UNL     1       0.773  11.476  19.428  0.00  0.00    +0.000 A 
ATOM      6  C   UNL     1       0.161  11.223  20.686  0.00  0.00    +0.000 A 
ATOM      7  C   UNL     1      -0.451  12.230  21.475  0.00  0.00    +0.000 A 
ATOM      8  C   UNL     1      -1.074  11.966  22.694  0.00  0.00    +0.000 A 
ATOM      9  C   UNL     1      -1.071  10.682  23.196  0.00  0.00    +0.000 A 
ATOM     10  C   UNL     1      -0.432   9.669  22.482  0.00  0.00    +0.000 A 
ATOM     11  C   UNL     1       0.202   9.910  21.236  0.00  0.00    +0.000 A 
ENDROOT
BRANCH   5  12
ATOM     12  N   UNL     1       0.967  12.760  18.930  0.00  0.00    +0.000 N 
ATOM     13  C   UNL     1       2.305  13.190  18.494  0.00  0.00    +0.000 C 
ATOM     14  C   UNL     1       2.538  14.620  18.978  0.00  0.00    +0.000 C 
ATOM     15  C   UNL     1       1.435  15.562  18.496  0.00  0.00    +0.000 C 
ATOM     16  C   UNL     1       0.045  15.016  18.831  0.00  0.00    +0.000 C 
ATOM     17  C   UNL     1      -0.123  13.566  18.356  0.00  0.00    +0.000 C 
ENDBRANCH   5  12
BRANCH   3  18
ATOM     18  C   UNL     1       2.009   8.020  18.579  0.00  0.00    +0.000 C 
ATOM     19  C   UNL     1       3.297   8.012  18.182  0.00  0.00    +0.000 C 
BRANCH  19  20
ATOM     20  C   UNL     1       3.909   6.959  17.414  0.00  0.00    +0.000 A 
ATOM     21  C   UNL     1       4.798   7.150  16.376  0.00  0.00    +0.000 A 
ATOM     22  N   UNL     1       5.201   5.922  15.918  0.00  0.00    +0.000 N 
ATOM     23  C   UNL     1       4.592   4.924  16.639  0.00  0.00    +0.000 A 
ATOM     24  C   UNL     1       4.727   3.536  16.516  0.00  0.00    +0.000 A 
ATOM     25  C   UNL     1       3.968   2.731  17.368  0.00  0.00    +0.000 A 
ATOM     26  C   UNL     1       3.109   3.300  18.304  0.00  0.00    +0.000 A 
ATOM     27  C   UNL     1       2.993   4.696  18.420  0.00  0.00    +0.000 A 
ATOM     28  C   UNL     1       3.753   5.537  17.576  0.00  0.00    +0.000 A 
ATOM     29  H   UNL     1       5.851   5.761  15.161  0.00  0.00    +0.000 HD
ENDBRANCH  19  20
ENDBRANCH   3  18
TORSDOF 3
ENDMDL
MODEL 6
REMARK VINA RESULT:      -7.8      2.099      2.347
REMARK  Name = 
REMARK  4 active torsions:
REMARK  status: ('A' for Active; 'I' for Inactive)
REMARK    1  A    between atoms: C_1  and  N_2
REMARK    2  A    between atoms: C_3  and  C_4
REMARK    3  A    between atoms: C_5  and  C_6
REMARK    4  A    between atoms: C_16  and  N_17
REMARK                            x       y       z     vdW  Elec       q    Type
REMARK                         _______ _______ _______ _____ _____    ______ ____
ROOT
ATOM      1  C   UNL     1       0.992   5.809  20.765  0.00  0.00    +0.000 C 
ATOM      2  N   UNL     1       2.285   5.653  20.051  0.00  0.00    +0.000 N 
ATOM      3  C   UNL     1       2.739   6.653  19.252  0.00  0.00    +0.000 A 
ATOM      4  C   UNL     1       3.785   6.415  18.363  0.00  0.00    +0.000 A 
ATOM      5  C   UNL     1       4.396   5.161  18.268  0.00  0.00    +0.000 A 
ATOM      6  C   UNL     1       4.017   4.180  19.225  0.00  0.00    +0.000 A 
ATOM      7  C   UNL     1       4.594   2.885  19.289  0.00  0.00    +0.000 A 
ATOM      8  C   UNL     1       4.236   1.941  20.250  0.00  0.00    +0.000 A 
ATOM      9  C   UNL     1       3.247   2.241  21.165  0.00  0.00    +0.000 A 
ATOM     10  C   UNL     1       2.612   3.481  21.104  0.00  0.00    +0.000 A 
ATOM     11  C   UNL     1       2.964   4.462  20.141  0.00  0.00    +0.000 A 
ENDROOT
BRANCH   5  12
ATOM     12  N   UNL     1       5.254   4.887  17.208  0.00  0.00    +0.000 N 
ATOM     13  C   UNL     1       6.711   4.932  17.405  0.00  0.00    +0.000 C 
ATOM     14  C   UNL     1       7.345   5.615  16.194  0.00  0.00    +0.000 C 
ATOM     15  C   UNL     1       6.952   4.921  14.891  0.00  0.00    +0.000 C 
ATOM     16  C   UNL     1       5.435   4.752  14.779  0.00  0.00    +0.000 C 
ATOM     17  C   UNL     1       4.845   4.097  16.036  0.00  0.00    +0.000 C 
ENDBRANCH   5  12
BRANCH   3  18
ATOM     18  C   UNL     1       2.045   7.951  19.206  0.00  0.00    +0.000 C 
ATOM     19  C   UNL     1       2.148   8.871  18.225  0.00  0.00    +0.000 C 
BRANCH  19  20
ATOM     20  C   UNL     1       1.505  10.158  18.242  0.00  0.00    +0.000 A 
ATOM     21  C   UNL     1       2.162  11.372  18.284  0.00  0.00    +0.000 A 
ATOM     22  N   UNL     1       1.227  12.373  18.242  0.00  0.00    +0.000 N 
ATOM     23  C   UNL     1      -0.037  11.841  18.172  0.00  0.00    +0.000 A 
ATOM     24  C   UNL     1      -1.271  12.497  18.099  0.00  0.00    +0.000 A 
ATOM     25  C   UNL     1      -2.425  11.711  18.059  0.00  0.00    +0.000 A 
ATOM     26  C   UNL     1      -2.338  10.322  18.095  0.00  0.00    +0.000 A 
ATOM     27  C   UNL     1      -1.091   9.680  18.158  0.00  0.00    +0.000 A 
ATOM     28  C   UNL     1       0.096  10.448  18.193  0.00  0.00    +0.000 A 
ATOM     29  H   UNL     1       1.426  13.365  18.260  0.00  0.00    +0.000 HD
ENDBRANCH  19  20
ENDBRANCH   3  18
TORSDOF 3
ENDMDL
MODEL 7
REMARK VINA RESULT:      -7.8      0.992      1.081
REMARK  Name = 
REMARK  4 active torsions:
REMARK  status: ('A' for Active; 'I' for Inactive)
REMARK    1  A    between atoms: C_1  and  N_2
REMARK    2  A    between atoms: C_3  and  C_4
REMARK    3  A    between atoms: C_5  and  C_6
REMARK    4  A    between atoms: C_16  and  N_17
REMARK                            x       y       z     vdW  Elec       q    Type
REMARK                         _______ _______ _______ _____ _____    ______ ____
ROOT
ATOM      1  C   UNL     1       0.778   5.904  20.483  0.00  0.00    +0.000 C 
ATOM      2  N   UNL     1       2.131   5.901  19.870  0.00  0.00    +0.000 N 
ATOM      3  C   UNL     1       2.555   6.983  19.169  0.00  0.00    +0.000 A 
ATOM      4  C   UNL     1       3.684   6.890  18.357  0.00  0.00    +0.000 A 
ATOM      5  C   UNL     1       4.409   5.699  18.242  0.00  0.00    +0.000 A 
ATOM      6  C   UNL     1       4.044   4.631  19.108  0.00  0.00    +0.000 A 
ATOM      7  C   UNL     1       4.726   3.388  19.146  0.00  0.00    +0.000 A 
ATOM      8  C   UNL     1       4.379   2.358  20.020  0.00  0.00    +0.000 A 
ATOM      9  C   UNL     1       3.301   2.517  20.865  0.00  0.00    +0.000 A 
ATOM     10  C   UNL     1       2.565   3.701  20.822  0.00  0.00    +0.000 A 
ATOM     11  C   UNL     1       2.903   4.766  19.948  0.00  0.00    +0.000 A 
ENDROOT
BRANCH   5  12
ATOM     12  N   UNL     1       5.366   5.565  17.243  0.00  0.00    +0.000 N 
ATOM     13  C   UNL     1       5.039   5.918  15.852  0.00  0.00    +0.000 C 
ATOM     14  C   UNL     1       5.638   4.861  14.927  0.00  0.00    +0.000 C 
ATOM     15  C   UNL     1       7.142   4.705  15.153  0.00  0.00    +0.000 C 
ATOM     16  C   UNL     1       7.467   4.486  16.633  0.00  0.00    +0.000 C 
ATOM     17  C   UNL     1       6.812   5.553  17.520  0.00  0.00    +0.000 C 
ENDBRANCH   5  12
BRANCH   3  18
ATOM     18  C   UNL     1       1.756   8.220  19.138  0.00  0.00    +0.000 C 
ATOM     19  C   UNL     1       1.440   8.986  20.202  0.00  0.00    +0.000 C 
BRANCH  19  20
ATOM     20  C   UNL     1       0.602  10.155  20.145  0.00  0.00    +0.000 A 
ATOM     21  C   UNL     1       0.458  10.974  19.044  0.00  0.00    +0.000 A 
ATOM     22  N   UNL     1      -0.451  11.954  19.347  0.00  0.00    +0.000 N 
ATOM     23  C   UNL     1      -0.910  11.795  20.631  0.00  0.00    +0.000 A 
ATOM     24  C   UNL     1      -1.850  12.557  21.337  0.00  0.00    +0.000 A 
ATOM     25  C   UNL     1      -2.126  12.191  22.655  0.00  0.00    +0.000 A 
ATOM     26  C   UNL     1      -1.482  11.103  23.240  0.00  0.00    +0.000 A 
ATOM     27  C   UNL     1      -0.550  10.344  22.514  0.00  0.00    +0.000 A 
ATOM     28  C   UNL     1      -0.254  10.685  21.174  0.00  0.00    +0.000 A 
ATOM     29  H   UNL     1      -0.749  12.694  18.724  0.00  0.00    +0.000 HD
ENDBRANCH  19  20
ENDBRANCH   3  18
TORSDOF 3
ENDMDL
MODEL 8
REMARK VINA RESULT:      -7.7      2.179      8.705
REMARK  Name = 
REMARK  4 active torsions:
REMARK  status: ('A' for Active; 'I' for Inactive)
REMARK    1  A    between atoms: C_1  and  N_2
REMARK    2  A    between atoms: C_3  and  C_4
REMARK    3  A    between atoms: C_5  and  C_6
REMARK    4  A    between atoms: C_16  and  N_17
REMARK                            x       y       z     vdW  Elec       q    Type
REMARK                         _______ _______ _______ _____ _____    ______ ____
ROOT
ATOM      1  C   UNL     1      -0.393   8.711  21.901  0.00  0.00    +0.000 C 
ATOM      2  N   UNL     1      -0.028   9.976  21.214  0.00  0.00    +0.000 N 
ATOM      3  C   UNL     1       0.753   9.939  20.103  0.00  0.00    +0.000 A 
ATOM      4  C   UNL     1       1.335  11.109  19.621  0.00  0.00    +0.000 A 
ATOM      5  C   UNL     1       1.136  12.342  20.251  0.00  0.00    +0.000 A 
ATOM      6  C   UNL     1       0.188  12.384  21.310  0.00  0.00    +0.000 A 
ATOM      7  C   UNL     1      -0.162  13.573  22.001  0.00  0.00    +0.000 A 
ATOM      8  C   UNL     1      -1.114  13.608  23.018  0.00  0.00    +0.000 A 
ATOM      9  C   UNL     1      -1.728  12.439  23.418  0.00  0.00    +0.000 A 
ATOM     10  C   UNL     1      -1.374  11.237  22.805  0.00  0.00    +0.000 A 
ATOM     11  C   UNL     1      -0.414  11.176  21.763  0.00  0.00    +0.000 A 
ENDROOT
BRANCH   5  12
ATOM     12  N   UNL     1       1.924  13.433  19.902  0.00  0.00    +0.000 N 
ATOM     13  C   UNL     1       3.015  13.871  20.786  0.00  0.00    +0.000 C 
ATOM     14  C   UNL     1       3.010  15.397  20.848  0.00  0.00    +0.000 C 
ATOM     15  C   UNL     1       3.103  16.015  19.454  0.00  0.00    +0.000 C 
ATOM     16  C   UNL     1       2.049  15.432  18.510  0.00  0.00    +0.000 C 
ATOM     17  C   UNL     1       2.073  13.897  18.513  0.00  0.00    +0.000 C 
ENDBRANCH   5  12
BRANCH   3  18
ATOM     18  C   UNL     1       1.113   8.654  19.480  0.00  0.00    +0.000 C 
ATOM     19  C   UNL     1       2.106   7.833  19.875  0.00  0.00    +0.000 C 
BRANCH  19  20
ATOM     20  C   UNL     1       2.473   6.613  19.203  0.00  0.00    +0.000 A 
ATOM     21  C   UNL     1       3.336   6.529  18.129  0.00  0.00    +0.000 A 
ATOM     22  N   UNL     1       3.477   5.209  17.789  0.00  0.00    +0.000 N 
ATOM     23  C   UNL     1       2.722   4.420  18.622  0.00  0.00    +0.000 A 
ATOM     24  C   UNL     1       2.585   3.027  18.638  0.00  0.00    +0.000 A 
ATOM     25  C   UNL     1       1.726   2.468  19.585  0.00  0.00    +0.000 A 
ATOM     26  C   UNL     1       1.032   3.279  20.479  0.00  0.00    +0.000 A 
ATOM     27  C   UNL     1       1.189   4.675  20.456  0.00  0.00    +0.000 A 
ATOM     28  C   UNL     1       2.057   5.270  19.512  0.00  0.00    +0.000 A 
ATOM     29  H   UNL     1       4.052   4.854  17.036  0.00  0.00    +0.000 HD
ENDBRANCH  19  20
ENDBRANCH   3  18
TORSDOF 3
ENDMDL
MODEL 9
REMARK VINA RESULT:      -7.6      0.973      2.040
REMARK  Name = 
REMARK  4 active torsions:
REMARK  status: ('A' for Active; 'I' for Inactive)
REMARK    1  A    between atoms: C_1  and  N_2
REMARK    2  A    between atoms: C_3  and  C_4
REMARK    3  A    between atoms: C_5  and  C_6
REMARK    4  A    between atoms: C_16  and  N_17
REMARK                            x       y       z     vdW  Elec       q    Type
REMARK                         _______ _______ _______ _____ _____    ______ ____
ROOT
ATOM      1  C   UNL     1       0.515   5.140  20.350  0.00  0.00    +0.000 C 
ATOM      2  N   UNL     1       1.898   5.150  19.810  0.00  0.00    +0.000 N 
ATOM      3  C   UNL     1       2.552   6.329  19.654  0.00  0.00    +0.000 A 
ATOM      4  C   UNL     1       3.718   6.386  18.892  0.00  0.00    +0.000 A 
ATOM      5  C   UNL     1       4.247   5.247  18.277  0.00  0.00    +0.000 A 
ATOM      6  C   UNL     1       3.640   3.999  18.587  0.00  0.00    +0.000 A 
ATOM      7  C   UNL     1       4.106   2.756  18.086  0.00  0.00    +0.000 A 
ATOM      8  C   UNL     1       3.521   1.536  18.421  0.00  0.00    +0.000 A 
ATOM      9  C   UNL     1       2.413   1.514  19.241  0.00  0.00    +0.000 A 
ATOM     10  C   UNL     1       1.885   2.716  19.712  0.00  0.00    +0.000 A 
ATOM     11  C   UNL     1       2.467   3.970  19.393  0.00  0.00    +0.000 A 
ENDROOT
BRANCH   5  12
ATOM     12  N   UNL     1       5.255   5.379  17.327  0.00  0.00    +0.000 N 
ATOM     13  C   UNL     1       4.990   6.076  16.059  0.00  0.00    +0.000 C 
ATOM     14  C   UNL     1       5.652   5.294  14.926  0.00  0.00    +0.000 C 
ATOM     15  C   UNL     1       7.145   5.092  15.182  0.00  0.00    +0.000 C 
ATOM     16  C   UNL     1       7.402   4.503  16.571  0.00  0.00    +0.000 C 
ATOM     17  C   UNL     1       6.685   5.303  17.667  0.00  0.00    +0.000 C 
ENDBRANCH   5  12
BRANCH   3  18
ATOM     18  C   UNL     1       1.969   7.585  20.158  0.00  0.00    +0.000 C 
ATOM     19  C   UNL     1       1.505   8.602  19.405  0.00  0.00    +0.000 C 
BRANCH  19  20
ATOM     20  C   UNL     1       1.000   9.843  19.932  0.00  0.00    +0.000 A 
ATOM     21  C   UNL     1       0.179   9.959  21.036  0.00  0.00    +0.000 A 
ATOM     22  N   UNL     1      -0.057  11.290  21.262  0.00  0.00    +0.000 N 
ATOM     23  C   UNL     1       0.594  12.055  20.326  0.00  0.00    +0.000 A 
ATOM     24  C   UNL     1       0.636  13.448  20.194  0.00  0.00    +0.000 A 
ATOM     25  C   UNL     1       1.364  13.979  19.128  0.00  0.00    +0.000 A 
ATOM     26  C   UNL     1       2.020  13.142  18.230  0.00  0.00    +0.000 A 
ATOM     27  C   UNL     1       1.976  11.746  18.383  0.00  0.00    +0.000 A 
ATOM     28  C   UNL     1       1.253  11.178  19.457  0.00  0.00    +0.000 A 
ATOM     29  H   UNL     1      -0.628  11.668  22.008  0.00  0.00    +0.000 HD
ENDBRANCH  19  20
ENDBRANCH   3  18
TORSDOF 3
ENDMDL
