MODEL 1
REMARK VINA RESULT:      -9.2      0.000      0.000
REMARK  Name = 
REMARK  10 active torsions:
REMARK  status: ('A' for Active; 'I' for Inactive)
REMARK    1  A    between atoms: C_1  and  C_2
REMARK    2  A    between atoms: C_2  and  C_3
REMARK    3  A    between atoms: C_3  and  N_4
REMARK    4  A    between atoms: C_3  and  C_18
REMARK    5  A    between atoms: N_4  and  C_5
REMARK    6  A    between atoms: C_10  and  C_11
REMARK    7  A    between atoms: C_22  and  N_23
REMARK    8  A    between atoms: C_24  and  C_26
REMARK    9  A    between atoms: C_29  and  O_30
REMARK   10  A    between atoms: O_30  and  C_31
REMARK                            x       y       z     vdW  Elec       q    Type
REMARK                         _______ _______ _______ _____ _____    ______ ____
ROOT
ATOM      1  C   UNL     1       6.128   5.687  15.535  0.00  0.00    +0.000 C 
ENDROOT
BRANCH   1   2
ATOM      2  C   UNL     1       6.954   5.718  16.819  0.00  0.00    +0.000 A 
ATOM      3  C   UNL     1       7.026   4.571  17.622  0.00  0.00    +0.000 A 
ATOM      4  C   UNL     1       7.619   4.635  18.876  0.00  0.00    +0.000 A 
ATOM      5  C   UNL     1       8.166   5.835  19.330  0.00  0.00    +0.000 A 
ATOM      6  C   UNL     1       8.141   6.986  18.536  0.00  0.00    +0.000 A 
ATOM      7  C   UNL     1       7.523   6.921  17.286  0.00  0.00    +0.000 A 
BRANCH   6   8
ATOM      8  N   UNL     1       8.677   8.227  18.951  0.00  0.00    +0.000 N 
ATOM      9  C   UNL     1       8.459   9.428  18.316  0.00  0.00    +0.000 C 
ATOM     10  O   UNL     1       7.714   9.619  17.355  0.00  0.00    +0.000 OA
ATOM     11  H   UNL     1       9.158   8.231  19.843  0.00  0.00    +0.000 HD
BRANCH   9  12
ATOM     12  C   UNL     1       9.123  10.623  18.868  0.00  0.00    +0.000 A 
ATOM     13  C   UNL     1       9.709  10.705  20.131  0.00  0.00    +0.000 A 
ATOM     14  C   UNL     1      10.399  11.872  20.477  0.00  0.00    +0.000 A 
ATOM     15  C   UNL     1      10.468  12.906  19.553  0.00  0.00    +0.000 A 
ATOM     16  N   UNL     1       9.889  12.857  18.336  0.00  0.00    +0.000 NA
ATOM     17  C   UNL     1       9.243  11.717  18.017  0.00  0.00    +0.000 A 
BRANCH  15  18
ATOM     18  O   UNL     1      11.187  14.028  19.904  0.00  0.00    +0.000 OA
ATOM     19  C   UNL     1      11.412  14.889  18.786  0.00  0.00    +0.000 C 
ENDBRANCH  15  18
ENDBRANCH   9  12
ENDBRANCH   6   8
ENDBRANCH   1   2
BRANCH   1  21
ATOM     20  C   UNL     1       6.255   3.929  13.665  0.00  0.00    +0.000 C 
ATOM     21  C   UNL     1       6.997   5.028  14.435  0.00  0.00    +0.000 C 
ENDBRANCH   1  21
BRANCH   1  22
ATOM     22  N   UNL     1       4.891   4.928  15.798  0.00  0.00    +0.000 N 
ATOM     23  H   UNL     1       5.081   3.928  15.769  0.00  0.00    +0.000 HD
BRANCH  22  24
ATOM     24  C   UNL     1       4.188   5.184  16.994  0.00  0.00    +0.000 A 
ATOM     25  N   UNL     1       3.923   6.453  17.324  0.00  0.00    +0.000 NA
ATOM     26  C   UNL     1       3.212   6.645  18.433  0.00  0.00    +0.000 A 
ATOM     27  N   UNL     1       2.685   5.691  19.212  0.00  0.00    +0.000 NA
ATOM     28  C   UNL     1       2.919   4.402  18.885  0.00  0.00    +0.000 A 
ATOM     29  C   UNL     1       2.344   3.326  19.600  0.00  0.00    +0.000 A 
ATOM     30  C   UNL     1       2.612   1.989  19.249  0.00  0.00    +0.000 A 
ATOM     31  C   UNL     1       3.494   1.697  18.224  0.00  0.00    +0.000 A 
ATOM     32  C   UNL     1       4.060   2.738  17.500  0.00  0.00    +0.000 A 
ATOM     33  C   UNL     1       3.745   4.093  17.784  0.00  0.00    +0.000 A 
BRANCH  29  34
ATOM     34  C   UNL     1       1.405   3.506  20.754  0.00  0.00    +0.000 C 
ATOM     35  N   UNL     1       0.402   4.421  20.639  0.00  0.00    +0.000 N 
ATOM     36  O   UNL     1       1.523   2.856  21.788  0.00  0.00    +0.000 OA
ATOM     37  H   UNL     1       0.276   4.952  19.781  0.00  0.00    +0.000 HD
ATOM     38  H   UNL     1      -0.245   4.540  21.406  0.00  0.00    +0.000 HD
ENDBRANCH  29  34
ENDBRANCH  22  24
ENDBRANCH   1  22
TORSDOF 8
ENDMDL
MODEL 2
REMARK VINA RESULT:      -9.0      6.872     10.197
REMARK  Name = 
REMARK  10 active torsions:
REMARK  status: ('A' for Active; 'I' for Inactive)
REMARK    1  A    between atoms: C_1  and  C_2
REMARK    2  A    between atoms: C_2  and  C_3
REMARK    3  A    between atoms: C_3  and  N_4
REMARK    4  A    between atoms: C_3  and  C_18
REMARK    5  A    between atoms: N_4  and  C_5
REMARK    6  A    between atoms: C_10  and  C_11
REMARK    7  A    between atoms: C_22  and  N_23
REMARK    8  A    between atoms: C_24  and  C_26
REMARK    9  A    between atoms: C_29  and  O_30
REMARK   10  A    between atoms: O_30  and  C_31
REMARK                            x       y       z     vdW  Elec       q    Type
REMARK                         _______ _______ _______ _____ _____    ______ ____
ROOT
ATOM      1  C   UNL     1       0.465  12.849  20.772  0.00  0.00    +0.000 C 
ENDROOT
BRANCH   1   2
ATOM      2  C   UNL     1       0.167  11.494  21.411  0.00  0.00    +0.000 A 
ATOM      3  C   UNL     1      -0.671  11.429  22.533  0.00  0.00    +0.000 A 
ATOM      4  C   UNL     1      -0.807  10.236  23.232  0.00  0.00    +0.000 A 
ATOM      5  C   UNL     1      -0.131   9.094  22.803  0.00  0.00    +0.000 A 
ATOM      6  C   UNL     1       0.682   9.121  21.666  0.00  0.00    +0.000 A 
ATOM      7  C   UNL     1       0.833  10.328  20.981  0.00  0.00    +0.000 A 
BRANCH   6   8
ATOM      8  N   UNL     1       1.392   7.993  21.193  0.00  0.00    +0.000 N 
ATOM      9  C   UNL     1       1.812   7.817  19.894  0.00  0.00    +0.000 C 
ATOM     10  O   UNL     1       1.707   8.634  18.978  0.00  0.00    +0.000 OA
ATOM     11  H   UNL     1       1.704   7.333  21.895  0.00  0.00    +0.000 HD
BRANCH   9  12
ATOM     12  C   UNL     1       2.514   6.563  19.566  0.00  0.00    +0.000 A 
ATOM     13  C   UNL     1       2.373   5.359  20.257  0.00  0.00    +0.000 A 
ATOM     14  C   UNL     1       3.022   4.222  19.764  0.00  0.00    +0.000 A 
ATOM     15  C   UNL     1       3.786   4.337  18.611  0.00  0.00    +0.000 A 
ATOM     16  N   UNL     1       3.956   5.495  17.942  0.00  0.00    +0.000 NA
ATOM     17  C   UNL     1       3.309   6.575  18.424  0.00  0.00    +0.000 A 
BRANCH  15  18
ATOM     18  O   UNL     1       4.383   3.193  18.126  0.00  0.00    +0.000 OA
ATOM     19  C   UNL     1       3.445   2.128  17.967  0.00  0.00    +0.000 C 
ENDBRANCH  15  18
ENDBRANCH   9  12
ENDBRANCH   6   8
ENDBRANCH   1   2
BRANCH   1  21
ATOM     20  C   UNL     1       2.264  13.090  18.952  0.00  0.00    +0.000 C 
ATOM     21  C   UNL     1       1.978  12.891  20.446  0.00  0.00    +0.000 C 
ENDBRANCH   1  21
BRANCH   1  22
ATOM     22  N   UNL     1      -0.370  12.984  19.563  0.00  0.00    +0.000 N 
ATOM     23  H   UNL     1      -0.089  12.298  18.865  0.00  0.00    +0.000 HD
BRANCH  22  24
ATOM     24  C   UNL     1      -1.771  12.890  19.700  0.00  0.00    +0.000 A 
ATOM     25  N   UNL     1      -2.401  13.779  20.476  0.00  0.00    +0.000 NA
ATOM     26  C   UNL     1      -3.728  13.685  20.534  0.00  0.00    +0.000 A 
ATOM     27  N   UNL     1      -4.494  12.830  19.844  0.00  0.00    +0.000 NA
ATOM     28  C   UNL     1      -3.881  11.938  19.036  0.00  0.00    +0.000 A 
ATOM     29  C   UNL     1      -4.604  11.047  18.210  0.00  0.00    +0.000 A 
ATOM     30  C   UNL     1      -3.944  10.116  17.385  0.00  0.00    +0.000 A 
ATOM     31  C   UNL     1      -2.565  10.017  17.404  0.00  0.00    +0.000 A 
ATOM     32  C   UNL     1      -1.834  10.892  18.198  0.00  0.00    +0.000 A 
ATOM     33  C   UNL     1      -2.472  11.890  18.979  0.00  0.00    +0.000 A 
BRANCH  29  34
ATOM     34  C   UNL     1      -6.100  11.024  18.126  0.00  0.00    +0.000 C 
ATOM     35  N   UNL     1      -6.723  11.980  17.381  0.00  0.00    +0.000 N 
ATOM     36  O   UNL     1      -6.765  10.175  18.711  0.00  0.00    +0.000 OA
ATOM     37  H   UNL     1      -6.187  12.677  16.873  0.00  0.00    +0.000 HD
ATOM     38  H   UNL     1      -7.731  11.965  17.307  0.00  0.00    +0.000 HD
ENDBRANCH  29  34
ENDBRANCH  22  24
ENDBRANCH   1  22
TORSDOF 8
ENDMDL
MODEL 3
REMARK VINA RESULT:      -8.8      6.432      9.366
REMARK  Name = 
REMARK  10 active torsions:
REMARK  status: ('A' for Active; 'I' for Inactive)
REMARK    1  A    between atoms: C_1  and  C_2
REMARK    2  A    between atoms: C_2  and  C_3
REMARK    3  A    between atoms: C_3  and  N_4
REMARK    4  A    between atoms: C_3  and  C_18
REMARK    5  A    between atoms: N_4  and  C_5
REMARK    6  A    between atoms: C_10  and  C_11
REMARK    7  A    between atoms: C_22  and  N_23
REMARK    8  A    between atoms: C_24  and  C_26
REMARK    9  A    between atoms: C_29  and  O_30
REMARK   10  A    between atoms: O_30  and  C_31
REMARK                            x       y       z     vdW  Elec       q    Type
REMARK                         _______ _______ _______ _____ _____    ______ ____
ROOT
ATOM      1  C   UNL     1       0.909  10.992  19.113  0.00  0.00    +0.000 C 
ENDROOT
BRANCH   1   2
ATOM      2  C   UNL     1       1.249   9.524  19.362  0.00  0.00    +0.000 A 
ATOM      3  C   UNL     1       0.931   8.941  20.597  0.00  0.00    +0.000 A 
ATOM      4  C   UNL     1       1.392   7.667  20.906  0.00  0.00    +0.000 A 
ATOM      5  C   UNL     1       2.151   6.956  19.977  0.00  0.00    +0.000 A 
ATOM      6  C   UNL     1       2.454   7.498  18.724  0.00  0.00    +0.000 A 
ATOM      7  C   UNL     1       2.007   8.787  18.429  0.00  0.00    +0.000 A 
BRANCH   6   8
ATOM      8  N   UNL     1       3.224   6.820  17.751  0.00  0.00    +0.000 N 
ATOM      9  C   UNL     1       4.299   6.006  18.026  0.00  0.00    +0.000 C 
ATOM     10  O   UNL     1       4.699   5.683  19.145  0.00  0.00    +0.000 OA
ATOM     11  H   UNL     1       2.877   6.857  16.799  0.00  0.00    +0.000 HD
BRANCH   9  12
ATOM     12  C   UNL     1       5.009   5.402  16.884  0.00  0.00    +0.000 A 
ATOM     13  C   UNL     1       5.167   4.033  16.670  0.00  0.00    +0.000 A 
ATOM     14  C   UNL     1       5.772   3.605  15.484  0.00  0.00    +0.000 A 
ATOM     15  C   UNL     1       6.198   4.558  14.569  0.00  0.00    +0.000 A 
ATOM     16  N   UNL     1       6.076   5.886  14.767  0.00  0.00    +0.000 NA
ATOM     17  C   UNL     1       5.476   6.277  15.909  0.00  0.00    +0.000 A 
BRANCH  15  18
ATOM     18  O   UNL     1       6.755   4.108  13.391  0.00  0.00    +0.000 OA
ATOM     19  C   UNL     1       7.658   5.063  12.829  0.00  0.00    +0.000 C 
ENDBRANCH  15  18
ENDBRANCH   9  12
ENDBRANCH   6   8
ENDBRANCH   1   2
BRANCH   1  21
ATOM     20  C   UNL     1       2.307  13.148  19.095  0.00  0.00    +0.000 C 
ATOM     21  C   UNL     1       2.198  11.695  18.620  0.00  0.00    +0.000 C 
ENDBRANCH   1  21
BRANCH   1  22
ATOM     22  N   UNL     1      -0.175  11.053  18.115  0.00  0.00    +0.000 N 
ATOM     23  H   UNL     1      -0.270  10.155  17.645  0.00  0.00    +0.000 HD
BRANCH  22  24
ATOM     24  C   UNL     1      -1.464  11.435  18.546  0.00  0.00    +0.000 A 
ATOM     25  N   UNL     1      -1.602  11.961  19.769  0.00  0.00    +0.000 NA
ATOM     26  C   UNL     1      -2.826  12.355  20.114  0.00  0.00    +0.000 A 
ATOM     27  N   UNL     1      -3.914  12.334  19.334  0.00  0.00    +0.000 NA
ATOM     28  C   UNL     1      -3.794  11.830  18.087  0.00  0.00    +0.000 A 
ATOM     29  C   UNL     1      -4.865  11.836  17.164  0.00  0.00    +0.000 A 
ATOM     30  C   UNL     1      -4.721  11.292  15.873  0.00  0.00    +0.000 A 
ATOM     31  C   UNL     1      -3.535  10.689  15.495  0.00  0.00    +0.000 A 
ATOM     32  C   UNL     1      -2.465  10.684  16.382  0.00  0.00    +0.000 A 
ATOM     33  C   UNL     1      -2.561  11.294  17.659  0.00  0.00    +0.000 A 
BRANCH  29  34
ATOM     34  C   UNL     1      -6.212  12.421  17.462  0.00  0.00    +0.000 C 
ATOM     35  N   UNL     1      -6.382  13.766  17.317  0.00  0.00    +0.000 N 
ATOM     36  O   UNL     1      -7.150  11.723  17.832  0.00  0.00    +0.000 OA
ATOM     37  H   UNL     1      -5.621  14.355  16.990  0.00  0.00    +0.000 HD
ATOM     38  H   UNL     1      -7.290  14.169  17.501  0.00  0.00    +0.000 HD
ENDBRANCH  29  34
ENDBRANCH  22  24
ENDBRANCH   1  22
TORSDOF 8
ENDMDL
MODEL 4
REMARK VINA RESULT:      -8.8      0.789      1.006
REMARK  Name = 
REMARK  10 active torsions:
REMARK  status: ('A' for Active; 'I' for Inactive)
REMARK    1  A    between atoms: C_1  and  C_2
REMARK    2  A    between atoms: C_2  and  C_3
REMARK    3  A    between atoms: C_3  and  N_4
REMARK    4  A    between atoms: C_3  and  C_18
REMARK    5  A    between atoms: N_4  and  C_5
REMARK    6  A    between atoms: C_10  and  C_11
REMARK    7  A    between atoms: C_22  and  N_23
REMARK    8  A    between atoms: C_24  and  C_26
REMARK    9  A    between atoms: C_29  and  O_30
REMARK   10  A    between atoms: O_30  and  C_31
REMARK                            x       y       z     vdW  Elec       q    Type
REMARK                         _______ _______ _______ _____ _____    ______ ____
ROOT
ATOM      1  C   UNL     1       5.931   5.841  15.569  0.00  0.00    +0.000 C 
ENDROOT
BRANCH   1   2
ATOM      2  C   UNL     1       6.825   5.815  16.806  0.00  0.00    +0.000 A 
ATOM      3  C   UNL     1       6.900   4.649  17.580  0.00  0.00    +0.000 A 
ATOM      4  C   UNL     1       7.562   4.664  18.801  0.00  0.00    +0.000 A 
ATOM      5  C   UNL     1       8.176   5.834  19.248  0.00  0.00    +0.000 A 
ATOM      6  C   UNL     1       8.148   7.003  18.480  0.00  0.00    +0.000 A 
ATOM      7  C   UNL     1       7.462   6.987  17.265  0.00  0.00    +0.000 A 
BRANCH   6   8
ATOM      8  N   UNL     1       8.750   8.215  18.890  0.00  0.00    +0.000 N 
ATOM      9  C   UNL     1       8.499   9.446  18.327  0.00  0.00    +0.000 C 
ATOM     10  O   UNL     1       7.669   9.690  17.452  0.00  0.00    +0.000 OA
ATOM     11  H   UNL     1       9.315   8.173  19.730  0.00  0.00    +0.000 HD
BRANCH   9  12
ATOM     12  C   UNL     1       9.241  10.604  18.859  0.00  0.00    +0.000 A 
ATOM     13  C   UNL     1       9.826  11.606  18.086  0.00  0.00    +0.000 A 
ATOM     14  C   UNL     1      10.405  12.702  18.735  0.00  0.00    +0.000 A 
ATOM     15  C   UNL     1      10.381  12.746  20.122  0.00  0.00    +0.000 A 
ATOM     16  N   UNL     1       9.843  11.777  20.889  0.00  0.00    +0.000 NA
ATOM     17  C   UNL     1       9.276  10.738  20.243  0.00  0.00    +0.000 A 
BRANCH  15  18
ATOM     18  O   UNL     1      10.924  13.855  20.734  0.00  0.00    +0.000 OA
ATOM     19  C   UNL     1      11.559  14.726  19.796  0.00  0.00    +0.000 C 
ENDBRANCH  15  18
ENDBRANCH   9  12
ENDBRANCH   6   8
ENDBRANCH   1   2
BRANCH   1  21
ATOM     20  C   UNL     1       6.215   3.918  13.888  0.00  0.00    +0.000 C 
ATOM     21  C   UNL     1       6.749   5.266  14.386  0.00  0.00    +0.000 C 
ENDBRANCH   1  21
BRANCH   1  22
ATOM     22  N   UNL     1       4.724   5.041  15.853  0.00  0.00    +0.000 N 
ATOM     23  H   UNL     1       4.924   4.050  15.731  0.00  0.00    +0.000 HD
BRANCH  22  24
ATOM     24  C   UNL     1       4.101   5.189  17.110  0.00  0.00    +0.000 A 
ATOM     25  N   UNL     1       3.839   6.424  17.555  0.00  0.00    +0.000 NA
ATOM     26  C   UNL     1       3.203   6.515  18.721  0.00  0.00    +0.000 A 
ATOM     27  N   UNL     1       2.746   5.494  19.457  0.00  0.00    +0.000 NA
ATOM     28  C   UNL     1       2.978   4.239  19.016  0.00  0.00    +0.000 A 
ATOM     29  C   UNL     1       2.471   3.098  19.681  0.00  0.00    +0.000 A 
ATOM     30  C   UNL     1       2.736   1.799  19.211  0.00  0.00    +0.000 A 
ATOM     31  C   UNL     1       3.549   1.604  18.108  0.00  0.00    +0.000 A 
ATOM     32  C   UNL     1       4.047   2.710  17.432  0.00  0.00    +0.000 A 
ATOM     33  C   UNL     1       3.731   4.032  17.841  0.00  0.00    +0.000 A 
BRANCH  29  34
ATOM     34  C   UNL     1       1.611   3.169  20.907  0.00  0.00    +0.000 C 
ATOM     35  N   UNL     1       2.215   3.369  22.112  0.00  0.00    +0.000 N 
ATOM     36  O   UNL     1       0.392   3.050  20.846  0.00  0.00    +0.000 OA
ATOM     37  H   UNL     1       3.221   3.492  22.178  0.00  0.00    +0.000 HD
ATOM     38  H   UNL     1       1.643   3.433  22.943  0.00  0.00    +0.000 HD
ENDBRANCH  29  34
ENDBRANCH  22  24
ENDBRANCH   1  22
TORSDOF 8
ENDMDL
MODEL 5
REMARK VINA RESULT:      -8.7      7.055     10.148
REMARK  Name = 
REMARK  10 active torsions:
REMARK  status: ('A' for Active; 'I' for Inactive)
REMARK    1  A    between atoms: C_1  and  C_2
REMARK    2  A    between atoms: C_2  and  C_3
REMARK    3  A    between atoms: C_3  and  N_4
REMARK    4  A    between atoms: C_3  and  C_18
REMARK    5  A    between atoms: N_4  and  C_5
REMARK    6  A    between atoms: C_10  and  C_11
REMARK    7  A    between atoms: C_22  and  N_23
REMARK    8  A    between atoms: C_24  and  C_26
REMARK    9  A    between atoms: C_29  and  O_30
REMARK   10  A    between atoms: O_30  and  C_31
REMARK                            x       y       z     vdW  Elec       q    Type
REMARK                         _______ _______ _______ _____ _____    ______ ____
ROOT
ATOM      1  C   UNL     1       0.214  13.031  21.113  0.00  0.00    +0.000 C 
ENDROOT
BRANCH   1   2
ATOM      2  C   UNL     1       0.088  11.564  21.520  0.00  0.00    +0.000 A 
ATOM      3  C   UNL     1      -0.688  11.222  22.637  0.00  0.00    +0.000 A 
ATOM      4  C   UNL     1      -0.667   9.922  23.127  0.00  0.00    +0.000 A 
ATOM      5  C   UNL     1       0.105   8.949  22.493  0.00  0.00    +0.000 A 
ATOM      6  C   UNL     1       0.860   9.254  21.356  0.00  0.00    +0.000 A 
ATOM      7  C   UNL     1       0.854  10.567  20.882  0.00  0.00    +0.000 A 
BRANCH   6   8
ATOM      8  N   UNL     1       1.663   8.306  20.681  0.00  0.00    +0.000 N 
ATOM      9  C   UNL     1       1.824   8.244  19.315  0.00  0.00    +0.000 C 
ATOM     10  O   UNL     1       1.369   9.038  18.492  0.00  0.00    +0.000 OA
ATOM     11  H   UNL     1       2.240   7.711  21.263  0.00  0.00    +0.000 HD
BRANCH   9  12
ATOM     12  C   UNL     1       2.675   7.168  18.776  0.00  0.00    +0.000 A 
ATOM     13  C   UNL     1       3.521   7.289  17.674  0.00  0.00    +0.000 A 
ATOM     14  C   UNL     1       4.352   6.212  17.343  0.00  0.00    +0.000 A 
ATOM     15  C   UNL     1       4.297   5.063  18.120  0.00  0.00    +0.000 A 
ATOM     16  N   UNL     1       3.469   4.916  19.175  0.00  0.00    +0.000 NA
ATOM     17  C   UNL     1       2.690   5.971  19.486  0.00  0.00    +0.000 A 
BRANCH  15  18
ATOM     18  O   UNL     1       5.152   4.032  17.796  0.00  0.00    +0.000 OA
ATOM     19  C   UNL     1       5.736   4.210  16.504  0.00  0.00    +0.000 C 
ENDBRANCH  15  18
ENDBRANCH   9  12
ENDBRANCH   6   8
ENDBRANCH   1   2
BRANCH   1  21
ATOM     20  C   UNL     1       2.011  14.825  20.716  0.00  0.00    +0.000 C 
ATOM     21  C   UNL     1       1.718  13.331  20.898  0.00  0.00    +0.000 C 
ENDBRANCH   1  21
BRANCH   1  22
ATOM     22  N   UNL     1      -0.576  13.239  19.884  0.00  0.00    +0.000 N 
ATOM     23  H   UNL     1      -0.238  12.630  19.142  0.00  0.00    +0.000 HD
BRANCH  22  24
ATOM     24  C   UNL     1      -1.977  13.077  19.951  0.00  0.00    +0.000 A 
ATOM     25  N   UNL     1      -2.682  13.902  20.734  0.00  0.00    +0.000 NA
ATOM     26  C   UNL     1      -4.004  13.747  20.725  0.00  0.00    +0.000 A 
ATOM     27  N   UNL     1      -4.697  12.890  19.964  0.00  0.00    +0.000 NA
ATOM     28  C   UNL     1      -4.007  12.064  19.148  0.00  0.00    +0.000 A 
ATOM     29  C   UNL     1      -4.651  11.179  18.251  0.00  0.00    +0.000 A 
ATOM     30  C   UNL     1      -3.912  10.317  17.420  0.00  0.00    +0.000 A 
ATOM     31  C   UNL     1      -2.531  10.278  17.499  0.00  0.00    +0.000 A 
ATOM     32  C   UNL     1      -1.879  11.148  18.363  0.00  0.00    +0.000 A 
ATOM     33  C   UNL     1      -2.597  12.080  19.156  0.00  0.00    +0.000 A 
BRANCH  29  34
ATOM     34  C   UNL     1      -6.139  11.094  18.097  0.00  0.00    +0.000 C 
ATOM     35  N   UNL     1      -6.764  12.016  17.311  0.00  0.00    +0.000 N 
ATOM     36  O   UNL     1      -6.796  10.224  18.658  0.00  0.00    +0.000 OA
ATOM     37  H   UNL     1      -6.232  12.730  16.821  0.00  0.00    +0.000 HD
ATOM     38  H   UNL     1      -7.765  11.959  17.189  0.00  0.00    +0.000 HD
ENDBRANCH  29  34
ENDBRANCH  22  24
ENDBRANCH   1  22
TORSDOF 8
ENDMDL
MODEL 6
REMARK VINA RESULT:      -8.7      1.541      2.303
REMARK  Name = 
REMARK  10 active torsions:
REMARK  status: ('A' for Active; 'I' for Inactive)
REMARK    1  A    between atoms: C_1  and  C_2
REMARK    2  A    between atoms: C_2  and  C_3
REMARK    3  A    between atoms: C_3  and  N_4
REMARK    4  A    between atoms: C_3  and  C_18
REMARK    5  A    between atoms: N_4  and  C_5
REMARK    6  A    between atoms: C_10  and  C_11
REMARK    7  A    between atoms: C_22  and  N_23
REMARK    8  A    between atoms: C_24  and  C_26
REMARK    9  A    between atoms: C_29  and  O_30
REMARK   10  A    between atoms: O_30  and  C_31
REMARK                            x       y       z     vdW  Elec       q    Type
REMARK                         _______ _______ _______ _____ _____    ______ ____
ROOT
ATOM      1  C   UNL     1       5.767   5.616  15.851  0.00  0.00    +0.000 C 
ENDROOT
BRANCH   1   2
ATOM      2  C   UNL     1       6.761   6.171  16.869  0.00  0.00    +0.000 A 
ATOM      3  C   UNL     1       7.134   5.385  17.969  0.00  0.00    +0.000 A 
ATOM      4  C   UNL     1       7.892   5.937  18.994  0.00  0.00    +0.000 A 
ATOM      5  C   UNL     1       8.305   7.267  18.919  0.00  0.00    +0.000 A 
ATOM      6  C   UNL     1       7.978   8.064  17.817  0.00  0.00    +0.000 A 
ATOM      7  C   UNL     1       7.197   7.510  16.801  0.00  0.00    +0.000 A 
BRANCH   6   8
ATOM      8  N   UNL     1       8.368   9.417  17.695  0.00  0.00    +0.000 N 
ATOM      9  C   UNL     1       8.978  10.151  18.687  0.00  0.00    +0.000 C 
ATOM     10  O   UNL     1       9.345   9.729  19.784  0.00  0.00    +0.000 OA
ATOM     11  H   UNL     1       8.288   9.825  16.771  0.00  0.00    +0.000 HD
BRANCH   9  12
ATOM     12  C   UNL     1       9.288  11.564  18.399  0.00  0.00    +0.000 A 
ATOM     13  C   UNL     1       8.430  12.460  17.761  0.00  0.00    +0.000 A 
ATOM     14  C   UNL     1       8.820  13.800  17.654  0.00  0.00    +0.000 A 
ATOM     15  C   UNL     1      10.046  14.184  18.180  0.00  0.00    +0.000 A 
ATOM     16  N   UNL     1      10.900  13.329  18.778  0.00  0.00    +0.000 NA
ATOM     17  C   UNL     1      10.499  12.046  18.886  0.00  0.00    +0.000 A 
BRANCH  15  18
ATOM     18  O   UNL     1      10.387  15.516  18.094  0.00  0.00    +0.000 OA
ATOM     19  C   UNL     1       9.274  16.329  17.719  0.00  0.00    +0.000 C 
ENDBRANCH  15  18
ENDBRANCH   9  12
ENDBRANCH   6   8
ENDBRANCH   1   2
BRANCH   1  21
ATOM     20  C   UNL     1       6.248   3.909  13.992  0.00  0.00    +0.000 C 
ATOM     21  C   UNL     1       6.208   4.174  15.502  0.00  0.00    +0.000 C 
ENDBRANCH   1  21
BRANCH   1  22
ATOM     22  N   UNL     1       4.419   5.657  16.451  0.00  0.00    +0.000 N 
ATOM     23  H   UNL     1       3.716   5.776  15.725  0.00  0.00    +0.000 HD
BRANCH  22  24
ATOM     24  C   UNL     1       4.009   4.573  17.255  0.00  0.00    +0.000 A 
ATOM     25  N   UNL     1       4.345   3.332  16.880  0.00  0.00    +0.000 NA
ATOM     26  C   UNL     1       3.982   2.344  17.695  0.00  0.00    +0.000 A 
ATOM     27  N   UNL     1       3.372   2.477  18.880  0.00  0.00    +0.000 NA
ATOM     28  C   UNL     1       3.045   3.722  19.290  0.00  0.00    +0.000 A 
ATOM     29  C   UNL     1       2.469   3.972  20.558  0.00  0.00    +0.000 A 
ATOM     30  C   UNL     1       2.123   5.276  20.959  0.00  0.00    +0.000 A 
ATOM     31  C   UNL     1       2.292   6.343  20.096  0.00  0.00    +0.000 A 
ATOM     32  C   UNL     1       2.869   6.122  18.852  0.00  0.00    +0.000 A 
ATOM     33  C   UNL     1       3.296   4.829  18.454  0.00  0.00    +0.000 A 
BRANCH  29  34
ATOM     34  C   UNL     1       2.197   2.900  21.569  0.00  0.00    +0.000 C 
ATOM     35  N   UNL     1       0.907   2.671  21.943  0.00  0.00    +0.000 N 
ATOM     36  O   UNL     1       3.103   2.236  22.064  0.00  0.00    +0.000 OA
ATOM     37  H   UNL     1       0.143   3.197  21.527  0.00  0.00    +0.000 HD
ATOM     38  H   UNL     1       0.712   1.941  22.613  0.00  0.00    +0.000 HD
ENDBRANCH  29  34
ENDBRANCH  22  24
ENDBRANCH   1  22
TORSDOF 8
ENDMDL
MODEL 7
REMARK VINA RESULT:      -8.6      5.320      9.028
REMARK  Name = 
REMARK  10 active torsions:
REMARK  status: ('A' for Active; 'I' for Inactive)
REMARK    1  A    between atoms: C_1  and  C_2
REMARK    2  A    between atoms: C_2  and  C_3
REMARK    3  A    between atoms: C_3  and  N_4
REMARK    4  A    between atoms: C_3  and  C_18
REMARK    5  A    between atoms: N_4  and  C_5
REMARK    6  A    between atoms: C_10  and  C_11
REMARK    7  A    between atoms: C_22  and  N_23
REMARK    8  A    between atoms: C_24  and  C_26
REMARK    9  A    between atoms: C_29  and  O_30
REMARK   10  A    between atoms: O_30  and  C_31
REMARK                            x       y       z     vdW  Elec       q    Type
REMARK                         _______ _______ _______ _____ _____    ______ ____
ROOT
ATOM      1  C   UNL     1       0.866   8.577  20.596  0.00  0.00    +0.000 C 
ENDROOT
BRANCH   1   2
ATOM      2  C   UNL     1       1.516   7.225  20.307  0.00  0.00    +0.000 A 
ATOM      3  C   UNL     1       1.284   6.148  21.173  0.00  0.00    +0.000 A 
ATOM      4  C   UNL     1       2.005   4.969  21.028  0.00  0.00    +0.000 A 
ATOM      5  C   UNL     1       2.943   4.847  20.003  0.00  0.00    +0.000 A 
ATOM      6  C   UNL     1       3.169   5.893  19.101  0.00  0.00    +0.000 A 
ATOM      7  C   UNL     1       2.458   7.082  19.267  0.00  0.00    +0.000 A 
BRANCH   6   8
ATOM      8  N   UNL     1       4.111   5.821  18.049  0.00  0.00    +0.000 N 
ATOM      9  C   UNL     1       4.326   4.713  17.262  0.00  0.00    +0.000 C 
ATOM     10  O   UNL     1       3.688   3.660  17.297  0.00  0.00    +0.000 OA
ATOM     11  H   UNL     1       4.570   6.689  17.798  0.00  0.00    +0.000 HD
BRANCH   9  12
ATOM     12  C   UNL     1       5.373   4.802  16.228  0.00  0.00    +0.000 A 
ATOM     13  C   UNL     1       5.334   4.164  14.988  0.00  0.00    +0.000 A 
ATOM     14  C   UNL     1       6.350   4.429  14.064  0.00  0.00    +0.000 A 
ATOM     15  C   UNL     1       7.362   5.311  14.419  0.00  0.00    +0.000 A 
ATOM     16  N   UNL     1       7.432   5.920  15.620  0.00  0.00    +0.000 NA
ATOM     17  C   UNL     1       6.434   5.663  16.489  0.00  0.00    +0.000 A 
BRANCH  15  18
ATOM     18  O   UNL     1       8.330   5.584  13.477  0.00  0.00    +0.000 OA
ATOM     19  C   UNL     1       7.843   5.407  12.145  0.00  0.00    +0.000 C 
ENDBRANCH  15  18
ENDBRANCH   9  12
ENDBRANCH   6   8
ENDBRANCH   1   2
BRANCH   1  21
ATOM     20  C   UNL     1       0.382   9.552  22.925  0.00  0.00    +0.000 C 
ATOM     21  C   UNL     1       1.457   9.106  21.926  0.00  0.00    +0.000 C 
ENDBRANCH   1  21
BRANCH   1  22
ATOM     22  N   UNL     1       1.149   9.479  19.464  0.00  0.00    +0.000 N 
ATOM     23  H   UNL     1       1.186   8.949  18.595  0.00  0.00    +0.000 HD
BRANCH  22  24
ATOM     24  C   UNL     1       0.288  10.575  19.247  0.00  0.00    +0.000 A 
ATOM     25  N   UNL     1      -1.034  10.381  19.337  0.00  0.00    +0.000 NA
ATOM     26  C   UNL     1      -1.806  11.454  19.177  0.00  0.00    +0.000 A 
ATOM     27  N   UNL     1      -1.386  12.713  18.999  0.00  0.00    +0.000 NA
ATOM     28  C   UNL     1      -0.056  12.937  18.929  0.00  0.00    +0.000 A 
ATOM     29  C   UNL     1       0.486  14.239  18.820  0.00  0.00    +0.000 A 
ATOM     30  C   UNL     1       1.875  14.447  18.735  0.00  0.00    +0.000 A 
ATOM     31  C   UNL     1       2.745  13.372  18.703  0.00  0.00    +0.000 A 
ATOM     32  C   UNL     1       2.235  12.085  18.823  0.00  0.00    +0.000 A 
ATOM     33  C   UNL     1       0.845  11.853  18.987  0.00  0.00    +0.000 A 
BRANCH  29  34
ATOM     34  C   UNL     1      -0.348  15.484  18.803  0.00  0.00    +0.000 C 
ATOM     35  N   UNL     1      -1.409  15.567  19.655  0.00  0.00    +0.000 N 
ATOM     36  O   UNL     1      -0.099  16.415  18.045  0.00  0.00    +0.000 OA
ATOM     37  H   UNL     1      -1.616  14.814  20.304  0.00  0.00    +0.000 HD
ATOM     38  H   UNL     1      -1.968  16.408  19.661  0.00  0.00    +0.000 HD
ENDBRANCH  29  34
ENDBRANCH  22  24
ENDBRANCH   1  22
TORSDOF 8
ENDMDL
MODEL 8
REMARK VINA RESULT:      -8.6      6.419      9.539
REMARK  Name = 
REMARK  10 active torsions:
REMARK  status: ('A' for Active; 'I' for Inactive)
REMARK    1  A    between atoms: C_1  and  C_2
REMARK    2  A    between atoms: C_2  and  C_3
REMARK    3  A    between atoms: C_3  and  N_4
REMARK    4  A    between atoms: C_3  and  C_18
REMARK    5  A    between atoms: N_4  and  C_5
REMARK    6  A    between atoms: C_10  and  C_11
REMARK    7  A    between atoms: C_22  and  N_23
REMARK    8  A    between atoms: C_24  and  C_26
REMARK    9  A    between atoms: C_29  and  O_30
REMARK   10  A    between atoms: O_30  and  C_31
REMARK                            x       y       z     vdW  Elec       q    Type
REMARK                         _______ _______ _______ _____ _____    ______ ____
ROOT
ATOM      1  C   UNL     1       1.015  10.018  19.453  0.00  0.00    +0.000 C 
ENDROOT
BRANCH   1   2
ATOM      2  C   UNL     1       1.473   8.564  19.538  0.00  0.00    +0.000 A 
ATOM      3  C   UNL     1       1.268   7.843  20.723  0.00  0.00    +0.000 A 
ATOM      4  C   UNL     1       1.836   6.586  20.881  0.00  0.00    +0.000 A 
ATOM      5  C   UNL     1       2.590   6.026  19.850  0.00  0.00    +0.000 A 
ATOM      6  C   UNL     1       2.780   6.706  18.643  0.00  0.00    +0.000 A 
ATOM      7  C   UNL     1       2.226   7.979  18.499  0.00  0.00    +0.000 A 
BRANCH   6   8
ATOM      8  N   UNL     1       3.539   6.184  17.569  0.00  0.00    +0.000 N 
ATOM      9  C   UNL     1       4.844   5.759  17.664  0.00  0.00    +0.000 C 
ATOM     10  O   UNL     1       5.515   5.693  18.694  0.00  0.00    +0.000 OA
ATOM     11  H   UNL     1       3.035   6.013  16.706  0.00  0.00    +0.000 HD
BRANCH   9  12
ATOM     12  C   UNL     1       5.495   5.272  16.434  0.00  0.00    +0.000 A 
ATOM     13  C   UNL     1       4.923   4.386  15.520  0.00  0.00    +0.000 A 
ATOM     14  C   UNL     1       5.619   4.098  14.341  0.00  0.00    +0.000 A 
ATOM     15  C   UNL     1       6.853   4.697  14.129  0.00  0.00    +0.000 A 
ATOM     16  N   UNL     1       7.434   5.536  15.010  0.00  0.00    +0.000 NA
ATOM     17  C   UNL     1       6.740   5.814  16.132  0.00  0.00    +0.000 A 
BRANCH  15  18
ATOM     18  O   UNL     1       7.499   4.425  12.942  0.00  0.00    +0.000 OA
ATOM     19  C   UNL     1       6.739   3.546  12.110  0.00  0.00    +0.000 C 
ENDBRANCH  15  18
ENDBRANCH   9  12
ENDBRANCH   6   8
ENDBRANCH   1   2
BRANCH   1  21
ATOM     20  C   UNL     1      -1.370  10.436  18.592  0.00  0.00    +0.000 C 
ATOM     21  C   UNL     1       0.089  10.147  18.219  0.00  0.00    +0.000 C 
ENDBRANCH   1  21
BRANCH   1  22
ATOM     22  N   UNL     1       0.320  10.359  20.709  0.00  0.00    +0.000 N 
ATOM     23  H   UNL     1       0.578   9.701  21.442  0.00  0.00    +0.000 HD
BRANCH  22  24
ATOM     24  C   UNL     1       0.487  11.657  21.238  0.00  0.00    +0.000 A 
ATOM     25  N   UNL     1       1.549  12.375  20.853  0.00  0.00    +0.000 NA
ATOM     26  C   UNL     1       1.638  13.612  21.337  0.00  0.00    +0.000 A 
ATOM     27  N   UNL     1       0.738  14.226  22.115  0.00  0.00    +0.000 NA
ATOM     28  C   UNL     1      -0.353  13.529  22.496  0.00  0.00    +0.000 A 
ATOM     29  C   UNL     1      -1.396  14.113  23.254  0.00  0.00    +0.000 A 
ATOM     30  C   UNL     1      -2.519  13.363  23.651  0.00  0.00    +0.000 A 
ATOM     31  C   UNL     1      -2.603  12.015  23.353  0.00  0.00    +0.000 A 
ATOM     32  C   UNL     1      -1.598  11.424  22.598  0.00  0.00    +0.000 A 
ATOM     33  C   UNL     1      -0.494  12.177  22.120  0.00  0.00    +0.000 A 
BRANCH  29  34
ATOM     34  C   UNL     1      -1.407  15.550  23.676  0.00  0.00    +0.000 C 
ATOM     35  N   UNL     1      -1.170  16.506  22.734  0.00  0.00    +0.000 N 
ATOM     36  O   UNL     1      -1.620  15.878  24.839  0.00  0.00    +0.000 OA
ATOM     37  H   UNL     1      -1.014  16.252  21.762  0.00  0.00    +0.000 HD
ATOM     38  H   UNL     1      -1.190  17.479  23.005  0.00  0.00    +0.000 HD
ENDBRANCH  29  34
ENDBRANCH  22  24
ENDBRANCH   1  22
TORSDOF 8
ENDMDL
MODEL 9
REMARK VINA RESULT:      -8.6      6.708      9.884
REMARK  Name = 
REMARK  10 active torsions:
REMARK  status: ('A' for Active; 'I' for Inactive)
REMARK    1  A    between atoms: C_1  and  C_2
REMARK    2  A    between atoms: C_2  and  C_3
REMARK    3  A    between atoms: C_3  and  N_4
REMARK    4  A    between atoms: C_3  and  C_18
REMARK    5  A    between atoms: N_4  and  C_5
REMARK    6  A    between atoms: C_10  and  C_11
REMARK    7  A    between atoms: C_22  and  N_23
REMARK    8  A    between atoms: C_24  and  C_26
REMARK    9  A    between atoms: C_29  and  O_30
REMARK   10  A    between atoms: O_30  and  C_31
REMARK                            x       y       z     vdW  Elec       q    Type
REMARK                         _______ _______ _______ _____ _____    ______ ____
ROOT
ATOM      1  C   UNL     1      -0.247  11.663  19.462  0.00  0.00    +0.000 C 
ENDROOT
BRANCH   1   2
ATOM      2  C   UNL     1       0.272  10.296  19.901  0.00  0.00    +0.000 A 
ATOM      3  C   UNL     1       0.035   9.855  21.210  0.00  0.00    +0.000 A 
ATOM      4  C   UNL     1       0.651   8.702  21.679  0.00  0.00    +0.000 A 
ATOM      5  C   UNL     1       1.487   7.967  20.840  0.00  0.00    +0.000 A 
ATOM      6  C   UNL     1       1.714   8.363  19.518  0.00  0.00    +0.000 A 
ATOM      7  C   UNL     1       1.110   9.535  19.060  0.00  0.00    +0.000 A 
BRANCH   6   8
ATOM      8  N   UNL     1       2.556   7.656  18.629  0.00  0.00    +0.000 N 
ATOM      9  C   UNL     1       2.707   6.288  18.611  0.00  0.00    +0.000 C 
ATOM     10  O   UNL     1       2.084   5.478  19.298  0.00  0.00    +0.000 OA
ATOM     11  H   UNL     1       2.982   8.199  17.888  0.00  0.00    +0.000 HD
BRANCH   9  12
ATOM     12  C   UNL     1       3.654   5.718  17.635  0.00  0.00    +0.000 A 
ATOM     13  C   UNL     1       4.560   6.454  16.871  0.00  0.00    +0.000 A 
ATOM     14  C   UNL     1       5.473   5.765  16.065  0.00  0.00    +0.000 A 
ATOM     15  C   UNL     1       5.437   4.377  16.050  0.00  0.00    +0.000 A 
ATOM     16  N   UNL     1       4.554   3.648  16.762  0.00  0.00    +0.000 NA
ATOM     17  C   UNL     1       3.695   4.330  17.545  0.00  0.00    +0.000 A 
BRANCH  15  18
ATOM     18  O   UNL     1       6.372   3.723  15.277  0.00  0.00    +0.000 OA
ATOM     19  C   UNL     1       6.267   4.080  13.898  0.00  0.00    +0.000 C 
ENDBRANCH  15  18
ENDBRANCH   9  12
ENDBRANCH   6   8
ENDBRANCH   1   2
BRANCH   1  21
ATOM     20  C   UNL     1       1.504  13.226  18.414  0.00  0.00    +0.000 C 
ATOM     21  C   UNL     1       0.879  12.696  19.711  0.00  0.00    +0.000 C 
ENDBRANCH   1  21
BRANCH   1  22
ATOM     22  N   UNL     1      -0.622  11.580  18.037  0.00  0.00    +0.000 N 
ATOM     23  H   UNL     1      -0.148  10.795  17.595  0.00  0.00    +0.000 HD
BRANCH  22  24
ATOM     24  C   UNL     1      -1.990  11.479  17.707  0.00  0.00    +0.000 A 
ATOM     25  N   UNL     1      -2.329  10.915  16.542  0.00  0.00    +0.000 NA
ATOM     26  C   UNL     1      -3.632  10.793  16.296  0.00  0.00    +0.000 A 
ATOM     27  N   UNL     1      -4.630  11.122  17.126  0.00  0.00    +0.000 NA
ATOM     28  C   UNL     1      -4.311  11.671  18.317  0.00  0.00    +0.000 A 
ATOM     29  C   UNL     1      -5.289  11.981  19.291  0.00  0.00    +0.000 A 
ATOM     30  C   UNL     1      -4.934  12.566  20.522  0.00  0.00    +0.000 A 
ATOM     31  C   UNL     1      -3.619  12.902  20.786  0.00  0.00    +0.000 A 
ATOM     32  C   UNL     1      -2.641  12.594  19.848  0.00  0.00    +0.000 A 
ATOM     33  C   UNL     1      -2.962  11.935  18.634  0.00  0.00    +0.000 A 
BRANCH  29  34
ATOM     34  C   UNL     1      -6.751  11.706  19.114  0.00  0.00    +0.000 C 
ATOM     35  N   UNL     1      -7.424  12.375  18.136  0.00  0.00    +0.000 N 
ATOM     36  O   UNL     1      -7.346  10.902  19.825  0.00  0.00    +0.000 OA
ATOM     37  H   UNL     1      -6.942  13.027  17.524  0.00  0.00    +0.000 HD
ATOM     38  H   UNL     1      -8.407  12.185  17.999  0.00  0.00    +0.000 HD
ENDBRANCH  29  34
ENDBRANCH  22  24
ENDBRANCH   1  22
TORSDOF 8
ENDMDL
