MODEL 1
REMARK VINA RESULT:      -6.5      0.000      0.000
REMARK  Name = 
REMARK  5 active torsions:
REMARK  status: ('A' for Active; 'I' for Inactive)
REMARK    1  A    between atoms: C_1  and  N_2
REMARK    2  A    between atoms: N_2  and  C_3
REMARK    3  A    between atoms: N_2  and  C_12
REMARK    4  A    between atoms: C_3  and  C_4
REMARK    5  A    between atoms: C_12  and  C_13
REMARK                            x       y       z     vdW  Elec       q    Type
REMARK                         _______ _______ _______ _____ _____    ______ ____
ROOT
ATOM      1  C   UNL     1       4.408   5.538  18.645  0.00  0.00    +0.000 C 
ENDROOT
BRANCH   1   2
ATOM      2  C   UNL     1       4.754   4.400  17.664  0.00  0.00    +0.000 C 
ATOM      3  O   UNL     1       4.296   3.259  17.746  0.00  0.00    +0.000 OA
ATOM      4  N   UNL     1       5.655   4.745  16.663  0.00  0.00    +0.000 N 
ATOM      5  C   UNL     1       5.953   3.842  15.572  0.00  0.00    +0.000 C 
ATOM      6  C   UNL     1       6.854   4.668  14.671  0.00  0.00    +0.000 C 
ATOM      7  N   UNL     1       7.446   5.604  15.582  0.00  0.00    +0.000 N 
ATOM      8  C   UNL     1       6.652   5.741  16.716  0.00  0.00    +0.000 C 
ATOM      9  O   UNL     1       6.814   6.607  17.555  0.00  0.00    +0.000 OA
ATOM     10  H   UNL     1       8.118   6.328  15.351  0.00  0.00    +0.000 HD
ENDBRANCH   1   2
BRANCH   1  12
ATOM     11  C   UNL     1       3.246   7.534  17.867  0.00  0.00    +0.000 C 
ATOM     12  N   UNL     1       3.084   6.173  18.396  0.00  0.00    +0.000 NA
BRANCH  12  13
ATOM     13  C   UNL     1       2.358   6.208  19.689  0.00  0.00    +0.000 C 
BRANCH  13  14
ATOM     14  C   UNL     1       1.963   4.862  20.195  0.00  0.00    +0.000 A 
ATOM     15  C   UNL     1       1.191   3.838  19.684  0.00  0.00    +0.000 A 
ATOM     16  C   UNL     1       1.194   2.813  20.660  0.00  0.00    +0.000 A 
ATOM     17  C   UNL     1       1.964   3.272  21.701  0.00  0.00    +0.000 A 
ATOM     18  O   UNL     1       2.438   4.516  21.428  0.00  0.00    +0.000 OA
ENDBRANCH  13  14
ENDBRANCH  12  13
ENDBRANCH   1  12
TORSDOF 4
ENDMDL
MODEL 2
REMARK VINA RESULT:      -6.5      2.212      5.953
REMARK  Name = 
REMARK  5 active torsions:
REMARK  status: ('A' for Active; 'I' for Inactive)
REMARK    1  A    between atoms: C_1  and  N_2
REMARK    2  A    between atoms: N_2  and  C_3
REMARK    3  A    between atoms: N_2  and  C_12
REMARK    4  A    between atoms: C_3  and  C_4
REMARK    5  A    between atoms: C_12  and  C_13
REMARK                            x       y       z     vdW  Elec       q    Type
REMARK                         _______ _______ _______ _____ _____    ______ ____
ROOT
ATOM      1  C   UNL     1       4.698   3.634  16.538  0.00  0.00    +0.000 C 
ENDROOT
BRANCH   1   2
ATOM      2  C   UNL     1       3.577   4.299  17.362  0.00  0.00    +0.000 C 
ATOM      3  O   UNL     1       3.499   5.512  17.565  0.00  0.00    +0.000 OA
ATOM      4  N   UNL     1       2.641   3.419  17.894  0.00  0.00    +0.000 N 
ATOM      5  C   UNL     1       1.442   3.896  18.548  0.00  0.00    +0.000 C 
ATOM      6  C   UNL     1       0.670   2.621  18.838  0.00  0.00    +0.000 C 
ATOM      7  N   UNL     1       1.705   1.631  18.915  0.00  0.00    +0.000 N 
ATOM      8  C   UNL     1       2.839   2.064  18.235  0.00  0.00    +0.000 C 
ATOM      9  O   UNL     1       3.789   1.349  17.978  0.00  0.00    +0.000 OA
ATOM     10  H   UNL     1       1.581   0.642  19.102  0.00  0.00    +0.000 HD
ENDBRANCH   1   2
BRANCH   1  12
ATOM     11  C   UNL     1       5.547   4.293  14.352  0.00  0.00    +0.000 C 
ATOM     12  N   UNL     1       5.554   4.596  15.790  0.00  0.00    +0.000 NA
BRANCH  12  13
ATOM     13  C   UNL     1       6.930   4.481  16.332  0.00  0.00    +0.000 C 
BRANCH  13  14
ATOM     14  C   UNL     1       7.343   5.639  17.176  0.00  0.00    +0.000 A 
ATOM     15  C   UNL     1       7.761   5.766  18.485  0.00  0.00    +0.000 A 
ATOM     16  C   UNL     1       8.003   7.145  18.694  0.00  0.00    +0.000 A 
ATOM     17  C   UNL     1       7.719   7.771  17.505  0.00  0.00    +0.000 A 
ATOM     18  O   UNL     1       7.319   6.866  16.575  0.00  0.00    +0.000 OA
ENDBRANCH  13  14
ENDBRANCH  12  13
ENDBRANCH   1  12
TORSDOF 4
ENDMDL
MODEL 3
REMARK VINA RESULT:      -6.4      0.774      1.001
REMARK  Name = 
REMARK  5 active torsions:
REMARK  status: ('A' for Active; 'I' for Inactive)
REMARK    1  A    between atoms: C_1  and  N_2
REMARK    2  A    between atoms: N_2  and  C_3
REMARK    3  A    between atoms: N_2  and  C_12
REMARK    4  A    between atoms: C_3  and  C_4
REMARK    5  A    between atoms: C_12  and  C_13
REMARK                            x       y       z     vdW  Elec       q    Type
REMARK                         _______ _______ _______ _____ _____    ______ ____
ROOT
ATOM      1  C   UNL     1       4.547   5.828  18.430  0.00  0.00    +0.000 C 
ENDROOT
BRANCH   1   2
ATOM      2  C   UNL     1       4.865   4.561  17.610  0.00  0.00    +0.000 C 
ATOM      3  O   UNL     1       4.473   3.432  17.908  0.00  0.00    +0.000 OA
ATOM      4  N   UNL     1       5.661   4.774  16.490  0.00  0.00    +0.000 N 
ATOM      5  C   UNL     1       5.910   3.721  15.529  0.00  0.00    +0.000 C 
ATOM      6  C   UNL     1       6.690   4.425  14.433  0.00  0.00    +0.000 C 
ATOM      7  N   UNL     1       7.310   5.514  15.130  0.00  0.00    +0.000 N 
ATOM      8  C   UNL     1       6.609   5.801  16.298  0.00  0.00    +0.000 C 
ATOM      9  O   UNL     1       6.798   6.794  16.974  0.00  0.00    +0.000 OA
ATOM     10  H   UNL     1       7.923   6.215  14.730  0.00  0.00    +0.000 HD
ENDBRANCH   1   2
BRANCH   1  12
ATOM     11  C   UNL     1       3.076   7.661  17.788  0.00  0.00    +0.000 C 
ATOM     12  N   UNL     1       3.136   6.290  18.312  0.00  0.00    +0.000 NA
BRANCH  12  13
ATOM     13  C   UNL     1       2.535   6.231  19.667  0.00  0.00    +0.000 C 
BRANCH  13  14
ATOM     14  C   UNL     1       2.005   4.886  20.033  0.00  0.00    +0.000 A 
ATOM     15  C   UNL     1       2.013   4.140  21.194  0.00  0.00    +0.000 A 
ATOM     16  C   UNL     1       1.344   2.929  20.894  0.00  0.00    +0.000 A 
ATOM     17  C   UNL     1       0.969   3.012  19.575  0.00  0.00    +0.000 A 
ATOM     18  O   UNL     1       1.364   4.198  19.043  0.00  0.00    +0.000 OA
ENDBRANCH  13  14
ENDBRANCH  12  13
ENDBRANCH   1  12
TORSDOF 4
ENDMDL
MODEL 4
REMARK VINA RESULT:      -6.4      1.990      6.142
REMARK  Name = 
REMARK  5 active torsions:
REMARK  status: ('A' for Active; 'I' for Inactive)
REMARK    1  A    between atoms: C_1  and  N_2
REMARK    2  A    between atoms: N_2  and  C_3
REMARK    3  A    between atoms: N_2  and  C_12
REMARK    4  A    between atoms: C_3  and  C_4
REMARK    5  A    between atoms: C_12  and  C_13
REMARK                            x       y       z     vdW  Elec       q    Type
REMARK                         _______ _______ _______ _____ _____    ______ ____
ROOT
ATOM      1  C   UNL     1       4.262   4.129  17.908  0.00  0.00    +0.000 C 
ENDROOT
BRANCH   1   2
ATOM      2  C   UNL     1       4.164   3.351  19.236  0.00  0.00    +0.000 C 
ATOM      3  O   UNL     1       5.125   2.816  19.791  0.00  0.00    +0.000 OA
ATOM      4  N   UNL     1       2.886   3.273  19.776  0.00  0.00    +0.000 N 
ATOM      5  C   UNL     1       2.655   2.723  21.095  0.00  0.00    +0.000 C 
ATOM      6  C   UNL     1       1.172   2.961  21.318  0.00  0.00    +0.000 C 
ATOM      7  N   UNL     1       0.650   3.003  19.983  0.00  0.00    +0.000 N 
ATOM      8  C   UNL     1       1.660   3.318  19.080  0.00  0.00    +0.000 C 
ATOM      9  O   UNL     1       1.460   3.609  17.916  0.00  0.00    +0.000 OA
ATOM     10  H   UNL     1      -0.319   3.141  19.719  0.00  0.00    +0.000 HD
ENDBRANCH   1   2
BRANCH   1  12
ATOM     11  C   UNL     1       4.618   6.414  17.141  0.00  0.00    +0.000 C 
ATOM     12  N   UNL     1       5.151   5.322  17.966  0.00  0.00    +0.000 NA
BRANCH  12  13
ATOM     13  C   UNL     1       6.485   4.907  17.468  0.00  0.00    +0.000 C 
BRANCH  13  14
ATOM     14  C   UNL     1       6.526   4.648  16.001  0.00  0.00    +0.000 A 
ATOM     15  C   UNL     1       5.858   3.775  15.165  0.00  0.00    +0.000 A 
ATOM     16  C   UNL     1       6.352   4.015  13.861  0.00  0.00    +0.000 A 
ATOM     17  C   UNL     1       7.286   5.015  13.980  0.00  0.00    +0.000 A 
ATOM     18  O   UNL     1       7.398   5.408  15.275  0.00  0.00    +0.000 OA
ENDBRANCH  13  14
ENDBRANCH  12  13
ENDBRANCH   1  12
TORSDOF 4
ENDMDL
MODEL 5
REMARK VINA RESULT:      -6.4      2.331      5.525
REMARK  Name = 
REMARK  5 active torsions:
REMARK  status: ('A' for Active; 'I' for Inactive)
REMARK    1  A    between atoms: C_1  and  N_2
REMARK    2  A    between atoms: N_2  and  C_3
REMARK    3  A    between atoms: N_2  and  C_12
REMARK    4  A    between atoms: C_3  and  C_4
REMARK    5  A    between atoms: C_12  and  C_13
REMARK                            x       y       z     vdW  Elec       q    Type
REMARK                         _______ _______ _______ _____ _____    ______ ____
ROOT
ATOM      1  C   UNL     1       5.402   5.483  19.304  0.00  0.00    +0.000 C 
ENDROOT
BRANCH   1   2
ATOM      2  C   UNL     1       4.010   5.280  18.674  0.00  0.00    +0.000 C 
ATOM      3  O   UNL     1       3.242   6.202  18.392  0.00  0.00    +0.000 OA
ATOM      4  N   UNL     1       3.654   3.955  18.453  0.00  0.00    +0.000 N 
ATOM      5  C   UNL     1       2.456   3.606  17.720  0.00  0.00    +0.000 C 
ATOM      6  C   UNL     1       2.543   2.094  17.607  0.00  0.00    +0.000 C 
ATOM      7  N   UNL     1       3.341   1.733  18.742  0.00  0.00    +0.000 N 
ATOM      8  C   UNL     1       4.101   2.820  19.162  0.00  0.00    +0.000 C 
ATOM      9  O   UNL     1       5.004   2.742  19.974  0.00  0.00    +0.000 OA
ATOM     10  H   UNL     1       3.617   0.796  19.012  0.00  0.00    +0.000 HD
ENDBRANCH   1   2
BRANCH   1  12
ATOM     11  C   UNL     1       7.809   5.672  18.971  0.00  0.00    +0.000 C 
ATOM     12  N   UNL     1       6.534   5.279  18.356  0.00  0.00    +0.000 NA
BRANCH  12  13
ATOM     13  C   UNL     1       6.264   6.109  17.157  0.00  0.00    +0.000 C 
BRANCH  13  14
ATOM     14  C   UNL     1       6.294   5.346  15.877  0.00  0.00    +0.000 A 
ATOM     15  C   UNL     1       5.460   4.406  15.305  0.00  0.00    +0.000 A 
ATOM     16  C   UNL     1       6.046   4.054  14.066  0.00  0.00    +0.000 A 
ATOM     17  C   UNL     1       7.196   4.797  13.959  0.00  0.00    +0.000 A 
ATOM     18  O   UNL     1       7.355   5.587  15.052  0.00  0.00    +0.000 OA
ENDBRANCH  13  14
ENDBRANCH  12  13
ENDBRANCH   1  12
TORSDOF 4
ENDMDL
MODEL 6
REMARK VINA RESULT:      -6.2      1.923      5.734
REMARK  Name = 
REMARK  5 active torsions:
REMARK  status: ('A' for Active; 'I' for Inactive)
REMARK    1  A    between atoms: C_1  and  N_2
REMARK    2  A    between atoms: N_2  and  C_3
REMARK    3  A    between atoms: N_2  and  C_12
REMARK    4  A    between atoms: C_3  and  C_4
REMARK    5  A    between atoms: C_12  and  C_13
REMARK                            x       y       z     vdW  Elec       q    Type
REMARK                         _______ _______ _______ _____ _____    ______ ____
ROOT
ATOM      1  C   UNL     1       3.660   4.847  17.753  0.00  0.00    +0.000 C 
ENDROOT
BRANCH   1   2
ATOM      2  C   UNL     1       3.877   3.967  19.000  0.00  0.00    +0.000 C 
ATOM      3  O   UNL     1       4.984   3.601  19.399  0.00  0.00    +0.000 OA
ATOM      4  N   UNL     1       2.713   3.585  19.657  0.00  0.00    +0.000 N 
ATOM      5  C   UNL     1       2.755   2.900  20.931  0.00  0.00    +0.000 C 
ATOM      6  C   UNL     1       1.292   2.809  21.327  0.00  0.00    +0.000 C 
ATOM      7  N   UNL     1       0.615   2.843  20.063  0.00  0.00    +0.000 N 
ATOM      8  C   UNL     1       1.428   3.429  19.097  0.00  0.00    +0.000 C 
ATOM      9  O   UNL     1       1.037   3.760  17.994  0.00  0.00    +0.000 OA
ATOM     10  H   UNL     1      -0.386   2.798  19.914  0.00  0.00    +0.000 HD
ENDBRANCH   1   2
BRANCH   1  12
ATOM     11  C   UNL     1       2.805   7.071  18.264  0.00  0.00    +0.000 C 
ATOM     12  N   UNL     1       4.005   6.282  17.953  0.00  0.00    +0.000 NA
BRANCH  12  13
ATOM     13  C   UNL     1       4.629   6.768  16.699  0.00  0.00    +0.000 C 
BRANCH  13  14
ATOM     14  C   UNL     1       5.518   5.768  16.041  0.00  0.00    +0.000 A 
ATOM     15  C   UNL     1       5.475   5.100  14.835  0.00  0.00    +0.000 A 
ATOM     16  C   UNL     1       6.622   4.271  14.797  0.00  0.00    +0.000 A 
ATOM     17  C   UNL     1       7.291   4.485  15.977  0.00  0.00    +0.000 A 
ATOM     18  O   UNL     1       6.630   5.394  16.740  0.00  0.00    +0.000 OA
ENDBRANCH  13  14
ENDBRANCH  12  13
ENDBRANCH   1  12
TORSDOF 4
ENDMDL
MODEL 7
REMARK VINA RESULT:      -6.2      1.927      2.570
REMARK  Name = 
REMARK  5 active torsions:
REMARK  status: ('A' for Active; 'I' for Inactive)
REMARK    1  A    between atoms: C_1  and  N_2
REMARK    2  A    between atoms: N_2  and  C_3
REMARK    3  A    between atoms: N_2  and  C_12
REMARK    4  A    between atoms: C_3  and  C_4
REMARK    5  A    between atoms: C_12  and  C_13
REMARK                            x       y       z     vdW  Elec       q    Type
REMARK                         _______ _______ _______ _____ _____    ______ ____
ROOT
ATOM      1  C   UNL     1       4.377   4.933  17.306  0.00  0.00    +0.000 C 
ENDROOT
BRANCH   1   2
ATOM      2  C   UNL     1       5.363   5.977  16.748  0.00  0.00    +0.000 C 
ATOM      3  O   UNL     1       5.275   6.475  15.624  0.00  0.00    +0.000 OA
ATOM      4  N   UNL     1       6.400   6.321  17.608  0.00  0.00    +0.000 N 
ATOM      5  C   UNL     1       7.311   7.403  17.299  0.00  0.00    +0.000 C 
ATOM      6  C   UNL     1       8.168   7.506  18.548  0.00  0.00    +0.000 C 
ATOM      7  N   UNL     1       8.101   6.181  19.093  0.00  0.00    +0.000 N 
ATOM      8  C   UNL     1       6.968   5.523  18.624  0.00  0.00    +0.000 C 
ATOM      9  O   UNL     1       6.564   4.467  19.072  0.00  0.00    +0.000 OA
ATOM     10  H   UNL     1       8.557   5.852  19.936  0.00  0.00    +0.000 HD
ENDBRANCH   1   2
BRANCH   1  12
ATOM     11  C   UNL     1       3.245   6.162  19.080  0.00  0.00    +0.000 C 
ATOM     12  N   UNL     1       3.085   5.507  17.775  0.00  0.00    +0.000 NA
BRANCH  12  13
ATOM     13  C   UNL     1       2.114   4.390  17.877  0.00  0.00    +0.000 C 
BRANCH  13  14
ATOM     14  C   UNL     1       1.966   3.844  19.257  0.00  0.00    +0.000 A 
ATOM     15  C   UNL     1       0.994   3.957  20.230  0.00  0.00    +0.000 A 
ATOM     16  C   UNL     1       1.448   3.199  21.336  0.00  0.00    +0.000 A 
ATOM     17  C   UNL     1       2.663   2.673  20.971  0.00  0.00    +0.000 A 
ATOM     18  O   UNL     1       2.987   3.057  19.709  0.00  0.00    +0.000 OA
ENDBRANCH  13  14
ENDBRANCH  12  13
ENDBRANCH   1  12
TORSDOF 4
ENDMDL
MODEL 8
REMARK VINA RESULT:      -6.1      2.075      6.013
REMARK  Name = 
REMARK  5 active torsions:
REMARK  status: ('A' for Active; 'I' for Inactive)
REMARK    1  A    between atoms: C_1  and  N_2
REMARK    2  A    between atoms: N_2  and  C_3
REMARK    3  A    between atoms: N_2  and  C_12
REMARK    4  A    between atoms: C_3  and  C_4
REMARK    5  A    between atoms: C_12  and  C_13
REMARK                            x       y       z     vdW  Elec       q    Type
REMARK                         _______ _______ _______ _____ _____    ______ ____
ROOT
ATOM      1  C   UNL     1       4.335   5.153  18.557  0.00  0.00    +0.000 C 
ENDROOT
BRANCH   1   2
ATOM      2  C   UNL     1       4.260   3.918  19.477  0.00  0.00    +0.000 C 
ATOM      3  O   UNL     1       5.217   3.179  19.717  0.00  0.00    +0.000 OA
ATOM      4  N   UNL     1       3.005   3.669  20.022  0.00  0.00    +0.000 N 
ATOM      5  C   UNL     1       2.808   2.651  21.031  0.00  0.00    +0.000 C 
ATOM      6  C   UNL     1       1.351   2.823  21.422  0.00  0.00    +0.000 C 
ATOM      7  N   UNL     1       0.770   3.403  20.246  0.00  0.00    +0.000 N 
ATOM      8  C   UNL     1       1.752   4.021  19.477  0.00  0.00    +0.000 C 
ATOM      9  O   UNL     1       1.514   4.752  18.535  0.00  0.00    +0.000 OA
ATOM     10  H   UNL     1      -0.201   3.662  20.118  0.00  0.00    +0.000 HD
ENDBRANCH   1   2
BRANCH   1  12
ATOM     11  C   UNL     1       4.194   3.644  16.650  0.00  0.00    +0.000 C 
ATOM     12  N   UNL     1       4.825   4.858  17.182  0.00  0.00    +0.000 NA
BRANCH  12  13
ATOM     13  C   UNL     1       6.295   4.680  17.263  0.00  0.00    +0.000 C 
BRANCH  13  14
ATOM     14  C   UNL     1       7.030   5.910  17.674  0.00  0.00    +0.000 A 
ATOM     15  C   UNL     1       7.849   6.222  18.740  0.00  0.00    +0.000 A 
ATOM     16  C   UNL     1       8.236   7.572  18.565  0.00  0.00    +0.000 A 
ATOM     17  C   UNL     1       7.632   7.998  17.407  0.00  0.00    +0.000 A 
ATOM     18  O   UNL     1       6.899   6.996  16.856  0.00  0.00    +0.000 OA
ENDBRANCH  13  14
ENDBRANCH  12  13
ENDBRANCH   1  12
TORSDOF 4
ENDMDL
MODEL 9
REMARK VINA RESULT:      -6.1      1.868      5.976
REMARK  Name = 
REMARK  5 active torsions:
REMARK  status: ('A' for Active; 'I' for Inactive)
REMARK    1  A    between atoms: C_1  and  N_2
REMARK    2  A    between atoms: N_2  and  C_3
REMARK    3  A    between atoms: N_2  and  C_12
REMARK    4  A    between atoms: C_3  and  C_4
REMARK    5  A    between atoms: C_12  and  C_13
REMARK                            x       y       z     vdW  Elec       q    Type
REMARK                         _______ _______ _______ _____ _____    ______ ____
ROOT
ATOM      1  C   UNL     1       5.159   5.423  18.903  0.00  0.00    +0.000 C 
ENDROOT
BRANCH   1   2
ATOM      2  C   UNL     1       4.691   4.044  19.410  0.00  0.00    +0.000 C 
ATOM      3  O   UNL     1       5.375   3.021  19.350  0.00  0.00    +0.000 OA
ATOM      4  N   UNL     1       3.406   4.021  19.939  0.00  0.00    +0.000 N 
ATOM      5  C   UNL     1       2.884   2.846  20.606  0.00  0.00    +0.000 C 
ATOM      6  C   UNL     1       1.537   3.311  21.129  0.00  0.00    +0.000 C 
ATOM      7  N   UNL     1       1.189   4.368  20.225  0.00  0.00    +0.000 N 
ATOM      8  C   UNL     1       2.332   4.875  19.613  0.00  0.00    +0.000 C 
ATOM      9  O   UNL     1       2.350   5.897  18.954  0.00  0.00    +0.000 OA
ATOM     10  H   UNL     1       0.344   4.928  20.248  0.00  0.00    +0.000 HD
ENDBRANCH   1   2
BRANCH   1  12
ATOM     11  C   UNL     1       7.535   5.953  18.999  0.00  0.00    +0.000 C 
ATOM     12  N   UNL     1       6.457   5.394  18.173  0.00  0.00    +0.000 NA
BRANCH  12  13
ATOM     13  C   UNL     1       6.289   6.196  16.936  0.00  0.00    +0.000 C 
BRANCH  13  14
ATOM     14  C   UNL     1       6.266   5.380  15.688  0.00  0.00    +0.000 A 
ATOM     15  C   UNL     1       5.358   4.496  15.141  0.00  0.00    +0.000 A 
ATOM     16  C   UNL     1       5.926   4.042  13.927  0.00  0.00    +0.000 A 
ATOM     17  C   UNL     1       7.140   4.674  13.809  0.00  0.00    +0.000 A 
ATOM     18  O   UNL     1       7.355   5.491  14.872  0.00  0.00    +0.000 OA
ENDBRANCH  13  14
ENDBRANCH  12  13
ENDBRANCH   1  12
TORSDOF 4
ENDMDL
