MODEL 1
REMARK VINA RESULT:      -8.8      0.000      0.000
REMARK  Name = 
REMARK  8 active torsions:
REMARK  status: ('A' for Active; 'I' for Inactive)
REMARK    1  A    between atoms: C_1  and  O_2
REMARK    2  A    between atoms: O_2  and  C_3
REMARK    3  A    between atoms: C_7  and  C_8
REMARK    4  A    between atoms: N_10  and  C_11
REMARK    5  A    between atoms: C_11  and  C_12
REMARK    6  A    between atoms: C_11  and  C_13
REMARK    7  A    between atoms: C_28  and  O_29
REMARK    8  A    between atoms: O_29  and  C_30
REMARK                            x       y       z     vdW  Elec       q    Type
REMARK                         _______ _______ _______ _____ _____    ______ ____
ROOT
ATOM      1  C   UNL     1       2.557   4.561  20.117  0.00  0.00    +0.000 A 
ATOM      2  C   UNL     1       2.095   5.718  20.749  0.00  0.00    +0.000 A 
ATOM      3  C   UNL     1       1.990   6.921  20.041  0.00  0.00    +0.000 A 
ATOM      4  C   UNL     1       1.482   8.077  20.642  0.00  0.00    +0.000 A 
ATOM      5  C   UNL     1       1.322   9.243  19.892  0.00  0.00    +0.000 A 
ATOM      6  C   UNL     1       1.718   9.210  18.554  0.00  0.00    +0.000 A 
ATOM      7  N   UNL     1       1.624  10.307  17.689  0.00  0.00    +0.000 N 
ATOM      8  N   UNL     1       2.241   8.112  17.967  0.00  0.00    +0.000 NA
ATOM      9  C   UNL     1       2.372   6.986  18.691  0.00  0.00    +0.000 A 
ATOM     10  C   UNL     1       2.893   5.844  18.095  0.00  0.00    +0.000 A 
ATOM     11  C   UNL     1       2.994   4.629  18.784  0.00  0.00    +0.000 A 
ATOM     12  H   UNL     1       2.224  11.060  18.019  0.00  0.00    +0.000 HD
ATOM     13  H   UNL     1       1.977   9.965  16.792  0.00  0.00    +0.000 HD
ENDROOT
BRANCH   5  14
ATOM     14  C   UNL     1       0.679  10.411  20.565  0.00  0.00    +0.000 C 
ATOM     15  O   UNL     1       1.055  10.762  21.679  0.00  0.00    +0.000 OA
ATOM     16  N   UNL     1      -0.344  11.012  19.884  0.00  0.00    +0.000 N 
ATOM     17  H   UNL     1      -0.470  10.743  18.913  0.00  0.00    +0.000 HD
BRANCH  16  18
ATOM     18  C   UNL     1      -1.053  12.205  20.356  0.00  0.00    +0.000 C 
ATOM     19  C   UNL     1      -0.223  13.414  19.897  0.00  0.00    +0.000 C 
BRANCH  18  20
ATOM     20  C   UNL     1      -2.505  12.265  19.846  0.00  0.00    +0.000 A 
ATOM     21  C   UNL     1      -3.510  12.831  20.661  0.00  0.00    +0.000 A 
ATOM     22  C   UNL     1      -4.854  12.788  20.303  0.00  0.00    +0.000 A 
ATOM     23  C   UNL     1      -5.230  12.184  19.113  0.00  0.00    +0.000 A 
ATOM     24  C   UNL     1      -4.265  11.680  18.234  0.00  0.00    +0.000 A 
ATOM     25  C   UNL     1      -4.686  11.114  17.019  0.00  0.00    +0.000 A 
ATOM     26  C   UNL     1      -3.763  10.649  16.087  0.00  0.00    +0.000 A 
ATOM     27  C   UNL     1      -2.408  10.766  16.351  0.00  0.00    +0.000 A 
ATOM     28  C   UNL     1      -1.977  11.316  17.565  0.00  0.00    +0.000 A 
ATOM     29  C   UNL     1      -2.884  11.752  18.562  0.00  0.00    +0.000 A 
ENDBRANCH  18  20
ENDBRANCH  16  18
ENDBRANCH   5  14
BRANCH   1  31
ATOM     30  C   UNL     1       1.408   2.896  21.335  0.00  0.00    +0.000 C 
ATOM     31  O   UNL     1       2.632   3.348  20.758  0.00  0.00    +0.000 OA
ENDBRANCH   1  31
BRANCH  11  32
ATOM     32  O   UNL     1       3.479   3.468  18.234  0.00  0.00    +0.000 OA
ATOM     33  C   UNL     1       2.568   2.666  17.491  0.00  0.00    +0.000 C 
ENDBRANCH  11  32
TORSDOF 5
ENDMDL
MODEL 2
REMARK VINA RESULT:      -8.5      0.838      2.326
REMARK  Name = 
REMARK  8 active torsions:
REMARK  status: ('A' for Active; 'I' for Inactive)
REMARK    1  A    between atoms: C_1  and  O_2
REMARK    2  A    between atoms: O_2  and  C_3
REMARK    3  A    between atoms: C_7  and  C_8
REMARK    4  A    between atoms: N_10  and  C_11
REMARK    5  A    between atoms: C_11  and  C_12
REMARK    6  A    between atoms: C_11  and  C_13
REMARK    7  A    between atoms: C_28  and  O_29
REMARK    8  A    between atoms: O_29  and  C_30
REMARK                            x       y       z     vdW  Elec       q    Type
REMARK                         _______ _______ _______ _____ _____    ______ ____
ROOT
ATOM      1  C   UNL     1       2.604   4.621  19.907  0.00  0.00    +0.000 A 
ATOM      2  C   UNL     1       2.017   5.734  20.514  0.00  0.00    +0.000 A 
ATOM      3  C   UNL     1       1.996   6.973  19.859  0.00  0.00    +0.000 A 
ATOM      4  C   UNL     1       1.369   8.085  20.429  0.00  0.00    +0.000 A 
ATOM      5  C   UNL     1       1.302   9.287  19.722  0.00  0.00    +0.000 A 
ATOM      6  C   UNL     1       1.910   9.333  18.467  0.00  0.00    +0.000 A 
ATOM      7  N   UNL     1       1.928  10.474  17.654  0.00  0.00    +0.000 N 
ATOM      8  N   UNL     1       2.548   8.278  17.917  0.00  0.00    +0.000 NA
ATOM      9  C   UNL     1       2.589   7.117  18.595  0.00  0.00    +0.000 A 
ATOM     10  C   UNL     1       3.229   6.018  18.034  0.00  0.00    +0.000 A 
ATOM     11  C   UNL     1       3.248   4.769  18.668  0.00  0.00    +0.000 A 
ATOM     12  H   UNL     1       2.447  11.218  18.116  0.00  0.00    +0.000 HD
ATOM     13  H   UNL     1       2.430  10.188  16.811  0.00  0.00    +0.000 HD
ENDROOT
BRANCH   5  14
ATOM     14  C   UNL     1       0.530  10.406  20.341  0.00  0.00    +0.000 C 
ATOM     15  O   UNL     1       0.818  10.803  21.466  0.00  0.00    +0.000 OA
ATOM     16  N   UNL     1      -0.504  10.908  19.599  0.00  0.00    +0.000 N 
ATOM     17  H   UNL     1      -0.557  10.616  18.627  0.00  0.00    +0.000 HD
BRANCH  16  18
ATOM     18  C   UNL     1      -1.334  12.043  20.012  0.00  0.00    +0.000 C 
ATOM     19  C   UNL     1      -0.590  13.312  19.565  0.00  0.00    +0.000 C 
BRANCH  18  20
ATOM     20  C   UNL     1      -2.760  11.968  19.436  0.00  0.00    +0.000 A 
ATOM     21  C   UNL     1      -2.967  11.419  18.151  0.00  0.00    +0.000 A 
ATOM     22  C   UNL     1      -4.213  11.451  17.533  0.00  0.00    +0.000 A 
ATOM     23  C   UNL     1      -5.291  12.028  18.187  0.00  0.00    +0.000 A 
ATOM     24  C   UNL     1      -5.155  12.514  19.492  0.00  0.00    +0.000 A 
ATOM     25  C   UNL     1      -6.283  13.051  20.135  0.00  0.00    +0.000 A 
ATOM     26  C   UNL     1      -6.213  13.497  21.451  0.00  0.00    +0.000 A 
ATOM     27  C   UNL     1      -5.019  13.388  22.146  0.00  0.00    +0.000 A 
ATOM     28  C   UNL     1      -3.886  12.867  21.512  0.00  0.00    +0.000 A 
ATOM     29  C   UNL     1      -3.901  12.452  20.156  0.00  0.00    +0.000 A 
ENDBRANCH  18  20
ENDBRANCH  16  18
ENDBRANCH   5  14
BRANCH   1  31
ATOM     30  C   UNL     1       1.750   3.241  21.623  0.00  0.00    +0.000 C 
ATOM     31  O   UNL     1       2.606   3.376  20.489  0.00  0.00    +0.000 OA
ENDBRANCH   1  31
BRANCH  11  32
ATOM     32  O   UNL     1       3.845   3.648  18.145  0.00  0.00    +0.000 OA
ATOM     33  C   UNL     1       4.562   3.796  16.925  0.00  0.00    +0.000 C 
ENDBRANCH  11  32
TORSDOF 5
ENDMDL
MODEL 3
REMARK VINA RESULT:      -8.5      3.064      5.078
REMARK  Name = 
REMARK  8 active torsions:
REMARK  status: ('A' for Active; 'I' for Inactive)
REMARK    1  A    between atoms: C_1  and  O_2
REMARK    2  A    between atoms: O_2  and  C_3
REMARK    3  A    between atoms: C_7  and  C_8
REMARK    4  A    between atoms: N_10  and  C_11
REMARK    5  A    between atoms: C_11  and  C_12
REMARK    6  A    between atoms: C_11  and  C_13
REMARK    7  A    between atoms: C_28  and  O_29
REMARK    8  A    between atoms: O_29  and  C_30
REMARK                            x       y       z     vdW  Elec       q    Type
REMARK                         _______ _______ _______ _____ _____    ______ ____
ROOT
ATOM      1  C   UNL     1       3.606   6.635  17.801  0.00  0.00    +0.000 A 
ATOM      2  C   UNL     1       2.938   7.862  17.787  0.00  0.00    +0.000 A 
ATOM      3  C   UNL     1       2.124   8.240  18.863  0.00  0.00    +0.000 A 
ATOM      4  C   UNL     1       1.488   9.485  18.890  0.00  0.00    +0.000 A 
ATOM      5  C   UNL     1       0.741   9.864  20.007  0.00  0.00    +0.000 A 
ATOM      6  C   UNL     1       0.633   8.946  21.053  0.00  0.00    +0.000 A 
ATOM      7  N   UNL     1      -0.092   9.189  22.227  0.00  0.00    +0.000 N 
ATOM      8  N   UNL     1       1.213   7.728  21.028  0.00  0.00    +0.000 NA
ATOM      9  C   UNL     1       1.949   7.379  19.958  0.00  0.00    +0.000 A 
ATOM     10  C   UNL     1       2.566   6.134  19.926  0.00  0.00    +0.000 A 
ATOM     11  C   UNL     1       3.393   5.744  18.865  0.00  0.00    +0.000 A 
ATOM     12  H   UNL     1      -1.079   9.304  22.006  0.00  0.00    +0.000 HD
ATOM     13  H   UNL     1       0.030   8.345  22.790  0.00  0.00    +0.000 HD
ENDROOT
BRANCH   5  14
ATOM     14  C   UNL     1       0.172  11.245  20.018  0.00  0.00    +0.000 C 
ATOM     15  O   UNL     1      -1.044  11.409  20.019  0.00  0.00    +0.000 OA
ATOM     16  N   UNL     1       1.077  12.270  19.990  0.00  0.00    +0.000 N 
ATOM     17  H   UNL     1       2.052  12.027  20.146  0.00  0.00    +0.000 HD
BRANCH  16  18
ATOM     18  C   UNL     1       0.713  13.688  20.056  0.00  0.00    +0.000 C 
ATOM     19  C   UNL     1       0.856  14.106  21.529  0.00  0.00    +0.000 C 
BRANCH  18  20
ATOM     20  C   UNL     1       1.567  14.558  19.116  0.00  0.00    +0.000 A 
ATOM     21  C   UNL     1       2.887  14.164  18.804  0.00  0.00    +0.000 A 
ATOM     22  C   UNL     1       3.742  14.980  18.072  0.00  0.00    +0.000 A 
ATOM     23  C   UNL     1       3.297  16.214  17.621  0.00  0.00    +0.000 A 
ATOM     24  C   UNL     1       1.974  16.616  17.836  0.00  0.00    +0.000 A 
ATOM     25  C   UNL     1       1.552  17.855  17.326  0.00  0.00    +0.000 A 
ATOM     26  C   UNL     1       0.233  18.276  17.465  0.00  0.00    +0.000 A 
ATOM     27  C   UNL     1      -0.684  17.450  18.096  0.00  0.00    +0.000 A 
ATOM     28  C   UNL     1      -0.272  16.219  18.620  0.00  0.00    +0.000 A 
ATOM     29  C   UNL     1       1.073  15.778  18.546  0.00  0.00    +0.000 A 
ENDBRANCH  18  20
ENDBRANCH  16  18
ENDBRANCH   5  14
BRANCH   1  31
ATOM     30  C   UNL     1       5.767   6.792  16.862  0.00  0.00    +0.000 C 
ATOM     31  O   UNL     1       4.452   6.242  16.792  0.00  0.00    +0.000 OA
ENDBRANCH   1  31
BRANCH  11  32
ATOM     32  O   UNL     1       4.044   4.536  18.798  0.00  0.00    +0.000 OA
ATOM     33  C   UNL     1       3.596   3.502  19.667  0.00  0.00    +0.000 C 
ENDBRANCH  11  32
TORSDOF 5
ENDMDL
MODEL 4
REMARK VINA RESULT:      -8.4      1.379      2.895
REMARK  Name = 
REMARK  8 active torsions:
REMARK  status: ('A' for Active; 'I' for Inactive)
REMARK    1  A    between atoms: C_1  and  O_2
REMARK    2  A    between atoms: O_2  and  C_3
REMARK    3  A    between atoms: C_7  and  C_8
REMARK    4  A    between atoms: N_10  and  C_11
REMARK    5  A    between atoms: C_11  and  C_12
REMARK    6  A    between atoms: C_11  and  C_13
REMARK    7  A    between atoms: C_28  and  O_29
REMARK    8  A    between atoms: O_29  and  C_30
REMARK                            x       y       z     vdW  Elec       q    Type
REMARK                         _______ _______ _______ _____ _____    ______ ____
ROOT
ATOM      1  C   UNL     1       2.247   4.312  19.806  0.00  0.00    +0.000 A 
ATOM      2  C   UNL     1       1.902   5.407  20.601  0.00  0.00    +0.000 A 
ATOM      3  C   UNL     1       1.836   6.693  20.049  0.00  0.00    +0.000 A 
ATOM      4  C   UNL     1       1.444   7.794  20.817  0.00  0.00    +0.000 A 
ATOM      5  C   UNL     1       1.318   9.051  20.223  0.00  0.00    +0.000 A 
ATOM      6  C   UNL     1       1.629   9.159  18.867  0.00  0.00    +0.000 A 
ATOM      7  N   UNL     1       1.558  10.358  18.146  0.00  0.00    +0.000 N 
ATOM      8  N   UNL     1       2.041   8.112  18.120  0.00  0.00    +0.000 NA
ATOM      9  C   UNL     1       2.140   6.901  18.694  0.00  0.00    +0.000 A 
ATOM     10  C   UNL     1       2.546   5.812  17.932  0.00  0.00    +0.000 A 
ATOM     11  C   UNL     1       2.606   4.517  18.464  0.00  0.00    +0.000 A 
ATOM     12  H   UNL     1       2.225  11.028  18.523  0.00  0.00    +0.000 HD
ATOM     13  H   UNL     1       1.832  10.109  17.194  0.00  0.00    +0.000 HD
ENDROOT
BRANCH   5  14
ATOM     14  C   UNL     1       0.797  10.164  21.072  0.00  0.00    +0.000 C 
ATOM     15  O   UNL     1       1.239  10.332  22.204  0.00  0.00    +0.000 OA
ATOM     16  N   UNL     1      -0.198  10.927  20.524  0.00  0.00    +0.000 N 
ATOM     17  H   UNL     1      -0.380  10.801  19.532  0.00  0.00    +0.000 HD
BRANCH  16  18
ATOM     18  C   UNL     1      -0.791  12.096  21.180  0.00  0.00    +0.000 C 
ATOM     19  C   UNL     1      -0.014  13.320  20.670  0.00  0.00    +0.000 C 
BRANCH  18  20
ATOM     20  C   UNL     1      -2.303  12.213  20.917  0.00  0.00    +0.000 A 
ATOM     21  C   UNL     1      -2.791  12.141  19.593  0.00  0.00    +0.000 A 
ATOM     22  C   UNL     1      -4.128  12.375  19.291  0.00  0.00    +0.000 A 
ATOM     23  C   UNL     1      -5.020  12.679  20.308  0.00  0.00    +0.000 A 
ATOM     24  C   UNL     1      -4.603  12.684  21.644  0.00  0.00    +0.000 A 
ATOM     25  C   UNL     1      -5.548  12.955  22.647  0.00  0.00    +0.000 A 
ATOM     26  C   UNL     1      -5.196  12.917  23.993  0.00  0.00    +0.000 A 
ATOM     27  C   UNL     1      -3.898  12.585  24.350  0.00  0.00    +0.000 A 
ATOM     28  C   UNL     1      -2.945  12.326  23.358  0.00  0.00    +0.000 A 
ATOM     29  C   UNL     1      -3.250  12.406  21.976  0.00  0.00    +0.000 A 
ENDBRANCH  18  20
ENDBRANCH  16  18
ENDBRANCH   5  14
BRANCH   1  31
ATOM     30  C   UNL     1       1.874   2.887  21.652  0.00  0.00    +0.000 C 
ATOM     31  O   UNL     1       2.278   3.027  20.291  0.00  0.00    +0.000 OA
ENDBRANCH   1  31
BRANCH  11  32
ATOM     32  O   UNL     1       2.978   3.405  17.748  0.00  0.00    +0.000 OA
ATOM     33  C   UNL     1       4.275   3.408  17.162  0.00  0.00    +0.000 C 
ENDBRANCH  11  32
TORSDOF 5
ENDMDL
MODEL 5
REMARK VINA RESULT:      -8.4      1.548      3.244
REMARK  Name = 
REMARK  8 active torsions:
REMARK  status: ('A' for Active; 'I' for Inactive)
REMARK    1  A    between atoms: C_1  and  O_2
REMARK    2  A    between atoms: O_2  and  C_3
REMARK    3  A    between atoms: C_7  and  C_8
REMARK    4  A    between atoms: N_10  and  C_11
REMARK    5  A    between atoms: C_11  and  C_12
REMARK    6  A    between atoms: C_11  and  C_13
REMARK    7  A    between atoms: C_28  and  O_29
REMARK    8  A    between atoms: O_29  and  C_30
REMARK                            x       y       z     vdW  Elec       q    Type
REMARK                         _______ _______ _______ _____ _____    ______ ____
ROOT
ATOM      1  C   UNL     1       3.672   6.025  17.820  0.00  0.00    +0.000 A 
ATOM      2  C   UNL     1       2.990   7.243  17.805  0.00  0.00    +0.000 A 
ATOM      3  C   UNL     1       2.244   7.654  18.918  0.00  0.00    +0.000 A 
ATOM      4  C   UNL     1       1.595   8.892  18.941  0.00  0.00    +0.000 A 
ATOM      5  C   UNL     1       0.919   9.305  20.090  0.00  0.00    +0.000 A 
ATOM      6  C   UNL     1       0.892   8.427  21.175  0.00  0.00    +0.000 A 
ATOM      7  N   UNL     1       0.243   8.707  22.384  0.00  0.00    +0.000 N 
ATOM      8  N   UNL     1       1.485   7.214  21.156  0.00  0.00    +0.000 NA
ATOM      9  C   UNL     1       2.152   6.833  20.053  0.00  0.00    +0.000 A 
ATOM     10  C   UNL     1       2.781   5.594  20.027  0.00  0.00    +0.000 A 
ATOM     11  C   UNL     1       3.541   5.172  18.928  0.00  0.00    +0.000 A 
ATOM     12  H   UNL     1      -0.758   8.803  22.225  0.00  0.00    +0.000 HD
ATOM     13  H   UNL     1       0.413   7.886  22.969  0.00  0.00    +0.000 HD
ENDROOT
BRANCH   5  14
ATOM     14  C   UNL     1       0.335  10.680  20.088  0.00  0.00    +0.000 C 
ATOM     15  O   UNL     1       0.850  11.567  20.762  0.00  0.00    +0.000 OA
ATOM     16  N   UNL     1      -0.793  10.855  19.335  0.00  0.00    +0.000 N 
ATOM     17  H   UNL     1      -1.043  10.102  18.700  0.00  0.00    +0.000 HD
BRANCH  16  18
ATOM     18  C   UNL     1      -1.472  12.143  19.162  0.00  0.00    +0.000 C 
ATOM     19  C   UNL     1      -0.670  12.918  18.104  0.00  0.00    +0.000 C 
BRANCH  18  20
ATOM     20  C   UNL     1      -2.952  11.979  18.768  0.00  0.00    +0.000 A 
ATOM     21  C   UNL     1      -3.284  11.487  17.486  0.00  0.00    +0.000 A 
ATOM     22  C   UNL     1      -4.600  11.448  17.036  0.00  0.00    +0.000 A 
ATOM     23  C   UNL     1      -5.623  11.891  17.860  0.00  0.00    +0.000 A 
ATOM     24  C   UNL     1      -5.353  12.312  19.167  0.00  0.00    +0.000 A 
ATOM     25  C   UNL     1      -6.424  12.713  19.983  0.00  0.00    +0.000 A 
ATOM     26  C   UNL     1      -6.215  13.087  21.307  0.00  0.00    +0.000 A 
ATOM     27  C   UNL     1      -4.934  13.043  21.835  0.00  0.00    +0.000 A 
ATOM     28  C   UNL     1      -3.858  12.658  21.027  0.00  0.00    +0.000 A 
ATOM     29  C   UNL     1      -4.021  12.320  19.660  0.00  0.00    +0.000 A 
ENDBRANCH  18  20
ENDBRANCH  16  18
ENDBRANCH   5  14
BRANCH   1  31
ATOM     30  C   UNL     1       5.414   6.555  16.315  0.00  0.00    +0.000 C 
ATOM     31  O   UNL     1       4.454   5.602  16.772  0.00  0.00    +0.000 OA
ENDBRANCH   1  31
BRANCH  11  32
ATOM     32  O   UNL     1       4.201   3.969  18.862  0.00  0.00    +0.000 OA
ATOM     33  C   UNL     1       3.462   2.798  19.191  0.00  0.00    +0.000 C 
ENDBRANCH  11  32
TORSDOF 5
ENDMDL
MODEL 6
REMARK VINA RESULT:      -8.3      2.756      8.792
REMARK  Name = 
REMARK  8 active torsions:
REMARK  status: ('A' for Active; 'I' for Inactive)
REMARK    1  A    between atoms: C_1  and  O_2
REMARK    2  A    between atoms: O_2  and  C_3
REMARK    3  A    between atoms: C_7  and  C_8
REMARK    4  A    between atoms: N_10  and  C_11
REMARK    5  A    between atoms: C_11  and  C_12
REMARK    6  A    between atoms: C_11  and  C_13
REMARK    7  A    between atoms: C_28  and  O_29
REMARK    8  A    between atoms: O_29  and  C_30
REMARK                            x       y       z     vdW  Elec       q    Type
REMARK                         _______ _______ _______ _____ _____    ______ ____
ROOT
ATOM      1  C   UNL     1      -3.251  10.723  16.625  0.00  0.00    +0.000 A 
ATOM      2  C   UNL     1      -2.061   9.992  16.610  0.00  0.00    +0.000 A 
ATOM      3  C   UNL     1      -1.201  10.011  17.715  0.00  0.00    +0.000 A 
ATOM      4  C   UNL     1      -0.031   9.246  17.739  0.00  0.00    +0.000 A 
ATOM      5  C   UNL     1       0.770   9.229  18.882  0.00  0.00    +0.000 A 
ATOM      6  C   UNL     1       0.375  10.023  19.960  0.00  0.00    +0.000 A 
ATOM      7  N   UNL     1       1.088  10.111  21.162  0.00  0.00    +0.000 N 
ATOM      8  N   UNL     1      -0.734  10.794  19.940  0.00  0.00    +0.000 NA
ATOM      9  C   UNL     1      -1.511  10.787  18.843  0.00  0.00    +0.000 A 
ATOM     10  C   UNL     1      -2.664  11.563  18.816  0.00  0.00    +0.000 A 
ATOM     11  C   UNL     1      -3.543  11.546  17.725  0.00  0.00    +0.000 A 
ATOM     12  H   UNL     1       2.007  10.512  20.991  0.00  0.00    +0.000 HD
ATOM     13  H   UNL     1       0.544  10.753  21.743  0.00  0.00    +0.000 HD
ENDROOT
BRANCH   5  14
ATOM     14  C   UNL     1       1.950   8.313  18.882  0.00  0.00    +0.000 C 
ATOM     15  O   UNL     1       2.938   8.583  18.206  0.00  0.00    +0.000 OA
ATOM     16  N   UNL     1       1.832   7.177  19.635  0.00  0.00    +0.000 N 
ATOM     17  H   UNL     1       1.041   7.128  20.272  0.00  0.00    +0.000 HD
BRANCH  16  18
ATOM     18  C   UNL     1       2.903   6.191  19.806  0.00  0.00    +0.000 C 
ATOM     19  C   UNL     1       2.570   5.405  21.085  0.00  0.00    +0.000 C 
BRANCH  18  20
ATOM     20  C   UNL     1       3.056   5.272  18.580  0.00  0.00    +0.000 A 
ATOM     21  C   UNL     1       2.003   4.400  18.223  0.00  0.00    +0.000 A 
ATOM     22  C   UNL     1       2.144   3.459  17.208  0.00  0.00    +0.000 A 
ATOM     23  C   UNL     1       3.342   3.369  16.515  0.00  0.00    +0.000 A 
ATOM     24  C   UNL     1       4.386   4.262  16.777  0.00  0.00    +0.000 A 
ATOM     25  C   UNL     1       5.567   4.164  16.023  0.00  0.00    +0.000 A 
ATOM     26  C   UNL     1       6.613   5.063  16.207  0.00  0.00    +0.000 A 
ATOM     27  C   UNL     1       6.478   6.085  17.133  0.00  0.00    +0.000 A 
ATOM     28  C   UNL     1       5.312   6.185  17.900  0.00  0.00    +0.000 A 
ATOM     29  C   UNL     1       4.246   5.258  17.781  0.00  0.00    +0.000 A 
ENDBRANCH  18  20
ENDBRANCH  16  18
ENDBRANCH   5  14
BRANCH   1  31
ATOM     30  C   UNL     1      -3.629  10.192  14.355  0.00  0.00    +0.000 C 
ATOM     31  O   UNL     1      -4.148  10.698  15.585  0.00  0.00    +0.000 OA
ENDBRANCH   1  31
BRANCH  11  32
ATOM     32  O   UNL     1      -4.705  12.275  17.659  0.00  0.00    +0.000 OA
ATOM     33  C   UNL     1      -5.743  11.935  18.571  0.00  0.00    +0.000 C 
ENDBRANCH  11  32
TORSDOF 5
ENDMDL
MODEL 7
REMARK VINA RESULT:      -8.3      3.028      4.126
REMARK  Name = 
REMARK  8 active torsions:
REMARK  status: ('A' for Active; 'I' for Inactive)
REMARK    1  A    between atoms: C_1  and  O_2
REMARK    2  A    between atoms: O_2  and  C_3
REMARK    3  A    between atoms: C_7  and  C_8
REMARK    4  A    between atoms: N_10  and  C_11
REMARK    5  A    between atoms: C_11  and  C_12
REMARK    6  A    between atoms: C_11  and  C_13
REMARK    7  A    between atoms: C_28  and  O_29
REMARK    8  A    between atoms: O_29  and  C_30
REMARK                            x       y       z     vdW  Elec       q    Type
REMARK                         _______ _______ _______ _____ _____    ______ ____
ROOT
ATOM      1  C   UNL     1       4.206   4.648  18.623  0.00  0.00    +0.000 A 
ATOM      2  C   UNL     1       3.264   5.372  19.356  0.00  0.00    +0.000 A 
ATOM      3  C   UNL     1       2.897   6.665  18.962  0.00  0.00    +0.000 A 
ATOM      4  C   UNL     1       1.919   7.386  19.654  0.00  0.00    +0.000 A 
ATOM      5  C   UNL     1       1.522   8.644  19.196  0.00  0.00    +0.000 A 
ATOM      6  C   UNL     1       2.160   9.149  18.063  0.00  0.00    +0.000 A 
ATOM      7  N   UNL     1       1.871  10.399  17.501  0.00  0.00    +0.000 N 
ATOM      8  N   UNL     1       3.130   8.480  17.403  0.00  0.00    +0.000 NA
ATOM      9  C   UNL     1       3.491   7.260  17.838  0.00  0.00    +0.000 A 
ATOM     10  C   UNL     1       4.476   6.553  17.158  0.00  0.00    +0.000 A 
ATOM     11  C   UNL     1       4.846   5.255  17.530  0.00  0.00    +0.000 A 
ATOM     12  H   UNL     1       2.101  11.137  18.162  0.00  0.00    +0.000 HD
ATOM     13  H   UNL     1       2.487  10.471  16.688  0.00  0.00    +0.000 HD
ENDROOT
BRANCH   5  14
ATOM     14  C   UNL     1       0.402   9.317  19.919  0.00  0.00    +0.000 C 
ATOM     15  O   UNL     1      -0.601   9.669  19.305  0.00  0.00    +0.000 OA
ATOM     16  N   UNL     1       0.590   9.534  21.256  0.00  0.00    +0.000 N 
ATOM     17  H   UNL     1       1.382   9.068  21.690  0.00  0.00    +0.000 HD
BRANCH  16  18
ATOM     18  C   UNL     1      -0.418  10.125  22.141  0.00  0.00    +0.000 C 
ATOM     19  C   UNL     1      -0.135   9.576  23.549  0.00  0.00    +0.000 C 
BRANCH  18  20
ATOM     20  C   UNL     1      -0.404  11.664  22.101  0.00  0.00    +0.000 A 
ATOM     21  C   UNL     1       0.631  12.337  21.414  0.00  0.00    +0.000 A 
ATOM     22  C   UNL     1       0.762  13.721  21.462  0.00  0.00    +0.000 A 
ATOM     23  C   UNL     1      -0.145  14.474  22.192  0.00  0.00    +0.000 A 
ATOM     24  C   UNL     1      -1.233  13.862  22.824  0.00  0.00    +0.000 A 
ATOM     25  C   UNL     1      -2.153  14.665  23.517  0.00  0.00    +0.000 A 
ATOM     26  C   UNL     1      -3.281  14.112  24.116  0.00  0.00    +0.000 A 
ATOM     27  C   UNL     1      -3.512  12.749  24.006  0.00  0.00    +0.000 A 
ATOM     28  C   UNL     1      -2.596  11.937  23.329  0.00  0.00    +0.000 A 
ATOM     29  C   UNL     1      -1.408  12.453  22.752  0.00  0.00    +0.000 A 
ENDBRANCH  18  20
ENDBRANCH  16  18
ENDBRANCH   5  14
BRANCH   1  31
ATOM     30  C   UNL     1       3.841   2.791  20.035  0.00  0.00    +0.000 C 
ATOM     31  O   UNL     1       4.562   3.360  18.943  0.00  0.00    +0.000 OA
ENDBRANCH   1  31
BRANCH  11  32
ATOM     32  O   UNL     1       5.795   4.506  16.878  0.00  0.00    +0.000 OA
ATOM     33  C   UNL     1       5.661   4.364  15.468  0.00  0.00    +0.000 C 
ENDBRANCH  11  32
TORSDOF 5
ENDMDL
MODEL 8
REMARK VINA RESULT:      -8.3      2.707      8.556
REMARK  Name = 
REMARK  8 active torsions:
REMARK  status: ('A' for Active; 'I' for Inactive)
REMARK    1  A    between atoms: C_1  and  O_2
REMARK    2  A    between atoms: O_2  and  C_3
REMARK    3  A    between atoms: C_7  and  C_8
REMARK    4  A    between atoms: N_10  and  C_11
REMARK    5  A    between atoms: C_11  and  C_12
REMARK    6  A    between atoms: C_11  and  C_13
REMARK    7  A    between atoms: C_28  and  O_29
REMARK    8  A    between atoms: O_29  and  C_30
REMARK                            x       y       z     vdW  Elec       q    Type
REMARK                         _______ _______ _______ _____ _____    ______ ____
ROOT
ATOM      1  C   UNL     1      -3.386  10.546  16.187  0.00  0.00    +0.000 A 
ATOM      2  C   UNL     1      -2.213   9.917  16.609  0.00  0.00    +0.000 A 
ATOM      3  C   UNL     1      -1.657  10.213  17.860  0.00  0.00    +0.000 A 
ATOM      4  C   UNL     1      -0.511   9.557  18.320  0.00  0.00    +0.000 A 
ATOM      5  C   UNL     1      -0.021   9.821  19.601  0.00  0.00    +0.000 A 
ATOM      6  C   UNL     1      -0.693  10.775  20.365  0.00  0.00    +0.000 A 
ATOM      7  N   UNL     1      -0.307  11.145  21.659  0.00  0.00    +0.000 N 
ATOM      8  N   UNL     1      -1.781  11.442  19.923  0.00  0.00    +0.000 NA
ATOM      9  C   UNL     1      -2.259  11.166  18.697  0.00  0.00    +0.000 A 
ATOM     10  C   UNL     1      -3.388  11.833  18.236  0.00  0.00    +0.000 A 
ATOM     11  C   UNL     1      -3.965  11.541  16.993  0.00  0.00    +0.000 A 
ATOM     12  H   UNL     1       0.616  11.574  21.635  0.00  0.00    +0.000 HD
ATOM     13  H   UNL     1      -0.994  11.844  21.949  0.00  0.00    +0.000 HD
ENDROOT
BRANCH   5  14
ATOM     14  C   UNL     1       1.144   9.013  20.071  0.00  0.00    +0.000 C 
ATOM     15  O   UNL     1       1.834   9.415  21.003  0.00  0.00    +0.000 OA
ATOM     16  N   UNL     1       1.391   7.855  19.386  0.00  0.00    +0.000 N 
ATOM     17  H   UNL     1       0.673   7.542  18.739  0.00  0.00    +0.000 HD
BRANCH  16  18
ATOM     18  C   UNL     1       2.450   6.904  19.738  0.00  0.00    +0.000 C 
ATOM     19  C   UNL     1       2.094   6.352  21.127  0.00  0.00    +0.000 C 
BRANCH  18  20
ATOM     20  C   UNL     1       2.610   5.788  18.689  0.00  0.00    +0.000 A 
ATOM     21  C   UNL     1       1.674   4.731  18.644  0.00  0.00    +0.000 A 
ATOM     22  C   UNL     1       1.848   3.633  17.808  0.00  0.00    +0.000 A 
ATOM     23  C   UNL     1       2.961   3.566  16.984  0.00  0.00    +0.000 A 
ATOM     24  C   UNL     1       3.875   4.625  16.933  0.00  0.00    +0.000 A 
ATOM     25  C   UNL     1       4.967   4.535  16.054  0.00  0.00    +0.000 A 
ATOM     26  C   UNL     1       5.873   5.583  15.926  0.00  0.00    +0.000 A 
ATOM     27  C   UNL     1       5.683   6.743  16.661  0.00  0.00    +0.000 A 
ATOM     28  C   UNL     1       4.606   6.838  17.551  0.00  0.00    +0.000 A 
ATOM     29  C   UNL     1       3.692   5.773  17.749  0.00  0.00    +0.000 A 
ENDBRANCH  18  20
ENDBRANCH  16  18
ENDBRANCH   5  14
BRANCH   1  31
ATOM     30  C   UNL     1      -3.099   9.948  13.921  0.00  0.00    +0.000 C 
ATOM     31  O   UNL     1      -3.994  10.254  14.990  0.00  0.00    +0.000 OA
ENDBRANCH   1  31
BRANCH  11  32
ATOM     32  O   UNL     1      -5.092  12.153  16.502  0.00  0.00    +0.000 OA
ATOM     33  C   UNL     1      -6.026  12.661  17.448  0.00  0.00    +0.000 C 
ENDBRANCH  11  32
TORSDOF 5
ENDMDL
MODEL 9
REMARK VINA RESULT:      -8.3      1.891      3.392
REMARK  Name = 
REMARK  8 active torsions:
REMARK  status: ('A' for Active; 'I' for Inactive)
REMARK    1  A    between atoms: C_1  and  O_2
REMARK    2  A    between atoms: O_2  and  C_3
REMARK    3  A    between atoms: C_7  and  C_8
REMARK    4  A    between atoms: N_10  and  C_11
REMARK    5  A    between atoms: C_11  and  C_12
REMARK    6  A    between atoms: C_11  and  C_13
REMARK    7  A    between atoms: C_28  and  O_29
REMARK    8  A    between atoms: O_29  and  C_30
REMARK                            x       y       z     vdW  Elec       q    Type
REMARK                         _______ _______ _______ _____ _____    ______ ____
ROOT
ATOM      1  C   UNL     1       2.259   6.172  19.854  0.00  0.00    +0.000 A 
ATOM      2  C   UNL     1       1.703   7.214  20.599  0.00  0.00    +0.000 A 
ATOM      3  C   UNL     1       1.530   8.482  20.031  0.00  0.00    +0.000 A 
ATOM      4  C   UNL     1       0.929   9.523  20.745  0.00  0.00    +0.000 A 
ATOM      5  C   UNL     1       0.705  10.756  20.128  0.00  0.00    +0.000 A 
ATOM      6  C   UNL     1       1.135  10.906  18.809  0.00  0.00    +0.000 A 
ATOM      7  N   UNL     1       0.985  12.088  18.073  0.00  0.00    +0.000 N 
ATOM      8  N   UNL     1       1.747   9.921  18.117  0.00  0.00    +0.000 NA
ATOM      9  C   UNL     1       1.939   8.730  18.711  0.00  0.00    +0.000 A 
ATOM     10  C   UNL     1       2.553   7.703  18.004  0.00  0.00    +0.000 A 
ATOM     11  C   UNL     1       2.723   6.425  18.552  0.00  0.00    +0.000 A 
ATOM     12  H   UNL     1       1.522  12.835  18.507  0.00  0.00    +0.000 HD
ATOM     13  H   UNL     1       1.382  11.877  17.155  0.00  0.00    +0.000 HD
ENDROOT
BRANCH   5  14
ATOM     14  C   UNL     1      -0.033  11.792  20.910  0.00  0.00    +0.000 C 
ATOM     15  O   UNL     1       0.500  12.329  21.876  0.00  0.00    +0.000 OA
ATOM     16  N   UNL     1      -1.312  12.057  20.504  0.00  0.00    +0.000 N 
ATOM     17  H   UNL     1      -1.598  11.673  19.608  0.00  0.00    +0.000 HD
BRANCH  16  18
ATOM     18  C   UNL     1      -2.169  13.081  21.109  0.00  0.00    +0.000 C 
ATOM     19  C   UNL     1      -1.765  14.419  20.468  0.00  0.00    +0.000 C 
BRANCH  18  20
ATOM     20  C   UNL     1      -3.667  12.775  20.926  0.00  0.00    +0.000 A 
ATOM     21  C   UNL     1      -4.184  12.555  19.630  0.00  0.00    +0.000 A 
ATOM     22  C   UNL     1      -5.548  12.409  19.400  0.00  0.00    +0.000 A 
ATOM     23  C   UNL     1      -6.435  12.471  20.464  0.00  0.00    +0.000 A 
ATOM     24  C   UNL     1      -5.967  12.607  21.775  0.00  0.00    +0.000 A 
ATOM     25  C   UNL     1      -6.897  12.622  22.828  0.00  0.00    +0.000 A 
ATOM     26  C   UNL     1      -6.479  12.701  24.153  0.00  0.00    +0.000 A 
ATOM     27  C   UNL     1      -5.124  12.742  24.440  0.00  0.00    +0.000 A 
ATOM     28  C   UNL     1      -4.188  12.741  23.399  0.00  0.00    +0.000 A 
ATOM     29  C   UNL     1      -4.574  12.716  22.035  0.00  0.00    +0.000 A 
ENDBRANCH  18  20
ENDBRANCH  16  18
ENDBRANCH   5  14
BRANCH   1  31
ATOM     30  C   UNL     1       1.187   4.168  20.493  0.00  0.00    +0.000 C 
ATOM     31  O   UNL     1       2.404   4.900  20.352  0.00  0.00    +0.000 OA
ENDBRANCH   1  31
BRANCH  11  32
ATOM     32  O   UNL     1       3.301   5.371  17.888  0.00  0.00    +0.000 OA
ATOM     33  C   UNL     1       4.705   5.429  17.663  0.00  0.00    +0.000 C 
ENDBRANCH  11  32
TORSDOF 5
ENDMDL
