MODEL 1
REMARK VINA RESULT:      -7.6      0.000      0.000
REMARK  Name = 
REMARK  9 active torsions:
REMARK  status: ('A' for Active; 'I' for Inactive)
REMARK    1  A    between atoms: C_1  and  C_2
REMARK    2  A    between atoms: C_2  and  C_3
REMARK    3  A    between atoms: C_2  and  O_4
REMARK    4  A    between atoms: C_2  and  C_12
REMARK    5  A    between atoms: O_4  and  C_5
REMARK    6  A    between atoms: C_12  and  O_14
REMARK    7  A    between atoms: O_14  and  C_15
REMARK    8  A    between atoms: C_15  and  C_16
REMARK    9  A    between atoms: C_18  and  O_19
REMARK                            x       y       z     vdW  Elec       q    Type
REMARK                         _______ _______ _______ _____ _____    ______ ____
ROOT
ATOM      1  C   UNL     1       2.311   2.991  18.934  0.00  0.00    +0.000 C 
ATOM      2  O   UNL     1       1.423   2.783  18.114  0.00  0.00    +0.000 OA
ENDROOT
BRANCH   1   4
ATOM      3  C   UNL     1       2.528   2.806  21.386  0.00  0.00    +0.000 C 
ATOM      4  C   UNL     1       2.118   3.770  20.262  0.00  0.00    +0.000 C 
ATOM      5  C   UNL     1       0.630   4.158  20.309  0.00  0.00    +0.000 C 
BRANCH   4   6
ATOM      6  O   UNL     1       2.968   4.929  20.180  0.00  0.00    +0.000 OA
BRANCH   6   7
ATOM      7  C   UNL     1       2.557   6.134  19.685  0.00  0.00    +0.000 A 
ATOM      8  C   UNL     1       2.656   6.584  18.370  0.00  0.00    +0.000 A 
ATOM      9  C   UNL     1       2.192   7.854  18.003  0.00  0.00    +0.000 A 
ATOM     10  C   UNL     1       1.620   8.686  18.958  0.00  0.00    +0.000 A 
ATOM     11 CL   UNL     1       1.047  10.240  18.500  0.00  0.00    +0.000 Cl
ATOM     12  C   UNL     1       1.516   8.260  20.278  0.00  0.00    +0.000 A 
ATOM     13  C   UNL     1       1.985   6.989  20.636  0.00  0.00    +0.000 A 
ENDBRANCH   6   7
ENDBRANCH   4   6
ENDBRANCH   1   4
BRANCH   1  14
ATOM     14  O   UNL     1       3.585   2.519  18.797  0.00  0.00    +0.000 OA
BRANCH  14  15
ATOM     15  C   UNL     1       4.165   2.765  17.500  0.00  0.00    +0.000 C 
BRANCH  15  16
ATOM     16  C   UNL     1       4.988   4.042  17.428  0.00  0.00    +0.000 A 
ATOM     17  N   UNL     1       4.790   4.855  16.367  0.00  0.00    +0.000 NA
ATOM     18  C   UNL     1       5.540   5.960  16.286  0.00  0.00    +0.000 A 
ATOM     19  C   UNL     1       6.487   6.261  17.244  0.00  0.00    +0.000 A 
ATOM     20  S   UNL     1       7.564   7.587  17.389  0.00  0.00    +0.000 S 
ATOM     21  C   UNL     1       8.228   6.974  18.841  0.00  0.00    +0.000 A 
ATOM     22  C   UNL     1       7.649   5.779  19.208  0.00  0.00    +0.000 A 
ATOM     23  C   UNL     1       6.639   5.360  18.292  0.00  0.00    +0.000 A 
ATOM     24  N   UNL     1       5.904   4.225  18.397  0.00  0.00    +0.000 NA
BRANCH  18  25
ATOM     25  O   UNL     1       5.295   6.742  15.194  0.00  0.00    +0.000 OA
ATOM     26  H   UNL     1       4.325   6.807  15.231  0.00  0.00    +0.000 HD
ENDBRANCH  18  25
ENDBRANCH  15  16
ENDBRANCH  14  15
ENDBRANCH   1  14
TORSDOF 7
ENDMDL
MODEL 2
REMARK VINA RESULT:      -7.4      0.840      1.477
REMARK  Name = 
REMARK  9 active torsions:
REMARK  status: ('A' for Active; 'I' for Inactive)
REMARK    1  A    between atoms: C_1  and  C_2
REMARK    2  A    between atoms: C_2  and  C_3
REMARK    3  A    between atoms: C_2  and  O_4
REMARK    4  A    between atoms: C_2  and  C_12
REMARK    5  A    between atoms: O_4  and  C_5
REMARK    6  A    between atoms: C_12  and  O_14
REMARK    7  A    between atoms: O_14  and  C_15
REMARK    8  A    between atoms: C_15  and  C_16
REMARK    9  A    between atoms: C_18  and  O_19
REMARK                            x       y       z     vdW  Elec       q    Type
REMARK                         _______ _______ _______ _____ _____    ______ ____
ROOT
ATOM      1  C   UNL     1       2.965   3.312  19.322  0.00  0.00    +0.000 C 
ATOM      2  O   UNL     1       3.545   2.885  20.314  0.00  0.00    +0.000 OA
ENDROOT
BRANCH   1   4
ATOM      3  C   UNL     1       1.039   4.298  20.510  0.00  0.00    +0.000 C 
ATOM      4  C   UNL     1       1.990   4.521  19.325  0.00  0.00    +0.000 C 
ATOM      5  C   UNL     1       1.279   4.490  17.961  0.00  0.00    +0.000 C 
BRANCH   4   6
ATOM      6  O   UNL     1       2.805   5.698  19.474  0.00  0.00    +0.000 OA
BRANCH   6   7
ATOM      7  C   UNL     1       2.314   6.971  19.401  0.00  0.00    +0.000 A 
ATOM      8  C   UNL     1       1.711   7.703  20.423  0.00  0.00    +0.000 A 
ATOM      9  C   UNL     1       1.248   9.006  20.202  0.00  0.00    +0.000 A 
ATOM     10  C   UNL     1       1.388   9.590  18.949  0.00  0.00    +0.000 A 
ATOM     11 CL   UNL     1       0.824  11.192  18.686  0.00  0.00    +0.000 Cl
ATOM     12  C   UNL     1       1.982   8.875  17.913  0.00  0.00    +0.000 A 
ATOM     13  C   UNL     1       2.440   7.571  18.142  0.00  0.00    +0.000 A 
ENDBRANCH   6   7
ENDBRANCH   4   6
ENDBRANCH   1   4
BRANCH   1  14
ATOM     14  O   UNL     1       3.141   2.798  18.070  0.00  0.00    +0.000 OA
BRANCH  14  15
ATOM     15  C   UNL     1       4.521   2.706  17.662  0.00  0.00    +0.000 C 
BRANCH  15  16
ATOM     16  C   UNL     1       5.220   4.052  17.554  0.00  0.00    +0.000 A 
ATOM     17  N   UNL     1       4.856   4.866  16.538  0.00  0.00    +0.000 NA
ATOM     18  C   UNL     1       5.497   6.035  16.422  0.00  0.00    +0.000 A 
ATOM     19  C   UNL     1       6.498   6.399  17.300  0.00  0.00    +0.000 A 
ATOM     20  S   UNL     1       7.464   7.812  17.386  0.00  0.00    +0.000 S 
ATOM     21  C   UNL     1       8.309   7.231  18.754  0.00  0.00    +0.000 A 
ATOM     22  C   UNL     1       7.872   5.983  19.138  0.00  0.00    +0.000 A 
ATOM     23  C   UNL     1       6.822   5.494  18.303  0.00  0.00    +0.000 A 
ATOM     24  N   UNL     1       6.201   4.296  18.441  0.00  0.00    +0.000 NA
BRANCH  18  25
ATOM     25  O   UNL     1       5.087   6.813  15.379  0.00  0.00    +0.000 OA
ATOM     26  H   UNL     1       5.071   7.690  15.800  0.00  0.00    +0.000 HD
ENDBRANCH  18  25
ENDBRANCH  15  16
ENDBRANCH  14  15
ENDBRANCH   1  14
TORSDOF 7
ENDMDL
MODEL 3
REMARK VINA RESULT:      -7.2      3.454      6.006
REMARK  Name = 
REMARK  9 active torsions:
REMARK  status: ('A' for Active; 'I' for Inactive)
REMARK    1  A    between atoms: C_1  and  C_2
REMARK    2  A    between atoms: C_2  and  C_3
REMARK    3  A    between atoms: C_2  and  O_4
REMARK    4  A    between atoms: C_2  and  C_12
REMARK    5  A    between atoms: O_4  and  C_5
REMARK    6  A    between atoms: C_12  and  O_14
REMARK    7  A    between atoms: O_14  and  C_15
REMARK    8  A    between atoms: C_15  and  C_16
REMARK    9  A    between atoms: C_18  and  O_19
REMARK                            x       y       z     vdW  Elec       q    Type
REMARK                         _______ _______ _______ _____ _____    ______ ____
ROOT
ATOM      1  C   UNL     1       5.212   6.308  16.754  0.00  0.00    +0.000 C 
ATOM      2  O   UNL     1       5.410   6.617  15.583  0.00  0.00    +0.000 OA
ENDROOT
BRANCH   1   4
ATOM      3  C   UNL     1       6.105   5.463  18.894  0.00  0.00    +0.000 C 
ATOM      4  C   UNL     1       5.804   5.051  17.445  0.00  0.00    +0.000 C 
ATOM      5  C   UNL     1       7.065   4.686  16.643  0.00  0.00    +0.000 C 
BRANCH   4   6
ATOM      6  O   UNL     1       4.798   4.025  17.351  0.00  0.00    +0.000 OA
BRANCH   6   7
ATOM      7  C   UNL     1       3.896   3.759  18.342  0.00  0.00    +0.000 A 
ATOM      8  C   UNL     1       2.614   4.289  18.481  0.00  0.00    +0.000 A 
ATOM      9  C   UNL     1       1.794   3.926  19.557  0.00  0.00    +0.000 A 
ATOM     10  C   UNL     1       2.255   3.023  20.506  0.00  0.00    +0.000 A 
ATOM     11 CL   UNL     1       1.241   2.577  21.821  0.00  0.00    +0.000 Cl
ATOM     12  C   UNL     1       3.533   2.486  20.391  0.00  0.00    +0.000 A 
ATOM     13  C   UNL     1       4.348   2.856  19.313  0.00  0.00    +0.000 A 
ENDBRANCH   6   7
ENDBRANCH   4   6
ENDBRANCH   1   4
BRANCH   1  14
ATOM     14  O   UNL     1       4.472   7.066  17.615  0.00  0.00    +0.000 OA
BRANCH  14  15
ATOM     15  C   UNL     1       3.261   7.597  17.038  0.00  0.00    +0.000 C 
BRANCH  15  16
ATOM     16  C   UNL     1       2.407   8.383  18.020  0.00  0.00    +0.000 A 
ATOM     17  N   UNL     1       1.994   9.614  17.645  0.00  0.00    +0.000 NA
ATOM     18  C   UNL     1       1.273  10.320  18.523  0.00  0.00    +0.000 A 
ATOM     19  C   UNL     1       0.964   9.817  19.771  0.00  0.00    +0.000 A 
ATOM     20  S   UNL     1       0.068  10.490  21.069  0.00  0.00    +0.000 S 
ATOM     21  C   UNL     1       0.310   9.104  22.041  0.00  0.00    +0.000 A 
ATOM     22  C   UNL     1       1.063   8.148  21.397  0.00  0.00    +0.000 A 
ATOM     23  C   UNL     1       1.444   8.550  20.083  0.00  0.00    +0.000 A 
ATOM     24  N   UNL     1       2.188   7.814  19.219  0.00  0.00    +0.000 NA
BRANCH  18  25
ATOM     25  O   UNL     1       0.885  11.554  18.089  0.00  0.00    +0.000 OA
ATOM     26  H   UNL     1      -0.080  11.486  18.184  0.00  0.00    +0.000 HD
ENDBRANCH  18  25
ENDBRANCH  15  16
ENDBRANCH  14  15
ENDBRANCH   1  14
TORSDOF 7
ENDMDL
MODEL 4
REMARK VINA RESULT:      -7.1      3.668      6.015
REMARK  Name = 
REMARK  9 active torsions:
REMARK  status: ('A' for Active; 'I' for Inactive)
REMARK    1  A    between atoms: C_1  and  C_2
REMARK    2  A    between atoms: C_2  and  C_3
REMARK    3  A    between atoms: C_2  and  O_4
REMARK    4  A    between atoms: C_2  and  C_12
REMARK    5  A    between atoms: O_4  and  C_5
REMARK    6  A    between atoms: C_12  and  O_14
REMARK    7  A    between atoms: O_14  and  C_15
REMARK    8  A    between atoms: C_15  and  C_16
REMARK    9  A    between atoms: C_18  and  O_19
REMARK                            x       y       z     vdW  Elec       q    Type
REMARK                         _______ _______ _______ _____ _____    ______ ____
ROOT
ATOM      1  C   UNL     1       2.278   4.473  19.941  0.00  0.00    +0.000 C 
ATOM      2  O   UNL     1       2.657   4.257  21.088  0.00  0.00    +0.000 OA
ENDROOT
BRANCH   1   4
ATOM      3  C   UNL     1       1.617   4.078  17.596  0.00  0.00    +0.000 C 
ATOM      4  C   UNL     1       2.381   3.455  18.774  0.00  0.00    +0.000 C 
ATOM      5  C   UNL     1       1.742   2.155  19.293  0.00  0.00    +0.000 C 
BRANCH   4   6
ATOM      6  O   UNL     1       3.785   3.287  18.504  0.00  0.00    +0.000 OA
BRANCH   6   7
ATOM      7  C   UNL     1       4.616   4.315  18.160  0.00  0.00    +0.000 A 
ATOM      8  C   UNL     1       4.577   5.079  16.995  0.00  0.00    +0.000 A 
ATOM      9  C   UNL     1       5.502   6.106  16.772  0.00  0.00    +0.000 A 
ATOM     10  C   UNL     1       6.478   6.380  17.722  0.00  0.00    +0.000 A 
ATOM     11 CL   UNL     1       7.606   7.647  17.446  0.00  0.00    +0.000 Cl
ATOM     12  C   UNL     1       6.540   5.626  18.890  0.00  0.00    +0.000 A 
ATOM     13  C   UNL     1       5.612   4.598  19.104  0.00  0.00    +0.000 A 
ENDBRANCH   6   7
ENDBRANCH   4   6
ENDBRANCH   1   4
BRANCH   1  14
ATOM     14  O   UNL     1       1.673   5.635  19.557  0.00  0.00    +0.000 OA
BRANCH  14  15
ATOM     15  C   UNL     1       2.461   6.817  19.802  0.00  0.00    +0.000 C 
BRANCH  15  16
ATOM     16  C   UNL     1       1.633   8.053  20.116  0.00  0.00    +0.000 A 
ATOM     17  N   UNL     1       1.491   8.976  19.139  0.00  0.00    +0.000 NA
ATOM     18  C   UNL     1       0.792  10.080  19.427  0.00  0.00    +0.000 A 
ATOM     19  C   UNL     1       0.241  10.278  20.676  0.00  0.00    +0.000 A 
ATOM     20  S   UNL     1      -0.689  11.573  21.307  0.00  0.00    +0.000 S 
ATOM     21  C   UNL     1      -0.818  10.823  22.838  0.00  0.00    +0.000 A 
ATOM     22  C   UNL     1      -0.162   9.612  22.875  0.00  0.00    +0.000 A 
ATOM     23  C   UNL     1       0.451   9.288  21.629  0.00  0.00    +0.000 A 
ATOM     24  N   UNL     1       1.164   8.163  21.372  0.00  0.00    +0.000 NA
BRANCH  18  25
ATOM     25  O   UNL     1       0.683  10.974  18.402  0.00  0.00    +0.000 OA
ATOM     26  H   UNL     1       0.437  11.780  18.888  0.00  0.00    +0.000 HD
ENDBRANCH  18  25
ENDBRANCH  15  16
ENDBRANCH  14  15
ENDBRANCH   1  14
TORSDOF 7
ENDMDL
MODEL 5
REMARK VINA RESULT:      -7.0      3.241      6.193
REMARK  Name = 
REMARK  9 active torsions:
REMARK  status: ('A' for Active; 'I' for Inactive)
REMARK    1  A    between atoms: C_1  and  C_2
REMARK    2  A    between atoms: C_2  and  C_3
REMARK    3  A    between atoms: C_2  and  O_4
REMARK    4  A    between atoms: C_2  and  C_12
REMARK    5  A    between atoms: O_4  and  C_5
REMARK    6  A    between atoms: C_12  and  O_14
REMARK    7  A    between atoms: O_14  and  C_15
REMARK    8  A    between atoms: C_15  and  C_16
REMARK    9  A    between atoms: C_18  and  O_19
REMARK                            x       y       z     vdW  Elec       q    Type
REMARK                         _______ _______ _______ _____ _____    ______ ____
ROOT
ATOM      1  C   UNL     1       5.272   6.312  16.544  0.00  0.00    +0.000 C 
ATOM      2  O   UNL     1       5.439   6.524  15.348  0.00  0.00    +0.000 OA
ENDROOT
BRANCH   1   4
ATOM      3  C   UNL     1       6.028   5.499  18.749  0.00  0.00    +0.000 C 
ATOM      4  C   UNL     1       5.792   5.057  17.297  0.00  0.00    +0.000 C 
ATOM      5  C   UNL     1       7.083   4.638  16.572  0.00  0.00    +0.000 C 
BRANCH   4   6
ATOM      6  O   UNL     1       4.764   4.057  17.175  0.00  0.00    +0.000 OA
BRANCH   6   7
ATOM      7  C   UNL     1       3.866   3.773  18.165  0.00  0.00    +0.000 A 
ATOM      8  C   UNL     1       2.557   4.238  18.276  0.00  0.00    +0.000 A 
ATOM      9  C   UNL     1       1.746   3.864  19.355  0.00  0.00    +0.000 A 
ATOM     10  C   UNL     1       2.243   3.013  20.335  0.00  0.00    +0.000 A 
ATOM     11 CL   UNL     1       1.240   2.552  21.652  0.00  0.00    +0.000 Cl
ATOM     12  C   UNL     1       3.549   2.541  20.247  0.00  0.00    +0.000 A 
ATOM     13  C   UNL     1       4.354   2.923  19.166  0.00  0.00    +0.000 A 
ENDBRANCH   6   7
ENDBRANCH   4   6
ENDBRANCH   1   4
BRANCH   1  14
ATOM     14  O   UNL     1       4.639   7.186  17.380  0.00  0.00    +0.000 OA
BRANCH  14  15
ATOM     15  C   UNL     1       3.300   7.528  16.966  0.00  0.00    +0.000 C 
BRANCH  15  16
ATOM     16  C   UNL     1       2.473   8.193  18.055  0.00  0.00    +0.000 A 
ATOM     17  N   UNL     1       2.407   7.576  19.256  0.00  0.00    +0.000 NA
ATOM     18  C   UNL     1       1.650   8.143  20.202  0.00  0.00    +0.000 A 
ATOM     19  C   UNL     1       0.954   9.311  19.965  0.00  0.00    +0.000 A 
ATOM     20  S   UNL     1      -0.069  10.241  20.979  0.00  0.00    +0.000 S 
ATOM     21  C   UNL     1      -0.365  11.384  19.743  0.00  0.00    +0.000 A 
ATOM     22  C   UNL     1       0.295  11.065  18.577  0.00  0.00    +0.000 A 
ATOM     23  C   UNL     1       1.062   9.868  18.697  0.00  0.00    +0.000 A 
ATOM     24  N   UNL     1       1.812   9.313  17.712  0.00  0.00    +0.000 NA
BRANCH  18  25
ATOM     25  O   UNL     1       1.622   7.475  21.392  0.00  0.00    +0.000 OA
ATOM     26  H   UNL     1       0.731   7.086  21.362  0.00  0.00    +0.000 HD
ENDBRANCH  18  25
ENDBRANCH  15  16
ENDBRANCH  14  15
ENDBRANCH   1  14
TORSDOF 7
ENDMDL
MODEL 6
REMARK VINA RESULT:      -7.0      3.608      5.841
REMARK  Name = 
REMARK  9 active torsions:
REMARK  status: ('A' for Active; 'I' for Inactive)
REMARK    1  A    between atoms: C_1  and  C_2
REMARK    2  A    between atoms: C_2  and  C_3
REMARK    3  A    between atoms: C_2  and  O_4
REMARK    4  A    between atoms: C_2  and  C_12
REMARK    5  A    between atoms: O_4  and  C_5
REMARK    6  A    between atoms: C_12  and  O_14
REMARK    7  A    between atoms: O_14  and  C_15
REMARK    8  A    between atoms: C_15  and  C_16
REMARK    9  A    between atoms: C_18  and  O_19
REMARK                            x       y       z     vdW  Elec       q    Type
REMARK                         _______ _______ _______ _____ _____    ______ ____
ROOT
ATOM      1  C   UNL     1       1.905   4.674  18.716  0.00  0.00    +0.000 C 
ATOM      2  O   UNL     1       1.370   4.926  17.641  0.00  0.00    +0.000 OA
ENDROOT
BRANCH   1   4
ATOM      3  C   UNL     1       1.307   2.280  18.755  0.00  0.00    +0.000 C 
ATOM      4  C   UNL     1       2.418   3.270  19.136  0.00  0.00    +0.000 C 
ATOM      5  C   UNL     1       2.666   3.350  20.652  0.00  0.00    +0.000 C 
BRANCH   4   6
ATOM      6  O   UNL     1       3.639   3.050  18.407  0.00  0.00    +0.000 OA
BRANCH   6   7
ATOM      7  C   UNL     1       4.514   4.046  18.080  0.00  0.00    +0.000 A 
ATOM      8  C   UNL     1       4.614   4.717  16.862  0.00  0.00    +0.000 A 
ATOM      9  C   UNL     1       5.568   5.723  16.667  0.00  0.00    +0.000 A 
ATOM     10  C   UNL     1       6.434   6.068  17.697  0.00  0.00    +0.000 A 
ATOM     11 CL   UNL     1       7.599   7.308  17.452  0.00  0.00    +0.000 Cl
ATOM     12  C   UNL     1       6.357   5.408  18.919  0.00  0.00    +0.000 A 
ATOM     13  C   UNL     1       5.401   4.401  19.105  0.00  0.00    +0.000 A 
ENDBRANCH   6   7
ENDBRANCH   4   6
ENDBRANCH   1   4
BRANCH   1  14
ATOM     14  O   UNL     1       2.158   5.619  19.668  0.00  0.00    +0.000 OA
BRANCH  14  15
ATOM     15  C   UNL     1       2.572   6.893  19.135  0.00  0.00    +0.000 C 
BRANCH  15  16
ATOM     16  C   UNL     1       1.745   8.067  19.638  0.00  0.00    +0.000 A 
ATOM     17  N   UNL     1       1.519   9.086  18.781  0.00  0.00    +0.000 NA
ATOM     18  C   UNL     1       0.823  10.134  19.235  0.00  0.00    +0.000 A 
ATOM     19  C   UNL     1       0.356  10.181  20.533  0.00  0.00    +0.000 A 
ATOM     20  S   UNL     1      -0.550  11.377  21.364  0.00  0.00    +0.000 S 
ATOM     21  C   UNL     1      -0.559  10.461  22.808  0.00  0.00    +0.000 A 
ATOM     22  C   UNL     1       0.119   9.270  22.667  0.00  0.00    +0.000 A 
ATOM     23  C   UNL     1       0.650   9.099  21.354  0.00  0.00    +0.000 A 
ATOM     24  N   UNL     1       1.364   8.027  20.927  0.00  0.00    +0.000 NA
BRANCH  18  25
ATOM     25  O   UNL     1       0.626  11.132  18.325  0.00  0.00    +0.000 OA
ATOM     26  H   UNL     1      -0.075  10.741  17.775  0.00  0.00    +0.000 HD
ENDBRANCH  18  25
ENDBRANCH  15  16
ENDBRANCH  14  15
ENDBRANCH   1  14
TORSDOF 7
ENDMDL
MODEL 7
REMARK VINA RESULT:      -7.0      4.309      6.078
REMARK  Name = 
REMARK  9 active torsions:
REMARK  status: ('A' for Active; 'I' for Inactive)
REMARK    1  A    between atoms: C_1  and  C_2
REMARK    2  A    between atoms: C_2  and  C_3
REMARK    3  A    between atoms: C_2  and  O_4
REMARK    4  A    between atoms: C_2  and  C_12
REMARK    5  A    between atoms: O_4  and  C_5
REMARK    6  A    between atoms: C_12  and  O_14
REMARK    7  A    between atoms: O_14  and  C_15
REMARK    8  A    between atoms: C_15  and  C_16
REMARK    9  A    between atoms: C_18  and  O_19
REMARK                            x       y       z     vdW  Elec       q    Type
REMARK                         _______ _______ _______ _____ _____    ______ ____
ROOT
ATOM      1  C   UNL     1       6.733   6.836  16.970  0.00  0.00    +0.000 C 
ATOM      2  O   UNL     1       7.585   6.341  16.239  0.00  0.00    +0.000 OA
ENDROOT
BRANCH   1   4
ATOM      3  C   UNL     1       5.147   5.092  16.238  0.00  0.00    +0.000 C 
ATOM      4  C   UNL     1       5.368   6.176  17.304  0.00  0.00    +0.000 C 
ATOM      5  C   UNL     1       4.328   7.309  17.243  0.00  0.00    +0.000 C 
BRANCH   4   6
ATOM      6  O   UNL     1       5.492   5.638  18.634  0.00  0.00    +0.000 OA
BRANCH   6   7
ATOM      7  C   UNL     1       4.466   5.035  19.303  0.00  0.00    +0.000 A 
ATOM      8  C   UNL     1       3.351   5.650  19.870  0.00  0.00    +0.000 A 
ATOM      9  C   UNL     1       2.372   4.901  20.535  0.00  0.00    +0.000 A 
ATOM     10  C   UNL     1       2.503   3.522  20.636  0.00  0.00    +0.000 A 
ATOM     11 CL   UNL     1       1.294   2.608  21.447  0.00  0.00    +0.000 Cl
ATOM     12  C   UNL     1       3.611   2.887  20.083  0.00  0.00    +0.000 A 
ATOM     13  C   UNL     1       4.587   3.645  19.422  0.00  0.00    +0.000 A 
ENDBRANCH   6   7
ENDBRANCH   4   6
ENDBRANCH   1   4
BRANCH   1  14
ATOM     14  O   UNL     1       6.903   8.023  17.623  0.00  0.00    +0.000 OA
BRANCH  14  15
ATOM     15  C   UNL     1       8.254   8.260  18.068  0.00  0.00    +0.000 C 
BRANCH  15  16
ATOM     16  C   UNL     1       8.557   9.722  18.357  0.00  0.00    +0.000 A 
ATOM     17  N   UNL     1       8.065  10.644  17.501  0.00  0.00    +0.000 NA
ATOM     18  C   UNL     1       8.362  11.928  17.735  0.00  0.00    +0.000 A 
ATOM     19  C   UNL     1       9.147  12.301  18.806  0.00  0.00    +0.000 A 
ATOM     20  S   UNL     1       9.672  13.845  19.337  0.00  0.00    +0.000 S 
ATOM     21  C   UNL     1      10.531  13.174  20.654  0.00  0.00    +0.000 A 
ATOM     22  C   UNL     1      10.429  11.801  20.690  0.00  0.00    +0.000 A 
ATOM     23  C   UNL     1       9.628  11.287  19.626  0.00  0.00    +0.000 A 
ATOM     24  N   UNL     1       9.355   9.977  19.409  0.00  0.00    +0.000 NA
BRANCH  18  25
ATOM     25  O   UNL     1       7.837  12.812  16.837  0.00  0.00    +0.000 OA
ATOM     26  H   UNL     1       8.609  13.380  16.669  0.00  0.00    +0.000 HD
ENDBRANCH  18  25
ENDBRANCH  15  16
ENDBRANCH  14  15
ENDBRANCH   1  14
TORSDOF 7
ENDMDL
MODEL 8
REMARK VINA RESULT:      -6.9      3.226      5.534
REMARK  Name = 
REMARK  9 active torsions:
REMARK  status: ('A' for Active; 'I' for Inactive)
REMARK    1  A    between atoms: C_1  and  C_2
REMARK    2  A    between atoms: C_2  and  C_3
REMARK    3  A    between atoms: C_2  and  O_4
REMARK    4  A    between atoms: C_2  and  C_12
REMARK    5  A    between atoms: O_4  and  C_5
REMARK    6  A    between atoms: C_12  and  O_14
REMARK    7  A    between atoms: O_14  and  C_15
REMARK    8  A    between atoms: C_15  and  C_16
REMARK    9  A    between atoms: C_18  and  O_19
REMARK                            x       y       z     vdW  Elec       q    Type
REMARK                         _______ _______ _______ _____ _____    ______ ____
ROOT
ATOM      1  C   UNL     1       2.337   4.289  18.389  0.00  0.00    +0.000 C 
ATOM      2  O   UNL     1       1.590   4.640  17.482  0.00  0.00    +0.000 OA
ENDROOT
BRANCH   1   4
ATOM      3  C   UNL     1       2.650   1.879  17.958  0.00  0.00    +0.000 C 
ATOM      4  C   UNL     1       3.413   3.177  18.262  0.00  0.00    +0.000 C 
ATOM      5  C   UNL     1       4.148   3.147  19.613  0.00  0.00    +0.000 C 
BRANCH   4   6
ATOM      6  O   UNL     1       4.286   3.578  17.190  0.00  0.00    +0.000 OA
BRANCH   6   7
ATOM      7  C   UNL     1       5.067   4.698  17.230  0.00  0.00    +0.000 A 
ATOM      8  C   UNL     1       4.777   5.950  16.691  0.00  0.00    +0.000 A 
ATOM      9  C   UNL     1       5.680   7.014  16.806  0.00  0.00    +0.000 A 
ATOM     10  C   UNL     1       6.887   6.830  17.468  0.00  0.00    +0.000 A 
ATOM     11 CL   UNL     1       7.988   8.143  17.612  0.00  0.00    +0.000 Cl
ATOM     12  C   UNL     1       7.201   5.588  18.009  0.00  0.00    +0.000 A 
ATOM     13  C   UNL     1       6.292   4.528  17.887  0.00  0.00    +0.000 A 
ENDBRANCH   6   7
ENDBRANCH   4   6
ENDBRANCH   1   4
BRANCH   1  14
ATOM     14  O   UNL     1       2.344   4.870  19.624  0.00  0.00    +0.000 OA
BRANCH  14  15
ATOM     15  C   UNL     1       3.118   6.085  19.697  0.00  0.00    +0.000 C 
BRANCH  15  16
ATOM     16  C   UNL     1       2.275   7.351  19.675  0.00  0.00    +0.000 A 
ATOM     17  N   UNL     1       2.306   8.103  18.552  0.00  0.00    +0.000 NA
ATOM     18  C   UNL     1       1.593   9.236  18.546  0.00  0.00    +0.000 A 
ATOM     19  C   UNL     1       0.858   9.630  19.645  0.00  0.00    +0.000 A 
ATOM     20  S   UNL     1      -0.132  11.005  19.906  0.00  0.00    +0.000 S 
ATOM     21  C   UNL     1      -0.513  10.511  21.499  0.00  0.00    +0.000 A 
ATOM     22  C   UNL     1       0.104   9.326  21.832  0.00  0.00    +0.000 A 
ATOM     23  C   UNL     1       0.898   8.808  20.765  0.00  0.00    +0.000 A 
ATOM     24  N   UNL     1       1.619   7.660  20.807  0.00  0.00    +0.000 NA
BRANCH  18  25
ATOM     25  O   UNL     1       1.663   9.952  17.387  0.00  0.00    +0.000 OA
ATOM     26  H   UNL     1       1.274  10.797  17.671  0.00  0.00    +0.000 HD
ENDBRANCH  18  25
ENDBRANCH  15  16
ENDBRANCH  14  15
ENDBRANCH   1  14
TORSDOF 7
ENDMDL
MODEL 9
REMARK VINA RESULT:      -6.7      4.100      7.049
REMARK  Name = 
REMARK  9 active torsions:
REMARK  status: ('A' for Active; 'I' for Inactive)
REMARK    1  A    between atoms: C_1  and  C_2
REMARK    2  A    between atoms: C_2  and  C_3
REMARK    3  A    between atoms: C_2  and  O_4
REMARK    4  A    between atoms: C_2  and  C_12
REMARK    5  A    between atoms: O_4  and  C_5
REMARK    6  A    between atoms: C_12  and  O_14
REMARK    7  A    between atoms: O_14  and  C_15
REMARK    8  A    between atoms: C_15  and  C_16
REMARK    9  A    between atoms: C_18  and  O_19
REMARK                            x       y       z     vdW  Elec       q    Type
REMARK                         _______ _______ _______ _____ _____    ______ ____
ROOT
ATOM      1  C   UNL     1       6.878   5.413  16.816  0.00  0.00    +0.000 C 
ATOM      2  O   UNL     1       7.810   4.627  16.683  0.00  0.00    +0.000 OA
ENDROOT
BRANCH   1   4
ATOM      3  C   UNL     1       4.883   6.763  16.279  0.00  0.00    +0.000 C 
ATOM      4  C   UNL     1       5.670   5.516  15.847  0.00  0.00    +0.000 C 
ATOM      5  C   UNL     1       4.878   4.209  16.021  0.00  0.00    +0.000 C 
BRANCH   4   6
ATOM      6  O   UNL     1       6.221   5.633  14.522  0.00  0.00    +0.000 OA
BRANCH   6   7
ATOM      7  C   UNL     1       6.190   4.625  13.600  0.00  0.00    +0.000 A 
ATOM      8  C   UNL     1       5.088   3.861  13.221  0.00  0.00    +0.000 A 
ATOM      9  C   UNL     1       5.206   2.851  12.258  0.00  0.00    +0.000 A 
ATOM     10  C   UNL     1       6.435   2.599  11.662  0.00  0.00    +0.000 A 
ATOM     11 CL   UNL     1       6.571   1.363  10.476  0.00  0.00    +0.000 Cl
ATOM     12  C   UNL     1       7.550   3.346  12.030  0.00  0.00    +0.000 A 
ATOM     13  C   UNL     1       7.424   4.353  12.996  0.00  0.00    +0.000 A 
ENDBRANCH   6   7
ENDBRANCH   4   6
ENDBRANCH   1   4
BRANCH   1  14
ATOM     14  O   UNL     1       6.766   6.273  17.870  0.00  0.00    +0.000 OA
BRANCH  14  15
ATOM     15  C   UNL     1       6.741   5.624  19.157  0.00  0.00    +0.000 C 
BRANCH  15  16
ATOM     16  C   UNL     1       5.465   4.841  19.425  0.00  0.00    +0.000 A 
ATOM     17  N   UNL     1       5.524   3.494  19.324  0.00  0.00    +0.000 NA
ATOM     18  C   UNL     1       4.393   2.808  19.524  0.00  0.00    +0.000 A 
ATOM     19  C   UNL     1       3.205   3.446  19.816  0.00  0.00    +0.000 A 
ATOM     20  S   UNL     1       1.635   2.826  20.118  0.00  0.00    +0.000 S 
ATOM     21  C   UNL     1       0.987   4.393  20.341  0.00  0.00    +0.000 A 
ATOM     22  C   UNL     1       1.942   5.373  20.183  0.00  0.00    +0.000 A 
ATOM     23  C   UNL     1       3.229   4.835  19.881  0.00  0.00    +0.000 A 
ATOM     24  N   UNL     1       4.356   5.560  19.672  0.00  0.00    +0.000 NA
BRANCH  18  25
ATOM     25  O   UNL     1       4.515   1.453  19.409  0.00  0.00    +0.000 OA
ATOM     26  H   UNL     1       3.672   1.230  18.978  0.00  0.00    +0.000 HD
ENDBRANCH  18  25
ENDBRANCH  15  16
ENDBRANCH  14  15
ENDBRANCH   1  14
TORSDOF 7
ENDMDL
