MODEL 1
REMARK VINA RESULT:      -8.3      0.000      0.000
REMARK  Name = 
REMARK  6 active torsions:
REMARK  status: ('A' for Active; 'I' for Inactive)
REMARK    1  A    between atoms: C_2  and  C_3
REMARK    2  A    between atoms: C_3  and  N_4
REMARK    3  A    between atoms: N_4  and  C_5
REMARK    4  A    between atoms: C_8  and  N_9
REMARK    5  A    between atoms: N_16  and  C_17
REMARK    6  A    between atoms: C_20  and  C_21
REMARK                            x       y       z     vdW  Elec       q    Type
REMARK                         _______ _______ _______ _____ _____    ______ ____
ROOT
ATOM      1  O   UNL     1       0.556   4.547  20.386  0.00  0.00    +0.000 OA
ATOM      2  C   UNL     1       1.730   4.667  20.727  0.00  0.00    +0.000 C 
ATOM      3  N   UNL     1       2.516   5.792  20.564  0.00  0.00    +0.000 N 
ATOM      4  H   UNL     1       3.521   5.659  20.607  0.00  0.00    +0.000 HD
ENDROOT
BRANCH   3   5
ATOM      5  C   UNL     1       2.050   7.085  20.238  0.00  0.00    +0.000 A 
ATOM      6  C   UNL     1       2.217   7.653  18.979  0.00  0.00    +0.000 A 
ATOM      7  C   UNL     1       1.706   8.924  18.694  0.00  0.00    +0.000 A 
ATOM      8  C   UNL     1       0.994   9.667  19.649  0.00  0.00    +0.000 A 
ATOM      9  C   UNL     1       0.833   9.078  20.915  0.00  0.00    +0.000 A 
ATOM     10  C   UNL     1       1.351   7.804  21.208  0.00  0.00    +0.000 A 
BRANCH   8  11
ATOM     11  C   UNL     1       0.437  11.002  19.319  0.00  0.00    +0.000 A 
ATOM     12  C   UNL     1       1.000  12.181  19.848  0.00  0.00    +0.000 A 
ATOM     13  C   UNL     1       0.471  13.443  19.563  0.00  0.00    +0.000 A 
ATOM     14  C   UNL     1      -0.631  13.559  18.723  0.00  0.00    +0.000 A 
ATOM     15  C   UNL     1      -1.202  12.416  18.176  0.00  0.00    +0.000 A 
ATOM     16  C   UNL     1      -0.678  11.154  18.475  0.00  0.00    +0.000 A 
ENDBRANCH   8  11
ENDBRANCH   3   5
BRANCH   2  17
ATOM     17  C   UNL     1       2.472   3.492  21.361  0.00  0.00    +0.000 C 
BRANCH  17  18
ATOM     18  N   UNL     1       2.989   2.578  20.338  0.00  0.00    +0.000 N 
ATOM     19  H   UNL     1       3.509   1.793  20.733  0.00  0.00    +0.000 HD
BRANCH  18  20
ATOM     20  C   UNL     1       3.644   3.134  19.231  0.00  0.00    +0.000 A 
ATOM     21  C   UNL     1       3.183   3.000  17.918  0.00  0.00    +0.000 A 
ATOM     22  C   UNL     1       3.933   3.450  16.824  0.00  0.00    +0.000 A 
ATOM     23  C   UNL     1       5.192   4.025  17.015  0.00  0.00    +0.000 A 
ATOM     24  C   UNL     1       5.668   4.171  18.324  0.00  0.00    +0.000 A 
ATOM     25  C   UNL     1       4.899   3.726  19.412  0.00  0.00    +0.000 A 
BRANCH  23  26
ATOM     26  N   UNL     1       5.974   4.423  15.893  0.00  0.00    +0.000 N 
ATOM     27  C   UNL     1       5.848   3.992  14.588  0.00  0.00    +0.000 A 
ATOM     28  C   UNL     1       6.827   4.637  13.871  0.00  0.00    +0.000 A 
ATOM     29  N   UNL     1       7.562   5.448  14.681  0.00  0.00    +0.000 NA
ATOM     30  C   UNL     1       7.035   5.305  15.877  0.00  0.00    +0.000 A 
ENDBRANCH  23  26
ENDBRANCH  18  20
ENDBRANCH  17  18
ENDBRANCH   2  17
TORSDOF 6
ENDMDL
MODEL 2
REMARK VINA RESULT:      -8.3      0.451      1.251
REMARK  Name = 
REMARK  6 active torsions:
REMARK  status: ('A' for Active; 'I' for Inactive)
REMARK    1  A    between atoms: C_2  and  C_3
REMARK    2  A    between atoms: C_3  and  N_4
REMARK    3  A    between atoms: N_4  and  C_5
REMARK    4  A    between atoms: C_8  and  N_9
REMARK    5  A    between atoms: N_16  and  C_17
REMARK    6  A    between atoms: C_20  and  C_21
REMARK                            x       y       z     vdW  Elec       q    Type
REMARK                         _______ _______ _______ _____ _____    ______ ____
ROOT
ATOM      1  O   UNL     1       0.471   4.689  20.260  0.00  0.00    +0.000 OA
ATOM      2  C   UNL     1       1.621   4.790  20.684  0.00  0.00    +0.000 C 
ATOM      3  N   UNL     1       2.435   5.901  20.578  0.00  0.00    +0.000 N 
ATOM      4  H   UNL     1       3.432   5.751  20.693  0.00  0.00    +0.000 HD
ENDROOT
BRANCH   3   5
ATOM      5  C   UNL     1       2.016   7.202  20.221  0.00  0.00    +0.000 A 
ATOM      6  C   UNL     1       2.232   7.745  18.959  0.00  0.00    +0.000 A 
ATOM      7  C   UNL     1       1.765   9.026  18.642  0.00  0.00    +0.000 A 
ATOM      8  C   UNL     1       1.050   9.804  19.566  0.00  0.00    +0.000 A 
ATOM      9  C   UNL     1       0.839   9.239  20.836  0.00  0.00    +0.000 A 
ATOM     10  C   UNL     1       1.312   7.955  21.161  0.00  0.00    +0.000 A 
BRANCH   8  11
ATOM     11  C   UNL     1       0.541  11.149  19.203  0.00  0.00    +0.000 A 
ATOM     12  C   UNL     1      -0.834  11.453  19.270  0.00  0.00    +0.000 A 
ATOM     13  C   UNL     1      -1.328  12.710  18.909  0.00  0.00    +0.000 A 
ATOM     14  C   UNL     1      -0.454  13.704  18.485  0.00  0.00    +0.000 A 
ATOM     15  C   UNL     1       0.909  13.439  18.419  0.00  0.00    +0.000 A 
ATOM     16  C   UNL     1       1.399  12.175  18.768  0.00  0.00    +0.000 A 
ENDBRANCH   8  11
ENDBRANCH   3   5
BRANCH   2  17
ATOM     17  C   UNL     1       2.295   3.602  21.368  0.00  0.00    +0.000 C 
BRANCH  17  18
ATOM     18  N   UNL     1       2.637   2.556  20.399  0.00  0.00    +0.000 N 
ATOM     19  H   UNL     1       2.889   1.672  20.842  0.00  0.00    +0.000 HD
BRANCH  18  20
ATOM     20  C   UNL     1       3.513   2.888  19.357  0.00  0.00    +0.000 A 
ATOM     21  C   UNL     1       4.735   3.538  19.557  0.00  0.00    +0.000 A 
ATOM     22  C   UNL     1       5.520   3.977  18.484  0.00  0.00    +0.000 A 
ATOM     23  C   UNL     1       5.084   3.804  17.168  0.00  0.00    +0.000 A 
ATOM     24  C   UNL     1       3.864   3.152  16.948  0.00  0.00    +0.000 A 
ATOM     25  C   UNL     1       3.093   2.706  18.034  0.00  0.00    +0.000 A 
BRANCH  23  26
ATOM     26  N   UNL     1       5.860   4.309  16.085  0.00  0.00    +0.000 N 
ATOM     27  C   UNL     1       5.746   3.982  14.749  0.00  0.00    +0.000 A 
ATOM     28  C   UNL     1       6.712   4.705  14.090  0.00  0.00    +0.000 A 
ATOM     29  N   UNL     1       7.426   5.465  14.966  0.00  0.00    +0.000 NA
ATOM     30  C   UNL     1       6.900   5.213  16.144  0.00  0.00    +0.000 A 
ENDBRANCH  23  26
ENDBRANCH  18  20
ENDBRANCH  17  18
ENDBRANCH   2  17
TORSDOF 6
ENDMDL
MODEL 3
REMARK VINA RESULT:      -8.2      2.983      9.489
REMARK  Name = 
REMARK  6 active torsions:
REMARK  status: ('A' for Active; 'I' for Inactive)
REMARK    1  A    between atoms: C_2  and  C_3
REMARK    2  A    between atoms: C_3  and  N_4
REMARK    3  A    between atoms: N_4  and  C_5
REMARK    4  A    between atoms: C_8  and  N_9
REMARK    5  A    between atoms: N_16  and  C_17
REMARK    6  A    between atoms: C_20  and  C_21
REMARK                            x       y       z     vdW  Elec       q    Type
REMARK                         _______ _______ _______ _____ _____    ______ ____
ROOT
ATOM      1  O   UNL     1       1.659   4.368  19.299  0.00  0.00    +0.000 OA
ATOM      2  C   UNL     1       2.189   5.399  19.706  0.00  0.00    +0.000 C 
ATOM      3  N   UNL     1       3.374   5.944  19.250  0.00  0.00    +0.000 N 
ATOM      4  H   UNL     1       3.839   6.607  19.860  0.00  0.00    +0.000 HD
ENDROOT
BRANCH   3   5
ATOM      5  C   UNL     1       4.046   5.580  18.062  0.00  0.00    +0.000 A 
ATOM      6  C   UNL     1       4.270   4.257  17.695  0.00  0.00    +0.000 A 
ATOM      7  C   UNL     1       4.910   3.948  16.490  0.00  0.00    +0.000 A 
ATOM      8  C   UNL     1       5.331   4.945  15.597  0.00  0.00    +0.000 A 
ATOM      9  C   UNL     1       5.094   6.277  15.981  0.00  0.00    +0.000 A 
ATOM     10  C   UNL     1       4.459   6.593  17.195  0.00  0.00    +0.000 A 
BRANCH   8  11
ATOM     11  C   UNL     1       5.984   4.596  14.311  0.00  0.00    +0.000 A 
ATOM     12  C   UNL     1       7.191   5.204  13.914  0.00  0.00    +0.000 A 
ATOM     13  C   UNL     1       7.804   4.899  12.695  0.00  0.00    +0.000 A 
ATOM     14  C   UNL     1       7.230   3.961  11.845  0.00  0.00    +0.000 A 
ATOM     15  C   UNL     1       6.044   3.334  12.214  0.00  0.00    +0.000 A 
ATOM     16  C   UNL     1       5.427   3.652  13.429  0.00  0.00    +0.000 A 
ENDBRANCH   8  11
ENDBRANCH   3   5
BRANCH   2  17
ATOM     17  C   UNL     1       1.557   6.189  20.852  0.00  0.00    +0.000 C 
BRANCH  17  18
ATOM     18  N   UNL     1       2.031   7.576  20.864  0.00  0.00    +0.000 N 
ATOM     19  H   UNL     1       2.864   7.706  21.440  0.00  0.00    +0.000 HD
BRANCH  18  20
ATOM     20  C   UNL     1       1.087   8.590  21.075  0.00  0.00    +0.000 A 
ATOM     21  C   UNL     1       0.673   9.474  20.074  0.00  0.00    +0.000 A 
ATOM     22  C   UNL     1      -0.167  10.560  20.351  0.00  0.00    +0.000 A 
ATOM     23  C   UNL     1      -0.595  10.811  21.657  0.00  0.00    +0.000 A 
ATOM     24  C   UNL     1      -0.193   9.934  22.672  0.00  0.00    +0.000 A 
ATOM     25  C   UNL     1       0.639   8.842  22.377  0.00  0.00    +0.000 A 
BRANCH  23  26
ATOM     26  N   UNL     1      -1.398  11.954  21.940  0.00  0.00    +0.000 N 
ATOM     27  C   UNL     1      -2.325  12.552  21.111  0.00  0.00    +0.000 A 
ATOM     28  C   UNL     1      -2.831  13.624  21.807  0.00  0.00    +0.000 A 
ATOM     29  N   UNL     1      -2.251  13.718  23.035  0.00  0.00    +0.000 NA
ATOM     30  C   UNL     1      -1.403  12.714  23.091  0.00  0.00    +0.000 A 
ENDBRANCH  23  26
ENDBRANCH  18  20
ENDBRANCH  17  18
ENDBRANCH   2  17
TORSDOF 6
ENDMDL
MODEL 4
REMARK VINA RESULT:      -8.1      2.335      8.580
REMARK  Name = 
REMARK  6 active torsions:
REMARK  status: ('A' for Active; 'I' for Inactive)
REMARK    1  A    between atoms: C_2  and  C_3
REMARK    2  A    between atoms: C_3  and  N_4
REMARK    3  A    between atoms: N_4  and  C_5
REMARK    4  A    between atoms: C_8  and  N_9
REMARK    5  A    between atoms: N_16  and  C_17
REMARK    6  A    between atoms: C_20  and  C_21
REMARK                            x       y       z     vdW  Elec       q    Type
REMARK                         _______ _______ _______ _____ _____    ______ ____
ROOT
ATOM      1  O   UNL     1       1.228   3.974  18.574  0.00  0.00    +0.000 OA
ATOM      2  C   UNL     1       1.944   4.584  19.366  0.00  0.00    +0.000 C 
ATOM      3  N   UNL     1       3.290   4.854  19.209  0.00  0.00    +0.000 N 
ATOM      4  H   UNL     1       3.812   5.087  20.046  0.00  0.00    +0.000 HD
ENDROOT
BRANCH   3   5
ATOM      5  C   UNL     1       4.022   4.731  18.007  0.00  0.00    +0.000 A 
ATOM      6  C   UNL     1       4.393   3.503  17.470  0.00  0.00    +0.000 A 
ATOM      7  C   UNL     1       5.087   3.432  16.257  0.00  0.00    +0.000 A 
ATOM      8  C   UNL     1       5.420   4.583  15.526  0.00  0.00    +0.000 A 
ATOM      9  C   UNL     1       5.036   5.816  16.081  0.00  0.00    +0.000 A 
ATOM     10  C   UNL     1       4.344   5.892  17.303  0.00  0.00    +0.000 A 
BRANCH   8  11
ATOM     11  C   UNL     1       6.133   4.486  14.228  0.00  0.00    +0.000 A 
ATOM     12  C   UNL     1       5.699   3.602  13.220  0.00  0.00    +0.000 A 
ATOM     13  C   UNL     1       6.376   3.485  12.002  0.00  0.00    +0.000 A 
ATOM     14  C   UNL     1       7.499   4.265  11.754  0.00  0.00    +0.000 A 
ATOM     15  C   UNL     1       7.945   5.156  12.725  0.00  0.00    +0.000 A 
ATOM     16  C   UNL     1       7.273   5.260  13.948  0.00  0.00    +0.000 A 
ENDBRANCH   8  11
ENDBRANCH   3   5
BRANCH   2  17
ATOM     17  C   UNL     1       1.372   5.086  20.690  0.00  0.00    +0.000 C 
BRANCH  17  18
ATOM     18  N   UNL     1       2.062   6.299  21.140  0.00  0.00    +0.000 N 
ATOM     19  H   UNL     1       2.276   6.288  22.138  0.00  0.00    +0.000 HD
BRANCH  18  20
ATOM     20  C   UNL     1       1.549   7.536  20.728  0.00  0.00    +0.000 A 
ATOM     21  C   UNL     1       0.507   8.195  21.389  0.00  0.00    +0.000 A 
ATOM     22  C   UNL     1      -0.073   9.360  20.872  0.00  0.00    +0.000 A 
ATOM     23  C   UNL     1       0.356   9.886  19.651  0.00  0.00    +0.000 A 
ATOM     24  C   UNL     1       1.400   9.241  18.977  0.00  0.00    +0.000 A 
ATOM     25  C   UNL     1       1.981   8.080  19.513  0.00  0.00    +0.000 A 
BRANCH  23  26
ATOM     26  N   UNL     1      -0.282  11.036  19.103  0.00  0.00    +0.000 N 
ATOM     27  C   UNL     1      -1.617  11.182  18.787  0.00  0.00    +0.000 A 
ATOM     28  C   UNL     1      -1.757  12.449  18.274  0.00  0.00    +0.000 A 
ATOM     29  N   UNL     1      -0.559  13.096  18.255  0.00  0.00    +0.000 NA
ATOM     30  C   UNL     1       0.301  12.236  18.754  0.00  0.00    +0.000 A 
ENDBRANCH  23  26
ENDBRANCH  18  20
ENDBRANCH  17  18
ENDBRANCH   2  17
TORSDOF 6
ENDMDL
MODEL 5
REMARK VINA RESULT:      -8.1      3.099      9.574
REMARK  Name = 
REMARK  6 active torsions:
REMARK  status: ('A' for Active; 'I' for Inactive)
REMARK    1  A    between atoms: C_2  and  C_3
REMARK    2  A    between atoms: C_3  and  N_4
REMARK    3  A    between atoms: N_4  and  C_5
REMARK    4  A    between atoms: C_8  and  N_9
REMARK    5  A    between atoms: N_16  and  C_17
REMARK    6  A    between atoms: C_20  and  C_21
REMARK                            x       y       z     vdW  Elec       q    Type
REMARK                         _______ _______ _______ _____ _____    ______ ____
ROOT
ATOM      1  O   UNL     1       1.504   4.684  19.409  0.00  0.00    +0.000 OA
ATOM      2  C   UNL     1       2.090   5.668  19.857  0.00  0.00    +0.000 C 
ATOM      3  N   UNL     1       3.321   6.142  19.446  0.00  0.00    +0.000 N 
ATOM      4  H   UNL     1       3.812   6.757  20.085  0.00  0.00    +0.000 HD
ENDROOT
BRANCH   3   5
ATOM      5  C   UNL     1       3.999   5.765  18.265  0.00  0.00    +0.000 A 
ATOM      6  C   UNL     1       4.383   4.454  18.001  0.00  0.00    +0.000 A 
ATOM      7  C   UNL     1       5.022   4.124  16.801  0.00  0.00    +0.000 A 
ATOM      8  C   UNL     1       5.284   5.085  15.812  0.00  0.00    +0.000 A 
ATOM      9  C   UNL     1       4.888   6.404  16.094  0.00  0.00    +0.000 A 
ATOM     10  C   UNL     1       4.252   6.742  17.302  0.00  0.00    +0.000 A 
BRANCH   8  11
ATOM     11  C   UNL     1       5.939   4.710  14.535  0.00  0.00    +0.000 A 
ATOM     12  C   UNL     1       7.185   5.253  14.164  0.00  0.00    +0.000 A 
ATOM     13  C   UNL     1       7.801   4.925  12.953  0.00  0.00    +0.000 A 
ATOM     14  C   UNL     1       7.191   4.027  12.085  0.00  0.00    +0.000 A 
ATOM     15  C   UNL     1       5.966   3.463  12.428  0.00  0.00    +0.000 A 
ATOM     16  C   UNL     1       5.346   3.805  13.635  0.00  0.00    +0.000 A 
ENDBRANCH   8  11
ENDBRANCH   3   5
BRANCH   2  17
ATOM     17  C   UNL     1       1.481   6.468  21.006  0.00  0.00    +0.000 C 
BRANCH  17  18
ATOM     18  N   UNL     1       2.036   7.824  21.061  0.00  0.00    +0.000 N 
ATOM     19  H   UNL     1       2.898   7.879  21.605  0.00  0.00    +0.000 HD
BRANCH  18  20
ATOM     20  C   UNL     1       1.163   8.879  21.356  0.00  0.00    +0.000 A 
ATOM     21  C   UNL     1       0.666   9.130  22.639  0.00  0.00    +0.000 A 
ATOM     22  C   UNL     1      -0.310  10.106  22.873  0.00  0.00    +0.000 A 
ATOM     23  C   UNL     1      -0.845  10.844  21.814  0.00  0.00    +0.000 A 
ATOM     24  C   UNL     1      -0.357  10.609  20.523  0.00  0.00    +0.000 A 
ATOM     25  C   UNL     1       0.631   9.635  20.305  0.00  0.00    +0.000 A 
BRANCH  23  26
ATOM     26  N   UNL     1      -1.882  11.791  22.054  0.00  0.00    +0.000 N 
ATOM     27  C   UNL     1      -2.400  12.709  21.163  0.00  0.00    +0.000 A 
ATOM     28  C   UNL     1      -3.364  13.411  21.847  0.00  0.00    +0.000 A 
ATOM     29  N   UNL     1      -3.462  12.968  23.131  0.00  0.00    +0.000 NA
ATOM     30  C   UNL     1      -2.572  12.004  23.229  0.00  0.00    +0.000 A 
ENDBRANCH  23  26
ENDBRANCH  18  20
ENDBRANCH  17  18
ENDBRANCH   2  17
TORSDOF 6
ENDMDL
MODEL 6
REMARK VINA RESULT:      -8.0      2.310      8.522
REMARK  Name = 
REMARK  6 active torsions:
REMARK  status: ('A' for Active; 'I' for Inactive)
REMARK    1  A    between atoms: C_2  and  C_3
REMARK    2  A    between atoms: C_3  and  N_4
REMARK    3  A    between atoms: N_4  and  C_5
REMARK    4  A    between atoms: C_8  and  N_9
REMARK    5  A    between atoms: N_16  and  C_17
REMARK    6  A    between atoms: C_20  and  C_21
REMARK                            x       y       z     vdW  Elec       q    Type
REMARK                         _______ _______ _______ _____ _____    ______ ____
ROOT
ATOM      1  O   UNL     1       1.229   3.905  18.651  0.00  0.00    +0.000 OA
ATOM      2  C   UNL     1       1.934   4.589  19.389  0.00  0.00    +0.000 C 
ATOM      3  N   UNL     1       3.242   4.965  19.150  0.00  0.00    +0.000 N 
ATOM      4  H   UNL     1       3.788   5.259  19.952  0.00  0.00    +0.000 HD
ENDROOT
BRANCH   3   5
ATOM      5  C   UNL     1       3.914   4.876  17.911  0.00  0.00    +0.000 A 
ATOM      6  C   UNL     1       4.339   5.993  17.200  0.00  0.00    +0.000 A 
ATOM      7  C   UNL     1       5.032   5.852  15.993  0.00  0.00    +0.000 A 
ATOM      8  C   UNL     1       5.343   4.591  15.460  0.00  0.00    +0.000 A 
ATOM      9  C   UNL     1       4.908   3.472  16.192  0.00  0.00    +0.000 A 
ATOM     10  C   UNL     1       4.206   3.609  17.402  0.00  0.00    +0.000 A 
BRANCH   8  11
ATOM     11  C   UNL     1       6.103   4.462  14.192  0.00  0.00    +0.000 A 
ATOM     12  C   UNL     1       7.249   5.243  13.943  0.00  0.00    +0.000 A 
ATOM     13  C   UNL     1       7.961   5.146  12.743  0.00  0.00    +0.000 A 
ATOM     14  C   UNL     1       7.550   4.249  11.764  0.00  0.00    +0.000 A 
ATOM     15  C   UNL     1       6.430   3.455  11.984  0.00  0.00    +0.000 A 
ATOM     16  C   UNL     1       5.712   3.565  13.181  0.00  0.00    +0.000 A 
ENDBRANCH   8  11
ENDBRANCH   3   5
BRANCH   2  17
ATOM     17  C   UNL     1       1.397   5.073  20.735  0.00  0.00    +0.000 C 
BRANCH  17  18
ATOM     18  N   UNL     1       2.085   6.290  21.174  0.00  0.00    +0.000 N 
ATOM     19  H   UNL     1       2.273   6.301  22.177  0.00  0.00    +0.000 HD
BRANCH  18  20
ATOM     20  C   UNL     1       1.593   7.522  20.721  0.00  0.00    +0.000 A 
ATOM     21  C   UNL     1       0.583   8.234  21.376  0.00  0.00    +0.000 A 
ATOM     22  C   UNL     1       0.020   9.390  20.824  0.00  0.00    +0.000 A 
ATOM     23  C   UNL     1       0.434   9.854  19.572  0.00  0.00    +0.000 A 
ATOM     24  C   UNL     1       1.447   9.155  18.903  0.00  0.00    +0.000 A 
ATOM     25  C   UNL     1       2.011   8.003  19.475  0.00  0.00    +0.000 A 
BRANCH  23  26
ATOM     26  N   UNL     1      -0.188  10.996  18.990  0.00  0.00    +0.000 N 
ATOM     27  C   UNL     1       0.177  12.317  19.143  0.00  0.00    +0.000 A 
ATOM     28  C   UNL     1      -0.722  13.055  18.410  0.00  0.00    +0.000 A 
ATOM     29  N   UNL     1      -1.636  12.242  17.810  0.00  0.00    +0.000 NA
ATOM     30  C   UNL     1      -1.296  11.023  18.169  0.00  0.00    +0.000 A 
ENDBRANCH  23  26
ENDBRANCH  18  20
ENDBRANCH  17  18
ENDBRANCH   2  17
TORSDOF 6
ENDMDL
MODEL 7
REMARK VINA RESULT:      -7.9      2.474      8.842
REMARK  Name = 
REMARK  6 active torsions:
REMARK  status: ('A' for Active; 'I' for Inactive)
REMARK    1  A    between atoms: C_2  and  C_3
REMARK    2  A    between atoms: C_3  and  N_4
REMARK    3  A    between atoms: N_4  and  C_5
REMARK    4  A    between atoms: C_8  and  N_9
REMARK    5  A    between atoms: N_16  and  C_17
REMARK    6  A    between atoms: C_20  and  C_21
REMARK                            x       y       z     vdW  Elec       q    Type
REMARK                         _______ _______ _______ _____ _____    ______ ____
ROOT
ATOM      1  O   UNL     1       1.445   3.969  18.805  0.00  0.00    +0.000 OA
ATOM      2  C   UNL     1       2.076   4.812  19.439  0.00  0.00    +0.000 C 
ATOM      3  N   UNL     1       3.327   5.305  19.119  0.00  0.00    +0.000 N 
ATOM      4  H   UNL     1       3.848   5.753  19.866  0.00  0.00    +0.000 HD
ENDROOT
BRANCH   3   5
ATOM      5  C   UNL     1       3.984   5.149  17.878  0.00  0.00    +0.000 A 
ATOM      6  C   UNL     1       4.354   6.226  17.079  0.00  0.00    +0.000 A 
ATOM      7  C   UNL     1       5.035   6.021  15.874  0.00  0.00    +0.000 A 
ATOM      8  C   UNL     1       5.388   4.737  15.432  0.00  0.00    +0.000 A 
ATOM      9  C   UNL     1       5.008   3.660  16.252  0.00  0.00    +0.000 A 
ATOM     10  C   UNL     1       4.318   3.860  17.460  0.00  0.00    +0.000 A 
BRANCH   8  11
ATOM     11  C   UNL     1       6.134   4.542  14.164  0.00  0.00    +0.000 A 
ATOM     12  C   UNL     1       5.718   3.593  13.208  0.00  0.00    +0.000 A 
ATOM     13  C   UNL     1       6.425   3.385  12.020  0.00  0.00    +0.000 A 
ATOM     14  C   UNL     1       7.562   4.137  11.749  0.00  0.00    +0.000 A 
ATOM     15  C   UNL     1       7.992   5.090  12.666  0.00  0.00    +0.000 A 
ATOM     16  C   UNL     1       7.290   5.285  13.860  0.00  0.00    +0.000 A 
ENDBRANCH   8  11
ENDBRANCH   3   5
BRANCH   2  17
ATOM     17  C   UNL     1       1.508   5.385  20.736  0.00  0.00    +0.000 C 
BRANCH  17  18
ATOM     18  N   UNL     1       2.129   6.672  21.063  0.00  0.00    +0.000 N 
ATOM     19  H   UNL     1       2.448   6.724  22.031  0.00  0.00    +0.000 HD
BRANCH  18  20
ATOM     20  C   UNL     1       1.463   7.841  20.668  0.00  0.00    +0.000 A 
ATOM     21  C   UNL     1       1.684   8.473  19.441  0.00  0.00    +0.000 A 
ATOM     22  C   UNL     1       1.106   9.711  19.136  0.00  0.00    +0.000 A 
ATOM     23  C   UNL     1       0.307  10.372  20.073  0.00  0.00    +0.000 A 
ATOM     24  C   UNL     1       0.072   9.752  21.305  0.00  0.00    +0.000 A 
ATOM     25  C   UNL     1       0.649   8.504  21.593  0.00  0.00    +0.000 A 
BRANCH  23  26
ATOM     26  N   UNL     1      -0.226  11.660  19.777  0.00  0.00    +0.000 N 
ATOM     27  C   UNL     1       0.361  12.657  19.025  0.00  0.00    +0.000 A 
ATOM     28  C   UNL     1      -0.516  13.715  19.034  0.00  0.00    +0.000 A 
ATOM     29  N   UNL     1      -1.624  13.416  19.767  0.00  0.00    +0.000 NA
ATOM     30  C   UNL     1      -1.428  12.189  20.197  0.00  0.00    +0.000 A 
ENDBRANCH  23  26
ENDBRANCH  18  20
ENDBRANCH  17  18
ENDBRANCH   2  17
TORSDOF 6
ENDMDL
MODEL 8
REMARK VINA RESULT:      -7.8      2.606      9.063
REMARK  Name = 
REMARK  6 active torsions:
REMARK  status: ('A' for Active; 'I' for Inactive)
REMARK    1  A    between atoms: C_2  and  C_3
REMARK    2  A    between atoms: C_3  and  N_4
REMARK    3  A    between atoms: N_4  and  C_5
REMARK    4  A    between atoms: C_8  and  N_9
REMARK    5  A    between atoms: N_16  and  C_17
REMARK    6  A    between atoms: C_20  and  C_21
REMARK                            x       y       z     vdW  Elec       q    Type
REMARK                         _______ _______ _______ _____ _____    ______ ____
ROOT
ATOM      1  O   UNL     1       1.540   4.076  19.090  0.00  0.00    +0.000 OA
ATOM      2  C   UNL     1       2.101   5.033  19.619  0.00  0.00    +0.000 C 
ATOM      3  N   UNL     1       3.325   5.563  19.258  0.00  0.00    +0.000 N 
ATOM      4  H   UNL     1       3.798   6.136  19.949  0.00  0.00    +0.000 HD
ENDROOT
BRANCH   3   5
ATOM      5  C   UNL     1       4.022   5.291  18.060  0.00  0.00    +0.000 A 
ATOM      6  C   UNL     1       4.195   4.004  17.562  0.00  0.00    +0.000 A 
ATOM      7  C   UNL     1       4.863   3.790  16.351  0.00  0.00    +0.000 A 
ATOM      8  C   UNL     1       5.365   4.852  15.583  0.00  0.00    +0.000 A 
ATOM      9  C   UNL     1       5.179   6.146  16.100  0.00  0.00    +0.000 A 
ATOM     10  C   UNL     1       4.516   6.366  17.319  0.00  0.00    +0.000 A 
BRANCH   8  11
ATOM     11  C   UNL     1       6.047   4.606  14.288  0.00  0.00    +0.000 A 
ATOM     12  C   UNL     1       5.574   3.631  13.387  0.00  0.00    +0.000 A 
ATOM     13  C   UNL     1       6.220   3.374  12.174  0.00  0.00    +0.000 A 
ATOM     14  C   UNL     1       7.351   4.102  11.823  0.00  0.00    +0.000 A 
ATOM     15  C   UNL     1       7.835   5.079  12.685  0.00  0.00    +0.000 A 
ATOM     16  C   UNL     1       7.194   5.323  13.905  0.00  0.00    +0.000 A 
ENDBRANCH   8  11
ENDBRANCH   3   5
BRANCH   2  17
ATOM     17  C   UNL     1       1.465   5.730  20.820  0.00  0.00    +0.000 C 
BRANCH  17  18
ATOM     18  N   UNL     1       2.098   7.027  21.077  0.00  0.00    +0.000 N 
ATOM     19  H   UNL     1       2.599   7.055  21.965  0.00  0.00    +0.000 HD
BRANCH  18  20
ATOM     20  C   UNL     1       1.332   8.182  20.871  0.00  0.00    +0.000 A 
ATOM     21  C   UNL     1       1.363   8.923  19.685  0.00  0.00    +0.000 A 
ATOM     22  C   UNL     1       0.692  10.146  19.563  0.00  0.00    +0.000 A 
ATOM     23  C   UNL     1      -0.009  10.682  20.646  0.00  0.00    +0.000 A 
ATOM     24  C   UNL     1      -0.054   9.952  21.840  0.00  0.00    +0.000 A 
ATOM     25  C   UNL     1       0.614   8.721  21.944  0.00  0.00    +0.000 A 
BRANCH  23  26
ATOM     26  N   UNL     1      -0.637  11.956  20.532  0.00  0.00    +0.000 N 
ATOM     27  C   UNL     1      -1.914  12.224  20.086  0.00  0.00    +0.000 A 
ATOM     28  C   UNL     1      -2.065  13.589  20.138  0.00  0.00    +0.000 A 
ATOM     29  N   UNL     1      -0.927  14.182  20.595  0.00  0.00    +0.000 NA
ATOM     30  C   UNL     1      -0.094  13.191  20.824  0.00  0.00    +0.000 A 
ENDBRANCH  23  26
ENDBRANCH  18  20
ENDBRANCH  17  18
ENDBRANCH   2  17
TORSDOF 6
ENDMDL
MODEL 9
REMARK VINA RESULT:      -7.8      3.359      4.610
REMARK  Name = 
REMARK  6 active torsions:
REMARK  status: ('A' for Active; 'I' for Inactive)
REMARK    1  A    between atoms: C_2  and  C_3
REMARK    2  A    between atoms: C_3  and  N_4
REMARK    3  A    between atoms: N_4  and  C_5
REMARK    4  A    between atoms: C_8  and  N_9
REMARK    5  A    between atoms: N_16  and  C_17
REMARK    6  A    between atoms: C_20  and  C_21
REMARK                            x       y       z     vdW  Elec       q    Type
REMARK                         _______ _______ _______ _____ _____    ______ ____
ROOT
ATOM      1  O   UNL     1       3.850   4.193  19.128  0.00  0.00    +0.000 OA
ATOM      2  C   UNL     1       4.089   4.779  18.074  0.00  0.00    +0.000 C 
ATOM      3  N   UNL     1       3.527   5.971  17.658  0.00  0.00    +0.000 N 
ATOM      4  H   UNL     1       3.578   6.181  16.667  0.00  0.00    +0.000 HD
ENDROOT
BRANCH   3   5
ATOM      5  C   UNL     1       2.799   6.869  18.470  0.00  0.00    +0.000 A 
ATOM      6  C   UNL     1       2.341   8.100  18.012  0.00  0.00    +0.000 A 
ATOM      7  C   UNL     1       1.593   8.940  18.844  0.00  0.00    +0.000 A 
ATOM      8  C   UNL     1       1.258   8.574  20.158  0.00  0.00    +0.000 A 
ATOM      9  C   UNL     1       1.727   7.326  20.604  0.00  0.00    +0.000 A 
ATOM     10  C   UNL     1       2.485   6.483  19.774  0.00  0.00    +0.000 A 
BRANCH   8  11
ATOM     11  C   UNL     1       0.441   9.467  21.016  0.00  0.00    +0.000 A 
ATOM     12  C   UNL     1      -0.090  10.674  20.519  0.00  0.00    +0.000 A 
ATOM     13  C   UNL     1      -0.843  11.535  21.324  0.00  0.00    +0.000 A 
ATOM     14  C   UNL     1      -1.099  11.199  22.648  0.00  0.00    +0.000 A 
ATOM     15  C   UNL     1      -0.599  10.008  23.165  0.00  0.00    +0.000 A 
ATOM     16  C   UNL     1       0.166   9.157  22.360  0.00  0.00    +0.000 A 
ENDBRANCH   8  11
ENDBRANCH   3   5
BRANCH   2  17
ATOM     17  C   UNL     1       5.057   4.175  17.060  0.00  0.00    +0.000 C 
BRANCH  17  18
ATOM     18  N   UNL     1       6.428   4.159  17.579  0.00  0.00    +0.000 N 
ATOM     19  H   UNL     1       6.538   3.550  18.391  0.00  0.00    +0.000 HD
BRANCH  18  20
ATOM     20  C   UNL     1       7.077   5.389  17.756  0.00  0.00    +0.000 A 
ATOM     21  C   UNL     1       7.778   5.728  18.917  0.00  0.00    +0.000 A 
ATOM     22  C   UNL     1       8.296   7.013  19.116  0.00  0.00    +0.000 A 
ATOM     23  C   UNL     1       8.098   8.014  18.161  0.00  0.00    +0.000 A 
ATOM     24  C   UNL     1       7.402   7.691  16.990  0.00  0.00    +0.000 A 
ATOM     25  C   UNL     1       6.898   6.394  16.799  0.00  0.00    +0.000 A 
BRANCH  23  26
ATOM     26  N   UNL     1       8.575   9.335  18.399  0.00  0.00    +0.000 N 
ATOM     27  C   UNL     1       8.406  10.444  17.596  0.00  0.00    +0.000 A 
ATOM     28  C   UNL     1       9.053  11.481  18.226  0.00  0.00    +0.000 A 
ATOM     29  N   UNL     1       9.622  11.058  19.388  0.00  0.00    +0.000 NA
ATOM     30  C   UNL     1       9.324   9.780  19.469  0.00  0.00    +0.000 A 
ENDBRANCH  23  26
ENDBRANCH  18  20
ENDBRANCH  17  18
ENDBRANCH   2  17
TORSDOF 6
ENDMDL
