MODEL 1
REMARK VINA RESULT:      -7.2      0.000      0.000
REMARK  Name = 
REMARK  6 active torsions:
REMARK  status: ('A' for Active; 'I' for Inactive)
REMARK    1  A    between atoms: N_1  and  C_2
REMARK    2  A    between atoms: C_7  and  N_8
REMARK    3  A    between atoms: C_9  and  C_11
REMARK    4  A    between atoms: C_14  and  C_15
REMARK    5  A    between atoms: C_15  and  S_16
REMARK    6  A    between atoms: S_16  and  C_17
REMARK                            x       y       z     vdW  Elec       q    Type
REMARK                         _______ _______ _______ _____ _____    ______ ____
ROOT
ATOM      1  C   UNL     1       2.310   7.708  18.615  0.00  0.00    +0.000 A 
ATOM      2  C   UNL     1       1.904   7.740  19.952  0.00  0.00    +0.000 A 
ATOM      3  C   UNL     1       1.140   8.812  20.422  0.00  0.00    +0.000 A 
ATOM      4  C   UNL     1       0.796   9.882  19.578  0.00  0.00    +0.000 A 
ATOM      5  C   UNL     1       1.225   9.850  18.244  0.00  0.00    +0.000 A 
ATOM      6  C   UNL     1       1.979   8.769  17.764  0.00  0.00    +0.000 A 
ENDROOT
BRANCH   1   8
ATOM      7  N   UNL     1       4.369   6.963  17.562  0.00  0.00    +0.000 N 
ATOM      8  C   UNL     1       3.140   6.591  18.081  0.00  0.00    +0.000 C 
ATOM      9  O   UNL     1       2.697   5.453  18.178  0.00  0.00    +0.000 OA
ATOM     10  H   UNL     1       4.701   7.887  17.788  0.00  0.00    +0.000 HD
BRANCH   7  16
ATOM     11  C   UNL     1       6.314   5.483  17.678  0.00  0.00    +0.000 A 
ATOM     12  C   UNL     1       7.177   4.577  17.038  0.00  0.00    +0.000 A 
ATOM     13  C   UNL     1       7.129   4.380  15.657  0.00  0.00    +0.000 A 
ATOM     14  C   UNL     1       6.185   5.060  14.901  0.00  0.00    +0.000 A 
ATOM     15  C   UNL     1       5.278   5.918  15.524  0.00  0.00    +0.000 A 
ATOM     16  C   UNL     1       5.306   6.119  16.911  0.00  0.00    +0.000 A 
BRANCH  11  17
ATOM     17  N   UNL     1       6.342   5.529  19.088  0.00  0.00    +0.000 N 
ATOM     18  H   UNL     1       6.705   4.675  19.503  0.00  0.00    +0.000 HD
ATOM     19  H   UNL     1       6.787   6.344  19.484  0.00  0.00    +0.000 HD
ENDBRANCH  11  17
ENDBRANCH   7  16
ENDBRANCH   1   8
BRANCH   4  20
ATOM     20  C   UNL     1      -0.025  11.047  20.100  0.00  0.00    +0.000 C 
BRANCH  20  21
ATOM     21  S   UNL     1      -0.350  12.272  18.795  0.00  0.00    +0.000 S 
BRANCH  21  22
ATOM     22  C   UNL     1      -1.885  11.758  18.213  0.00  0.00    +0.000 A 
ATOM     23  N   UNL     1      -2.159  10.991  17.187  0.00  0.00    +0.000 NA
ATOM     24  C   UNL     1      -3.533  10.932  17.149  0.00  0.00    +0.000 A 
ATOM     25  C   UNL     1      -4.085  11.667  18.174  0.00  0.00    +0.000 A 
ATOM     26  N   UNL     1      -3.014  12.180  18.852  0.00  0.00    +0.000 N 
ATOM     27  H   UNL     1      -3.029  12.774  19.668  0.00  0.00    +0.000 HD
ENDBRANCH  21  22
ENDBRANCH  20  21
ENDBRANCH   4  20
TORSDOF 6
ENDMDL
MODEL 2
REMARK VINA RESULT:      -7.2      0.278      1.045
REMARK  Name = 
REMARK  6 active torsions:
REMARK  status: ('A' for Active; 'I' for Inactive)
REMARK    1  A    between atoms: N_1  and  C_2
REMARK    2  A    between atoms: C_7  and  N_8
REMARK    3  A    between atoms: C_9  and  C_11
REMARK    4  A    between atoms: C_14  and  C_15
REMARK    5  A    between atoms: C_15  and  S_16
REMARK    6  A    between atoms: S_16  and  C_17
REMARK                            x       y       z     vdW  Elec       q    Type
REMARK                         _______ _______ _______ _____ _____    ______ ____
ROOT
ATOM      1  C   UNL     1       2.376   7.771  18.575  0.00  0.00    +0.000 A 
ATOM      2  C   UNL     1       2.010   8.844  17.758  0.00  0.00    +0.000 A 
ATOM      3  C   UNL     1       1.235   9.883  18.281  0.00  0.00    +0.000 A 
ATOM      4  C   UNL     1       0.788   9.855  19.615  0.00  0.00    +0.000 A 
ATOM      5  C   UNL     1       1.144   8.764  20.419  0.00  0.00    +0.000 A 
ATOM      6  C   UNL     1       1.933   7.726  19.902  0.00  0.00    +0.000 A 
ENDROOT
BRANCH   1   8
ATOM      7  N   UNL     1       4.410   6.986  17.501  0.00  0.00    +0.000 N 
ATOM      8  C   UNL     1       3.186   6.636  18.049  0.00  0.00    +0.000 C 
ATOM      9  O   UNL     1       2.736   5.503  18.178  0.00  0.00    +0.000 OA
ATOM     10  H   UNL     1       4.753   7.912  17.702  0.00  0.00    +0.000 HD
BRANCH   7  16
ATOM     11  C   UNL     1       6.331   5.477  17.616  0.00  0.00    +0.000 A 
ATOM     12  C   UNL     1       7.175   4.551  16.978  0.00  0.00    +0.000 A 
ATOM     13  C   UNL     1       7.112   4.340  15.600  0.00  0.00    +0.000 A 
ATOM     14  C   UNL     1       6.171   5.026  14.844  0.00  0.00    +0.000 A 
ATOM     15  C   UNL     1       5.284   5.906  15.467  0.00  0.00    +0.000 A 
ATOM     16  C   UNL     1       5.328   6.120  16.851  0.00  0.00    +0.000 A 
BRANCH  11  17
ATOM     17  N   UNL     1       6.372   5.537  19.025  0.00  0.00    +0.000 N 
ATOM     18  H   UNL     1       6.537   6.478  19.374  0.00  0.00    +0.000 HD
ATOM     19  H   UNL     1       5.593   5.104  19.498  0.00  0.00    +0.000 HD
ENDBRANCH  11  17
ENDBRANCH   7  16
ENDBRANCH   1   8
BRANCH   4  20
ATOM     20  C   UNL     1      -0.062  10.983  20.170  0.00  0.00    +0.000 C 
BRANCH  20  21
ATOM     21  S   UNL     1      -0.566  12.144  18.864  0.00  0.00    +0.000 S 
BRANCH  21  22
ATOM     22  C   UNL     1      -2.120  11.538  18.444  0.00  0.00    +0.000 A 
ATOM     23  N   UNL     1      -2.426  10.445  17.791  0.00  0.00    +0.000 NA
ATOM     24  C   UNL     1      -3.799  10.463  17.700  0.00  0.00    +0.000 A 
ATOM     25  C   UNL     1      -4.319  11.579  18.317  0.00  0.00    +0.000 A 
ATOM     26  N   UNL     1      -3.229  12.250  18.798  0.00  0.00    +0.000 N 
ATOM     27  H   UNL     1      -3.218  13.120  19.311  0.00  0.00    +0.000 HD
ENDBRANCH  21  22
ENDBRANCH  20  21
ENDBRANCH   4  20
TORSDOF 6
ENDMDL
MODEL 3
REMARK VINA RESULT:      -7.2      3.088      8.759
REMARK  Name = 
REMARK  6 active torsions:
REMARK  status: ('A' for Active; 'I' for Inactive)
REMARK    1  A    between atoms: N_1  and  C_2
REMARK    2  A    between atoms: C_7  and  N_8
REMARK    3  A    between atoms: C_9  and  C_11
REMARK    4  A    between atoms: C_14  and  C_15
REMARK    5  A    between atoms: C_15  and  S_16
REMARK    6  A    between atoms: S_16  and  C_17
REMARK                            x       y       z     vdW  Elec       q    Type
REMARK                         _______ _______ _______ _____ _____    ______ ____
ROOT
ATOM      1  C   UNL     1       2.516   7.990  18.434  0.00  0.00    +0.000 A 
ATOM      2  C   UNL     1       2.368   7.076  19.481  0.00  0.00    +0.000 A 
ATOM      3  C   UNL     1       3.175   5.936  19.528  0.00  0.00    +0.000 A 
ATOM      4  C   UNL     1       4.120   5.674  18.520  0.00  0.00    +0.000 A 
ATOM      5  C   UNL     1       4.247   6.588  17.464  0.00  0.00    +0.000 A 
ATOM      6  C   UNL     1       3.448   7.740  17.420  0.00  0.00    +0.000 A 
ENDROOT
BRANCH   1   8
ATOM      7  N   UNL     1       0.599   9.256  19.227  0.00  0.00    +0.000 N 
ATOM      8  C   UNL     1       1.662   9.209  18.339  0.00  0.00    +0.000 C 
ATOM      9  O   UNL     1       1.984  10.071  17.531  0.00  0.00    +0.000 OA
ATOM     10  H   UNL     1       0.616   8.607  19.998  0.00  0.00    +0.000 HD
BRANCH   7  16
ATOM     11  C   UNL     1      -0.407  11.182  20.350  0.00  0.00    +0.000 A 
ATOM     12  C   UNL     1      -1.360  12.216  20.345  0.00  0.00    +0.000 A 
ATOM     13  C   UNL     1      -2.367  12.272  19.381  0.00  0.00    +0.000 A 
ATOM     14  C   UNL     1      -2.411  11.312  18.379  0.00  0.00    +0.000 A 
ATOM     15  C   UNL     1      -1.439  10.312  18.330  0.00  0.00    +0.000 A 
ATOM     16  C   UNL     1      -0.415  10.248  19.285  0.00  0.00    +0.000 A 
BRANCH  11  17
ATOM     17  N   UNL     1       0.650  11.269  21.280  0.00  0.00    +0.000 N 
ATOM     18  H   UNL     1       1.554  11.407  20.837  0.00  0.00    +0.000 HD
ATOM     19  H   UNL     1       0.509  11.928  22.032  0.00  0.00    +0.000 HD
ENDBRANCH  11  17
ENDBRANCH   7  16
ENDBRANCH   1   8
BRANCH   4  20
ATOM     20  C   UNL     1       4.985   4.429  18.575  0.00  0.00    +0.000 C 
BRANCH  20  21
ATOM     21  S   UNL     1       6.724   4.807  18.195  0.00  0.00    +0.000 S 
BRANCH  21  22
ATOM     22  C   UNL     1       6.740   4.674  16.480  0.00  0.00    +0.000 A 
ATOM     23  N   UNL     1       7.346   5.436  15.604  0.00  0.00    +0.000 NA
ATOM     24  C   UNL     1       6.998   4.910  14.381  0.00  0.00    +0.000 A 
ATOM     25  C   UNL     1       6.181   3.812  14.532  0.00  0.00    +0.000 A 
ATOM     26  N   UNL     1       6.035   3.670  15.884  0.00  0.00    +0.000 N 
ATOM     27  H   UNL     1       5.500   2.969  16.376  0.00  0.00    +0.000 HD
ENDBRANCH  21  22
ENDBRANCH  20  21
ENDBRANCH   4  20
TORSDOF 6
ENDMDL
MODEL 4
REMARK VINA RESULT:      -7.2      2.399      2.858
REMARK  Name = 
REMARK  6 active torsions:
REMARK  status: ('A' for Active; 'I' for Inactive)
REMARK    1  A    between atoms: N_1  and  C_2
REMARK    2  A    between atoms: C_7  and  N_8
REMARK    3  A    between atoms: C_9  and  C_11
REMARK    4  A    between atoms: C_14  and  C_15
REMARK    5  A    between atoms: C_15  and  S_16
REMARK    6  A    between atoms: S_16  and  C_17
REMARK                            x       y       z     vdW  Elec       q    Type
REMARK                         _______ _______ _______ _____ _____    ______ ____
ROOT
ATOM      1  C   UNL     1       2.295   7.547  18.802  0.00  0.00    +0.000 A 
ATOM      2  C   UNL     1       1.968   7.492  20.160  0.00  0.00    +0.000 A 
ATOM      3  C   UNL     1       1.226   8.525  20.739  0.00  0.00    +0.000 A 
ATOM      4  C   UNL     1       0.825   9.642  19.983  0.00  0.00    +0.000 A 
ATOM      5  C   UNL     1       1.176   9.696  18.627  0.00  0.00    +0.000 A 
ATOM      6  C   UNL     1       1.908   8.654  18.039  0.00  0.00    +0.000 A 
ENDROOT
BRANCH   1   8
ATOM      7  N   UNL     1       4.381   6.840  17.775  0.00  0.00    +0.000 N 
ATOM      8  C   UNL     1       3.100   6.473  18.153  0.00  0.00    +0.000 C 
ATOM      9  O   UNL     1       2.591   5.363  18.045  0.00  0.00    +0.000 OA
ATOM     10  H   UNL     1       4.745   7.697  18.161  0.00  0.00    +0.000 HD
BRANCH   7  16
ATOM     11  C   UNL     1       6.333   5.366  17.772  0.00  0.00    +0.000 A 
ATOM     12  C   UNL     1       7.194   4.509  17.064  0.00  0.00    +0.000 A 
ATOM     13  C   UNL     1       7.133   4.406  15.674  0.00  0.00    +0.000 A 
ATOM     14  C   UNL     1       6.178   5.130  14.974  0.00  0.00    +0.000 A 
ATOM     15  C   UNL     1       5.274   5.940  15.662  0.00  0.00    +0.000 A 
ATOM     16  C   UNL     1       5.315   6.046  17.059  0.00  0.00    +0.000 A 
BRANCH  11  17
ATOM     17  N   UNL     1       6.375   5.317  19.182  0.00  0.00    +0.000 N 
ATOM     18  H   UNL     1       6.648   6.203  19.598  0.00  0.00    +0.000 HD
ATOM     19  H   UNL     1       5.547   4.946  19.625  0.00  0.00    +0.000 HD
ENDBRANCH  11  17
ENDBRANCH   7  16
ENDBRANCH   1   8
BRANCH   4  20
ATOM     20  C   UNL     1       0.029  10.764  20.623  0.00  0.00    +0.000 C 
BRANCH  20  21
ATOM     21  S   UNL     1      -0.421  10.367  22.340  0.00  0.00    +0.000 S 
BRANCH  21  22
ATOM     22  C   UNL     1      -1.089  11.859  22.876  0.00  0.00    +0.000 A 
ATOM     23  N   UNL     1      -0.485  13.004  23.075  0.00  0.00    +0.000 NA
ATOM     24  C   UNL     1      -1.472  13.846  23.534  0.00  0.00    +0.000 A 
ATOM     25  C   UNL     1      -2.683  13.195  23.600  0.00  0.00    +0.000 A 
ATOM     26  N   UNL     1      -2.421  11.926  23.165  0.00  0.00    +0.000 N 
ATOM     27  H   UNL     1      -3.071  11.158  23.076  0.00  0.00    +0.000 HD
ENDBRANCH  21  22
ENDBRANCH  20  21
ENDBRANCH   4  20
TORSDOF 6
ENDMDL
MODEL 5
REMARK VINA RESULT:      -7.1      2.125      2.869
REMARK  Name = 
REMARK  6 active torsions:
REMARK  status: ('A' for Active; 'I' for Inactive)
REMARK    1  A    between atoms: N_1  and  C_2
REMARK    2  A    between atoms: C_7  and  N_8
REMARK    3  A    between atoms: C_9  and  C_11
REMARK    4  A    between atoms: C_14  and  C_15
REMARK    5  A    between atoms: C_15  and  S_16
REMARK    6  A    between atoms: S_16  and  C_17
REMARK                            x       y       z     vdW  Elec       q    Type
REMARK                         _______ _______ _______ _____ _____    ______ ____
ROOT
ATOM      1  C   UNL     1       1.834   8.273  19.160  0.00  0.00    +0.000 A 
ATOM      2  C   UNL     1       2.077   8.984  17.981  0.00  0.00    +0.000 A 
ATOM      3  C   UNL     1       1.658  10.313  17.872  0.00  0.00    +0.000 A 
ATOM      4  C   UNL     1       0.966  10.944  18.921  0.00  0.00    +0.000 A 
ATOM      5  C   UNL     1       0.711  10.215  20.091  0.00  0.00    +0.000 A 
ATOM      6  C   UNL     1       1.142   8.886  20.210  0.00  0.00    +0.000 A 
ENDROOT
BRANCH   1   8
ATOM      7  N   UNL     1       2.264   6.111  18.135  0.00  0.00    +0.000 N 
ATOM      8  C   UNL     1       2.250   6.849  19.308  0.00  0.00    +0.000 C 
ATOM      9  O   UNL     1       2.580   6.463  20.423  0.00  0.00    +0.000 OA
ATOM     10  H   UNL     1       2.223   6.626  17.270  0.00  0.00    +0.000 HD
BRANCH   7  16
ATOM     11  C   UNL     1       3.792   4.300  17.531  0.00  0.00    +0.000 A 
ATOM     12  C   UNL     1       4.074   2.923  17.499  0.00  0.00    +0.000 A 
ATOM     13  C   UNL     1       3.102   1.975  17.822  0.00  0.00    +0.000 A 
ATOM     14  C   UNL     1       1.842   2.395  18.223  0.00  0.00    +0.000 A 
ATOM     15  C   UNL     1       1.559   3.758  18.320  0.00  0.00    +0.000 A 
ATOM     16  C   UNL     1       2.527   4.723  18.009  0.00  0.00    +0.000 A 
BRANCH  11  17
ATOM     17  N   UNL     1       4.863   5.192  17.313  0.00  0.00    +0.000 N 
ATOM     18  H   UNL     1       5.210   5.608  18.174  0.00  0.00    +0.000 HD
ATOM     19  H   UNL     1       5.619   4.829  16.753  0.00  0.00    +0.000 HD
ENDBRANCH  11  17
ENDBRANCH   7  16
ENDBRANCH   1   8
BRANCH   4  20
ATOM     20  C   UNL     1       0.506  12.384  18.789  0.00  0.00    +0.000 C 
BRANCH  20  21
ATOM     21  S   UNL     1      -1.267  12.554  19.159  0.00  0.00    +0.000 S 
BRANCH  21  22
ATOM     22  C   UNL     1      -1.968  11.514  17.982  0.00  0.00    +0.000 A 
ATOM     23  N   UNL     1      -2.436  10.300  18.135  0.00  0.00    +0.000 NA
ATOM     24  C   UNL     1      -2.840   9.919  16.876  0.00  0.00    +0.000 A 
ATOM     25  C   UNL     1      -2.618  10.925  15.962  0.00  0.00    +0.000 A 
ATOM     26  N   UNL     1      -2.070  11.943  16.691  0.00  0.00    +0.000 N 
ATOM     27  H   UNL     1      -1.773  12.849  16.358  0.00  0.00    +0.000 HD
ENDBRANCH  21  22
ENDBRANCH  20  21
ENDBRANCH   4  20
TORSDOF 6
ENDMDL
MODEL 6
REMARK VINA RESULT:      -7.1      3.568      8.863
REMARK  Name = 
REMARK  6 active torsions:
REMARK  status: ('A' for Active; 'I' for Inactive)
REMARK    1  A    between atoms: N_1  and  C_2
REMARK    2  A    between atoms: C_7  and  N_8
REMARK    3  A    between atoms: C_9  and  C_11
REMARK    4  A    between atoms: C_14  and  C_15
REMARK    5  A    between atoms: C_15  and  S_16
REMARK    6  A    between atoms: S_16  and  C_17
REMARK                            x       y       z     vdW  Elec       q    Type
REMARK                         _______ _______ _______ _____ _____    ______ ____
ROOT
ATOM      1  C   UNL     1       2.785   7.467  17.981  0.00  0.00    +0.000 A 
ATOM      2  C   UNL     1       2.308   6.170  18.192  0.00  0.00    +0.000 A 
ATOM      3  C   UNL     1       3.079   5.073  17.797  0.00  0.00    +0.000 A 
ATOM      4  C   UNL     1       4.320   5.250  17.159  0.00  0.00    +0.000 A 
ATOM      5  C   UNL     1       4.779   6.555  16.934  0.00  0.00    +0.000 A 
ATOM      6  C   UNL     1       4.015   7.659  17.342  0.00  0.00    +0.000 A 
ENDROOT
BRANCH   1   8
ATOM      7  N   UNL     1       1.467   8.632  19.658  0.00  0.00    +0.000 N 
ATOM      8  C   UNL     1       1.985   8.662  18.373  0.00  0.00    +0.000 C 
ATOM      9  O   UNL     1       1.885   9.574  17.561  0.00  0.00    +0.000 OA
ATOM     10  H   UNL     1       1.848   7.946  20.290  0.00  0.00    +0.000 HD
BRANCH   7  16
ATOM     11  C   UNL     1       0.600   9.751  21.653  0.00  0.00    +0.000 A 
ATOM     12  C   UNL     1      -0.194  10.766  22.215  0.00  0.00    +0.000 A 
ATOM     13  C   UNL     1      -1.055  11.533  21.430  0.00  0.00    +0.000 A 
ATOM     14  C   UNL     1      -1.102  11.323  20.059  0.00  0.00    +0.000 A 
ATOM     15  C   UNL     1      -0.278  10.362  19.472  0.00  0.00    +0.000 A 
ATOM     16  C   UNL     1       0.600   9.590  20.246  0.00  0.00    +0.000 A 
BRANCH  11  17
ATOM     17  N   UNL     1       1.533   9.108  22.494  0.00  0.00    +0.000 N 
ATOM     18  H   UNL     1       1.090   8.555  23.223  0.00  0.00    +0.000 HD
ATOM     19  H   UNL     1       2.249   8.579  22.019  0.00  0.00    +0.000 HD
ENDBRANCH  11  17
ENDBRANCH   7  16
ENDBRANCH   1   8
BRANCH   4  20
ATOM     20  C   UNL     1       5.144   4.053  16.724  0.00  0.00    +0.000 C 
BRANCH  20  21
ATOM     21  S   UNL     1       6.883   4.508  16.441  0.00  0.00    +0.000 S 
BRANCH  21  22
ATOM     22  C   UNL     1       6.970   4.491  14.723  0.00  0.00    +0.000 A 
ATOM     23  N   UNL     1       7.619   5.302  13.927  0.00  0.00    +0.000 NA
ATOM     24  C   UNL     1       7.319   4.863  12.658  0.00  0.00    +0.000 A 
ATOM     25  C   UNL     1       6.485   3.768  12.700  0.00  0.00    +0.000 A 
ATOM     26  N   UNL     1       6.281   3.537  14.032  0.00  0.00    +0.000 N 
ATOM     27  H   UNL     1       5.720   2.811  14.452  0.00  0.00    +0.000 HD
ENDBRANCH  21  22
ENDBRANCH  20  21
ENDBRANCH   4  20
TORSDOF 6
ENDMDL
MODEL 7
REMARK VINA RESULT:      -7.1      2.436      2.999
REMARK  Name = 
REMARK  6 active torsions:
REMARK  status: ('A' for Active; 'I' for Inactive)
REMARK    1  A    between atoms: N_1  and  C_2
REMARK    2  A    between atoms: C_7  and  N_8
REMARK    3  A    between atoms: C_9  and  C_11
REMARK    4  A    between atoms: C_14  and  C_15
REMARK    5  A    between atoms: C_15  and  S_16
REMARK    6  A    between atoms: S_16  and  C_17
REMARK                            x       y       z     vdW  Elec       q    Type
REMARK                         _______ _______ _______ _____ _____    ______ ____
ROOT
ATOM      1  C   UNL     1       2.286   7.693  18.844  0.00  0.00    +0.000 A 
ATOM      2  C   UNL     1       1.842   8.788  18.098  0.00  0.00    +0.000 A 
ATOM      3  C   UNL     1       1.083   9.787  18.713  0.00  0.00    +0.000 A 
ATOM      4  C   UNL     1       0.730   9.696  20.072  0.00  0.00    +0.000 A 
ATOM      5  C   UNL     1       1.164   8.584  20.806  0.00  0.00    +0.000 A 
ATOM      6  C   UNL     1       1.938   7.586  20.195  0.00  0.00    +0.000 A 
ENDROOT
BRANCH   1   8
ATOM      7  N   UNL     1       4.332   6.969  17.750  0.00  0.00    +0.000 N 
ATOM      8  C   UNL     1       3.083   6.598  18.219  0.00  0.00    +0.000 C 
ATOM      9  O   UNL     1       2.598   5.473  18.208  0.00  0.00    +0.000 OA
ATOM     10  H   UNL     1       4.694   7.856  18.062  0.00  0.00    +0.000 HD
BRANCH   7  16
ATOM     11  C   UNL     1       6.267   5.472  17.745  0.00  0.00    +0.000 A 
ATOM     12  C   UNL     1       7.108   4.594  17.039  0.00  0.00    +0.000 A 
ATOM     13  C   UNL     1       7.027   4.469  15.652  0.00  0.00    +0.000 A 
ATOM     14  C   UNL     1       6.071   5.192  14.953  0.00  0.00    +0.000 A 
ATOM     15  C   UNL     1       5.185   6.024  15.641  0.00  0.00    +0.000 A 
ATOM     16  C   UNL     1       5.247   6.153  17.035  0.00  0.00    +0.000 A 
BRANCH  11  17
ATOM     17  N   UNL     1       6.328   5.446  19.154  0.00  0.00    +0.000 N 
ATOM     18  H   UNL     1       7.231   5.136  19.503  0.00  0.00    +0.000 HD
ATOM     19  H   UNL     1       6.031   6.293  19.614  0.00  0.00    +0.000 HD
ENDBRANCH  11  17
ENDBRANCH   7  16
ENDBRANCH   1   8
BRANCH   4  20
ATOM     20  C   UNL     1      -0.103  10.781  20.729  0.00  0.00    +0.000 C 
BRANCH  20  21
ATOM     21  S   UNL     1      -0.525  10.351  22.445  0.00  0.00    +0.000 S 
BRANCH  21  22
ATOM     22  C   UNL     1      -1.422  11.733  22.938  0.00  0.00    +0.000 A 
ATOM     23  N   UNL     1      -1.056  12.991  22.938  0.00  0.00    +0.000 NA
ATOM     24  C   UNL     1      -2.133  13.669  23.463  0.00  0.00    +0.000 A 
ATOM     25  C   UNL     1      -3.158  12.803  23.770  0.00  0.00    +0.000 A 
ATOM     26  N   UNL     1      -2.689  11.568  23.417  0.00  0.00    +0.000 N 
ATOM     27  H   UNL     1      -3.166  10.682  23.497  0.00  0.00    +0.000 HD
ENDBRANCH  21  22
ENDBRANCH  20  21
ENDBRANCH   4  20
TORSDOF 6
ENDMDL
MODEL 8
REMARK VINA RESULT:      -7.0      3.475      8.944
REMARK  Name = 
REMARK  6 active torsions:
REMARK  status: ('A' for Active; 'I' for Inactive)
REMARK    1  A    between atoms: N_1  and  C_2
REMARK    2  A    between atoms: C_7  and  N_8
REMARK    3  A    between atoms: C_9  and  C_11
REMARK    4  A    between atoms: C_14  and  C_15
REMARK    5  A    between atoms: C_15  and  S_16
REMARK    6  A    between atoms: S_16  and  C_17
REMARK                            x       y       z     vdW  Elec       q    Type
REMARK                         _______ _______ _______ _____ _____    ______ ____
ROOT
ATOM      1  C   UNL     1       1.746   7.551  20.292  0.00  0.00    +0.000 A 
ATOM      2  C   UNL     1       1.563   6.234  20.722  0.00  0.00    +0.000 A 
ATOM      3  C   UNL     1       1.952   5.174  19.899  0.00  0.00    +0.000 A 
ATOM      4  C   UNL     1       2.499   5.408  18.624  0.00  0.00    +0.000 A 
ATOM      5  C   UNL     1       2.659   6.733  18.195  0.00  0.00    +0.000 A 
ATOM      6  C   UNL     1       2.283   7.800  19.024  0.00  0.00    +0.000 A 
ENDROOT
BRANCH   1   8
ATOM      7  N   UNL     1       0.267   9.449  20.639  0.00  0.00    +0.000 N 
ATOM      8  C   UNL     1       1.328   8.708  21.135  0.00  0.00    +0.000 C 
ATOM      9  O   UNL     1       1.915   8.885  22.196  0.00  0.00    +0.000 OA
ATOM     10  H   UNL     1      -0.276   9.032  19.899  0.00  0.00    +0.000 HD
BRANCH   7  16
ATOM     11  C   UNL     1      -0.866  10.608  22.471  0.00  0.00    +0.000 A 
ATOM     12  C   UNL     1      -1.304  11.814  23.044  0.00  0.00    +0.000 A 
ATOM     13  C   UNL     1      -1.257  13.015  22.335  0.00  0.00    +0.000 A 
ATOM     14  C   UNL     1      -0.730  13.032  21.051  0.00  0.00    +0.000 A 
ATOM     15  C   UNL     1      -0.234  11.856  20.485  0.00  0.00    +0.000 A 
ATOM     16  C   UNL     1      -0.264  10.644  21.189  0.00  0.00    +0.000 A 
BRANCH  11  17
ATOM     17  N   UNL     1      -0.830   9.465  23.298  0.00  0.00    +0.000 N 
ATOM     18  H   UNL     1      -0.805   9.696  24.288  0.00  0.00    +0.000 HD
ATOM     19  H   UNL     1      -1.536   8.770  23.104  0.00  0.00    +0.000 HD
ENDBRANCH  11  17
ENDBRANCH   7  16
ENDBRANCH   1   8
BRANCH   4  20
ATOM     20  C   UNL     1       2.908   4.250  17.733  0.00  0.00    +0.000 C 
BRANCH  20  21
ATOM     21  S   UNL     1       4.138   3.184  18.547  0.00  0.00    +0.000 S 
BRANCH  21  22
ATOM     22  C   UNL     1       5.549   4.164  18.472  0.00  0.00    +0.000 A 
ATOM     23  N   UNL     1       6.022   4.992  19.369  0.00  0.00    +0.000 NA
ATOM     24  C   UNL     1       7.142   5.540  18.787  0.00  0.00    +0.000 A 
ATOM     25  C   UNL     1       7.344   5.022  17.527  0.00  0.00    +0.000 A 
ATOM     26  N   UNL     1       6.320   4.135  17.346  0.00  0.00    +0.000 N 
ATOM     27  H   UNL     1       6.137   3.561  16.535  0.00  0.00    +0.000 HD
ENDBRANCH  21  22
ENDBRANCH  20  21
ENDBRANCH   4  20
TORSDOF 6
ENDMDL
MODEL 9
REMARK VINA RESULT:      -7.0      5.664      8.302
REMARK  Name = 
REMARK  6 active torsions:
REMARK  status: ('A' for Active; 'I' for Inactive)
REMARK    1  A    between atoms: N_1  and  C_2
REMARK    2  A    between atoms: C_7  and  N_8
REMARK    3  A    between atoms: C_9  and  C_11
REMARK    4  A    between atoms: C_14  and  C_15
REMARK    5  A    between atoms: C_15  and  S_16
REMARK    6  A    between atoms: S_16  and  C_17
REMARK                            x       y       z     vdW  Elec       q    Type
REMARK                         _______ _______ _______ _____ _____    ______ ____
ROOT
ATOM      1  C   UNL     1       6.127   5.921  18.352  0.00  0.00    +0.000 A 
ATOM      2  C   UNL     1       5.734   6.926  17.463  0.00  0.00    +0.000 A 
ATOM      3  C   UNL     1       6.596   7.992  17.193  0.00  0.00    +0.000 A 
ATOM      4  C   UNL     1       7.848   8.090  17.826  0.00  0.00    +0.000 A 
ATOM      5  C   UNL     1       8.224   7.088  18.731  0.00  0.00    +0.000 A 
ATOM      6  C   UNL     1       7.367   6.009  18.994  0.00  0.00    +0.000 A 
ENDROOT
BRANCH   1   8
ATOM      7  N   UNL     1       3.872   5.045  18.584  0.00  0.00    +0.000 N 
ATOM      8  C   UNL     1       5.228   4.778  18.679  0.00  0.00    +0.000 C 
ATOM      9  O   UNL     1       5.748   3.704  18.959  0.00  0.00    +0.000 OA
ATOM     10  H   UNL     1       3.603   5.883  18.094  0.00  0.00    +0.000 HD
BRANCH   7  16
ATOM     11  C   UNL     1       2.153   4.334  20.172  0.00  0.00    +0.000 A 
ATOM     12  C   UNL     1       1.041   3.522  20.460  0.00  0.00    +0.000 A 
ATOM     13  C   UNL     1       0.647   2.498  19.598  0.00  0.00    +0.000 A 
ATOM     14  C   UNL     1       1.338   2.297  18.411  0.00  0.00    +0.000 A 
ATOM     15  C   UNL     1       2.407   3.130  18.077  0.00  0.00    +0.000 A 
ATOM     16  C   UNL     1       2.808   4.170  18.927  0.00  0.00    +0.000 A 
BRANCH  11  17
ATOM     17  N   UNL     1       2.407   5.424  21.030  0.00  0.00    +0.000 N 
ATOM     18  H   UNL     1       1.943   5.333  21.931  0.00  0.00    +0.000 HD
ATOM     19  H   UNL     1       3.380   5.665  21.144  0.00  0.00    +0.000 HD
ENDBRANCH  11  17
ENDBRANCH   7  16
ENDBRANCH   1   8
BRANCH   4  20
ATOM     20  C   UNL     1       8.773   9.257  17.534  0.00  0.00    +0.000 C 
BRANCH  20  21
ATOM     21  S   UNL     1       9.181  10.180  19.048  0.00  0.00    +0.000 S 
BRANCH  21  22
ATOM     22  C   UNL     1       9.848  11.628  18.402  0.00  0.00    +0.000 A 
ATOM     23  N   UNL     1       9.493  12.868  18.629  0.00  0.00    +0.000 NA
ATOM     24  C   UNL     1      10.324  13.622  17.833  0.00  0.00    +0.000 A 
ATOM     25  C   UNL     1      11.194  12.820  17.129  0.00  0.00    +0.000 A 
ATOM     26  N   UNL     1      10.881  11.546  17.514  0.00  0.00    +0.000 N 
ATOM     27  H   UNL     1      11.310  10.686  17.205  0.00  0.00    +0.000 HD
ENDBRANCH  21  22
ENDBRANCH  20  21
ENDBRANCH   4  20
TORSDOF 6
ENDMDL
