MODEL 1
REMARK VINA RESULT:      -7.2      0.000      0.000
REMARK  Name = 
REMARK  15 active torsions:
REMARK  status: ('A' for Active; 'I' for Inactive)
REMARK    1  A    between atoms: C_1  and  C_2
REMARK    2  A    between atoms: C_2  and  C_3
REMARK    3  A    between atoms: C_3  and  C_4
REMARK    4  A    between atoms: C_5  and  C_6
REMARK    5  A    between atoms: C_8  and  S_9
REMARK    6  A    between atoms: S_9  and  C_10
REMARK    7  A    between atoms: C_10  and  C_11
REMARK    8  A    between atoms: C_11  and  C_13
REMARK    9  A    between atoms: C_13  and  C_14
REMARK   10  A    between atoms: C_13  and  C_15
REMARK   11  A    between atoms: C_13  and  C_16
REMARK   12  A    between atoms: C_18  and  O_19
REMARK   13  A    between atoms: O_19  and  C_20
REMARK   14  A    between atoms: N_22  and  C_23
REMARK   15  A    between atoms: N_22  and  C_24
REMARK                            x       y       z     vdW  Elec       q    Type
REMARK                         _______ _______ _______ _____ _____    ______ ____
ROOT
ATOM      1  C   UNL     1       3.171   4.063  19.209  0.00  0.00    +0.000 A 
ATOM      2  C   UNL     1       4.298   3.294  19.475  0.00  0.00    +0.000 A 
ATOM      3  C   UNL     1       4.287   1.803  19.650  0.00  0.00    +0.000 C 
ATOM      4  N   UNL     1       5.536   3.826  19.525  0.00  0.00    +0.000 NA
ATOM      5  C   UNL     1       5.661   5.144  19.312  0.00  0.00    +0.000 A 
ATOM      6  N   UNL     1       4.642   5.988  19.136  0.00  0.00    +0.000 NA
ATOM      7  C   UNL     1       3.419   5.431  19.117  0.00  0.00    +0.000 A 
ENDROOT
BRANCH   1   8
ATOM      8  C   UNL     1       1.812   3.458  18.974  0.00  0.00    +0.000 C 
BRANCH   8  10
ATOM      9  C   UNL     1       1.329   2.823  21.363  0.00  0.00    +0.000 C 
ATOM     10  C   UNL     1       0.845   3.611  20.150  0.00  0.00    +0.000 C 
ENDBRANCH   8  10
ENDBRANCH   1   8
BRANCH   5  11
ATOM     11  S   UNL     1       7.310   5.792  19.209  0.00  0.00    +0.000 S 
BRANCH  11  12
ATOM     12  C   UNL     1       7.333   6.264  17.445  0.00  0.00    +0.000 C 
BRANCH  12  13
ATOM     13  C   UNL     1       7.185   5.071  16.497  0.00  0.00    +0.000 C 
ATOM     14  O   UNL     1       7.975   4.121  16.503  0.00  0.00    +0.000 OA
BRANCH  13  15
ATOM     15  C   UNL     1       5.975   5.064  15.525  0.00  0.00    +0.000 C 
ATOM     16  C   UNL     1       6.428   4.777  14.089  0.00  0.00    +0.000 C 
ATOM     17  C   UNL     1       4.991   3.957  15.955  0.00  0.00    +0.000 C 
ATOM     18  C   UNL     1       5.238   6.409  15.583  0.00  0.00    +0.000 C 
ENDBRANCH  13  15
ENDBRANCH  12  13
ENDBRANCH  11  12
ENDBRANCH   5  11
BRANCH   7  19
ATOM     19  O   UNL     1       2.349   6.280  18.750  0.00  0.00    +0.000 OA
BRANCH  19  20
ATOM     20  C   UNL     1       1.913   7.215  19.691  0.00  0.00    +0.000 C 
ATOM     21  O   UNL     1       1.700   6.961  20.868  0.00  0.00    +0.000 OA
ATOM     22  N   UNL     1       1.660   8.463  19.113  0.00  0.00    +0.000 N 
ATOM     23  C   UNL     1       2.177   8.830  17.807  0.00  0.00    +0.000 C 
ATOM     24  C   UNL     1       1.162   9.553  19.934  0.00  0.00    +0.000 C 
ENDBRANCH  19  20
ENDBRANCH   7  19
TORSDOF 8
ENDMDL
MODEL 2
REMARK VINA RESULT:      -6.5      0.674      1.249
REMARK  Name = 
REMARK  15 active torsions:
REMARK  status: ('A' for Active; 'I' for Inactive)
REMARK    1  A    between atoms: C_1  and  C_2
REMARK    2  A    between atoms: C_2  and  C_3
REMARK    3  A    between atoms: C_3  and  C_4
REMARK    4  A    between atoms: C_5  and  C_6
REMARK    5  A    between atoms: C_8  and  S_9
REMARK    6  A    between atoms: S_9  and  C_10
REMARK    7  A    between atoms: C_10  and  C_11
REMARK    8  A    between atoms: C_11  and  C_13
REMARK    9  A    between atoms: C_13  and  C_14
REMARK   10  A    between atoms: C_13  and  C_15
REMARK   11  A    between atoms: C_13  and  C_16
REMARK   12  A    between atoms: C_18  and  O_19
REMARK   13  A    between atoms: O_19  and  C_20
REMARK   14  A    between atoms: N_22  and  C_23
REMARK   15  A    between atoms: N_22  and  C_24
REMARK                            x       y       z     vdW  Elec       q    Type
REMARK                         _______ _______ _______ _____ _____    ______ ____
ROOT
ATOM      1  C   UNL     1       3.215   4.542  19.537  0.00  0.00    +0.000 A 
ATOM      2  C   UNL     1       4.304   3.734  19.843  0.00  0.00    +0.000 A 
ATOM      3  C   UNL     1       4.202   2.298  20.266  0.00  0.00    +0.000 C 
ATOM      4  N   UNL     1       5.576   4.159  19.709  0.00  0.00    +0.000 NA
ATOM      5  C   UNL     1       5.775   5.410  19.269  0.00  0.00    +0.000 A 
ATOM      6  N   UNL     1       4.808   6.298  19.030  0.00  0.00    +0.000 NA
ATOM      7  C   UNL     1       3.552   5.851  19.198  0.00  0.00    +0.000 A 
ENDROOT
BRANCH   1   8
ATOM      8  C   UNL     1       1.801   4.025  19.511  0.00  0.00    +0.000 C 
BRANCH   8  10
ATOM      9  C   UNL     1       0.630   1.997  18.585  0.00  0.00    +0.000 C 
ATOM     10  C   UNL     1       1.443   3.242  18.246  0.00  0.00    +0.000 C 
ENDBRANCH   8  10
ENDBRANCH   1   8
BRANCH   5  11
ATOM     11  S   UNL     1       7.452   5.891  18.935  0.00  0.00    +0.000 S 
BRANCH  11  12
ATOM     12  C   UNL     1       7.308   6.241  17.147  0.00  0.00    +0.000 C 
BRANCH  12  13
ATOM     13  C   UNL     1       7.058   4.987  16.304  0.00  0.00    +0.000 C 
ATOM     14  O   UNL     1       7.855   4.043  16.273  0.00  0.00    +0.000 OA
BRANCH  13  15
ATOM     15  C   UNL     1       5.737   4.912  15.492  0.00  0.00    +0.000 C 
ATOM     16  C   UNL     1       4.729   3.979  16.173  0.00  0.00    +0.000 C 
ATOM     17  C   UNL     1       5.116   6.321  15.409  0.00  0.00    +0.000 C 
ATOM     18  C   UNL     1       6.017   4.426  14.064  0.00  0.00    +0.000 C 
ENDBRANCH  13  15
ENDBRANCH  12  13
ENDBRANCH  11  12
ENDBRANCH   5  11
BRANCH   7  19
ATOM     19  O   UNL     1       2.516   6.718  18.775  0.00  0.00    +0.000 OA
BRANCH  19  20
ATOM     20  C   UNL     1       1.985   7.599  19.719  0.00  0.00    +0.000 C 
ATOM     21  O   UNL     1       1.819   7.328  20.899  0.00  0.00    +0.000 OA
ATOM     22  N   UNL     1       1.577   8.806  19.140  0.00  0.00    +0.000 N 
ATOM     23  C   UNL     1       2.029   9.225  17.826  0.00  0.00    +0.000 C 
ATOM     24  C   UNL     1       0.963   9.832  19.964  0.00  0.00    +0.000 C 
ENDBRANCH  19  20
ENDBRANCH   7  19
TORSDOF 8
ENDMDL
MODEL 3
REMARK VINA RESULT:      -6.3      0.935      1.354
REMARK  Name = 
REMARK  15 active torsions:
REMARK  status: ('A' for Active; 'I' for Inactive)
REMARK    1  A    between atoms: C_1  and  C_2
REMARK    2  A    between atoms: C_2  and  C_3
REMARK    3  A    between atoms: C_3  and  C_4
REMARK    4  A    between atoms: C_5  and  C_6
REMARK    5  A    between atoms: C_8  and  S_9
REMARK    6  A    between atoms: S_9  and  C_10
REMARK    7  A    between atoms: C_10  and  C_11
REMARK    8  A    between atoms: C_11  and  C_13
REMARK    9  A    between atoms: C_13  and  C_14
REMARK   10  A    between atoms: C_13  and  C_15
REMARK   11  A    between atoms: C_13  and  C_16
REMARK   12  A    between atoms: C_18  and  O_19
REMARK   13  A    between atoms: O_19  and  C_20
REMARK   14  A    between atoms: N_22  and  C_23
REMARK   15  A    between atoms: N_22  and  C_24
REMARK                            x       y       z     vdW  Elec       q    Type
REMARK                         _______ _______ _______ _____ _____    ______ ____
ROOT
ATOM      1  C   UNL     1       2.982   4.385  18.723  0.00  0.00    +0.000 A 
ATOM      2  C   UNL     1       3.938   3.411  18.990  0.00  0.00    +0.000 A 
ATOM      3  C   UNL     1       3.676   1.934  18.960  0.00  0.00    +0.000 C 
ATOM      4  N   UNL     1       5.230   3.717  19.228  0.00  0.00    +0.000 NA
ATOM      5  C   UNL     1       5.581   5.011  19.207  0.00  0.00    +0.000 A 
ATOM      6  N   UNL     1       4.733   6.030  19.050  0.00  0.00    +0.000 NA
ATOM      7  C   UNL     1       3.449   5.693  18.841  0.00  0.00    +0.000 A 
ENDROOT
BRANCH   1   8
ATOM      8  C   UNL     1       1.582   4.050  18.282  0.00  0.00    +0.000 C 
BRANCH   8  10
ATOM      9  C   UNL     1       0.372   2.007  19.123  0.00  0.00    +0.000 C 
ATOM     10  C   UNL     1       0.696   3.473  19.388  0.00  0.00    +0.000 C 
ENDBRANCH   8  10
ENDBRANCH   1   8
BRANCH   5  11
ATOM     11  S   UNL     1       7.312   5.379  19.349  0.00  0.00    +0.000 S 
BRANCH  11  12
ATOM     12  C   UNL     1       7.867   4.835  17.695  0.00  0.00    +0.000 C 
BRANCH  12  13
ATOM     13  C   UNL     1       7.362   5.733  16.563  0.00  0.00    +0.000 C 
ATOM     14  O   UNL     1       7.708   6.914  16.452  0.00  0.00    +0.000 OA
BRANCH  13  15
ATOM     15  C   UNL     1       6.405   5.106  15.514  0.00  0.00    +0.000 C 
ATOM     16  C   UNL     1       5.140   5.956  15.349  0.00  0.00    +0.000 C 
ATOM     17  C   UNL     1       7.126   5.039  14.152  0.00  0.00    +0.000 C 
ATOM     18  C   UNL     1       6.026   3.678  15.926  0.00  0.00    +0.000 C 
ENDBRANCH  13  15
ENDBRANCH  12  13
ENDBRANCH  11  12
ENDBRANCH   5  11
BRANCH   7  19
ATOM     19  O   UNL     1       2.573   6.747  18.491  0.00  0.00    +0.000 OA
BRANCH  19  20
ATOM     20  C   UNL     1       1.987   7.472  19.531  0.00  0.00    +0.000 C 
ATOM     21  O   UNL     1       1.797   7.033  20.656  0.00  0.00    +0.000 OA
ATOM     22  N   UNL     1       1.557   8.736  19.113  0.00  0.00    +0.000 N 
ATOM     23  C   UNL     1       2.032   9.348  17.886  0.00  0.00    +0.000 C 
ATOM     24  C   UNL     1       0.887   9.619  20.052  0.00  0.00    +0.000 C 
ENDBRANCH  19  20
ENDBRANCH   7  19
TORSDOF 8
ENDMDL
MODEL 4
REMARK VINA RESULT:      -6.2      0.891      1.040
REMARK  Name = 
REMARK  15 active torsions:
REMARK  status: ('A' for Active; 'I' for Inactive)
REMARK    1  A    between atoms: C_1  and  C_2
REMARK    2  A    between atoms: C_2  and  C_3
REMARK    3  A    between atoms: C_3  and  C_4
REMARK    4  A    between atoms: C_5  and  C_6
REMARK    5  A    between atoms: C_8  and  S_9
REMARK    6  A    between atoms: S_9  and  C_10
REMARK    7  A    between atoms: C_10  and  C_11
REMARK    8  A    between atoms: C_11  and  C_13
REMARK    9  A    between atoms: C_13  and  C_14
REMARK   10  A    between atoms: C_13  and  C_15
REMARK   11  A    between atoms: C_13  and  C_16
REMARK   12  A    between atoms: C_18  and  O_19
REMARK   13  A    between atoms: O_19  and  C_20
REMARK   14  A    between atoms: N_22  and  C_23
REMARK   15  A    between atoms: N_22  and  C_24
REMARK                            x       y       z     vdW  Elec       q    Type
REMARK                         _______ _______ _______ _____ _____    ______ ____
ROOT
ATOM      1  C   UNL     1       3.129   4.533  19.682  0.00  0.00    +0.000 A 
ATOM      2  C   UNL     1       4.259   3.747  19.878  0.00  0.00    +0.000 A 
ATOM      3  C   UNL     1       4.235   2.343  20.408  0.00  0.00    +0.000 C 
ATOM      4  N   UNL     1       5.493   4.162  19.528  0.00  0.00    +0.000 NA
ATOM      5  C   UNL     1       5.613   5.379  18.979  0.00  0.00    +0.000 A 
ATOM      6  N   UNL     1       4.612   6.249  18.826  0.00  0.00    +0.000 NA
ATOM      7  C   UNL     1       3.399   5.816  19.209  0.00  0.00    +0.000 A 
ENDROOT
BRANCH   1   8
ATOM      8  C   UNL     1       1.732   4.016  19.902  0.00  0.00    +0.000 C 
BRANCH   8  10
ATOM      9  C   UNL     1       1.236   1.966  18.526  0.00  0.00    +0.000 C 
ATOM     10  C   UNL     1       1.057   3.476  18.639  0.00  0.00    +0.000 C 
ENDBRANCH   8  10
ENDBRANCH   1   8
BRANCH   5  11
ATOM     11  S   UNL     1       7.216   5.834  18.367  0.00  0.00    +0.000 S 
BRANCH  11  12
ATOM     12  C   UNL     1       7.454   4.500  17.141  0.00  0.00    +0.000 C 
BRANCH  12  13
ATOM     13  C   UNL     1       7.123   4.928  15.709  0.00  0.00    +0.000 C 
ATOM     14  O   UNL     1       7.981   5.360  14.933  0.00  0.00    +0.000 OA
BRANCH  13  15
ATOM     15  C   UNL     1       5.653   4.778  15.231  0.00  0.00    +0.000 C 
ATOM     16  C   UNL     1       5.598   4.252  13.792  0.00  0.00    +0.000 C 
ATOM     17  C   UNL     1       4.927   3.770  16.145  0.00  0.00    +0.000 C 
ATOM     18  C   UNL     1       4.923   6.124  15.325  0.00  0.00    +0.000 C 
ENDBRANCH  13  15
ENDBRANCH  12  13
ENDBRANCH  11  12
ENDBRANCH   5  11
BRANCH   7  19
ATOM     19  O   UNL     1       2.304   6.652  18.886  0.00  0.00    +0.000 OA
BRANCH  19  20
ATOM     20  C   UNL     1       1.931   7.618  19.822  0.00  0.00    +0.000 C 
ATOM     21  O   UNL     1       1.877   7.425  21.029  0.00  0.00    +0.000 OA
ATOM     22  N   UNL     1       1.535   8.814  19.213  0.00  0.00    +0.000 N 
ATOM     23  C   UNL     1       1.867   9.127  17.836  0.00  0.00    +0.000 C 
ATOM     24  C   UNL     1       1.077   9.924  20.030  0.00  0.00    +0.000 C 
ENDBRANCH  19  20
ENDBRANCH   7  19
TORSDOF 8
ENDMDL
MODEL 5
REMARK VINA RESULT:      -6.2      0.936      1.802
REMARK  Name = 
REMARK  15 active torsions:
REMARK  status: ('A' for Active; 'I' for Inactive)
REMARK    1  A    between atoms: C_1  and  C_2
REMARK    2  A    between atoms: C_2  and  C_3
REMARK    3  A    between atoms: C_3  and  C_4
REMARK    4  A    between atoms: C_5  and  C_6
REMARK    5  A    between atoms: C_8  and  S_9
REMARK    6  A    between atoms: S_9  and  C_10
REMARK    7  A    between atoms: C_10  and  C_11
REMARK    8  A    between atoms: C_11  and  C_13
REMARK    9  A    between atoms: C_13  and  C_14
REMARK   10  A    between atoms: C_13  and  C_15
REMARK   11  A    between atoms: C_13  and  C_16
REMARK   12  A    between atoms: C_18  and  O_19
REMARK   13  A    between atoms: O_19  and  C_20
REMARK   14  A    between atoms: N_22  and  C_23
REMARK   15  A    between atoms: N_22  and  C_24
REMARK                            x       y       z     vdW  Elec       q    Type
REMARK                         _______ _______ _______ _____ _____    ______ ____
ROOT
ATOM      1  C   UNL     1       3.093   4.136  19.825  0.00  0.00    +0.000 A 
ATOM      2  C   UNL     1       4.134   3.222  19.708  0.00  0.00    +0.000 A 
ATOM      3  C   UNL     1       3.956   1.732  19.681  0.00  0.00    +0.000 C 
ATOM      4  N   UNL     1       5.414   3.607  19.529  0.00  0.00    +0.000 NA
ATOM      5  C   UNL     1       5.669   4.922  19.469  0.00  0.00    +0.000 A 
ATOM      6  N   UNL     1       4.764   5.885  19.656  0.00  0.00    +0.000 NA
ATOM      7  C   UNL     1       3.503   5.468  19.859  0.00  0.00    +0.000 A 
ENDROOT
BRANCH   1   8
ATOM      8  C   UNL     1       1.646   3.721  19.847  0.00  0.00    +0.000 C 
BRANCH   8  10
ATOM      9  C   UNL     1       1.340   4.092  17.374  0.00  0.00    +0.000 C 
ATOM     10  C   UNL     1       1.146   3.118  18.532  0.00  0.00    +0.000 C 
ENDBRANCH   8  10
ENDBRANCH   1   8
BRANCH   5  11
ATOM     11  S   UNL     1       7.328   5.404  19.059  0.00  0.00    +0.000 S 
BRANCH  11  12
ATOM     12  C   UNL     1       7.504   4.529  17.465  0.00  0.00    +0.000 C 
BRANCH  12  13
ATOM     13  C   UNL     1       7.138   5.394  16.256  0.00  0.00    +0.000 C 
ATOM     14  O   UNL     1       7.788   6.396  15.940  0.00  0.00    +0.000 OA
BRANCH  13  15
ATOM     15  C   UNL     1       5.920   4.960  15.397  0.00  0.00    +0.000 C 
ATOM     16  C   UNL     1       5.031   3.976  16.167  0.00  0.00    +0.000 C 
ATOM     17  C   UNL     1       5.079   6.205  15.050  0.00  0.00    +0.000 C 
ATOM     18  C   UNL     1       6.395   4.321  14.086  0.00  0.00    +0.000 C 
ENDBRANCH  13  15
ENDBRANCH  12  13
ENDBRANCH  11  12
ENDBRANCH   5  11
BRANCH   7  19
ATOM     19  O   UNL     1       2.506   6.472  19.876  0.00  0.00    +0.000 OA
BRANCH  19  20
ATOM     20  C   UNL     1       2.435   7.332  18.779  0.00  0.00    +0.000 C 
ATOM     21  O   UNL     1       2.876   7.071  17.669  0.00  0.00    +0.000 OA
ATOM     22  N   UNL     1       1.880   8.571  19.118  0.00  0.00    +0.000 N 
ATOM     23  C   UNL     1       1.114   8.769  20.334  0.00  0.00    +0.000 C 
ATOM     24  C   UNL     1       1.762   9.610  18.109  0.00  0.00    +0.000 C 
ENDBRANCH  19  20
ENDBRANCH   7  19
TORSDOF 8
ENDMDL
MODEL 6
REMARK VINA RESULT:      -6.0      0.913      1.551
REMARK  Name = 
REMARK  15 active torsions:
REMARK  status: ('A' for Active; 'I' for Inactive)
REMARK    1  A    between atoms: C_1  and  C_2
REMARK    2  A    between atoms: C_2  and  C_3
REMARK    3  A    between atoms: C_3  and  C_4
REMARK    4  A    between atoms: C_5  and  C_6
REMARK    5  A    between atoms: C_8  and  S_9
REMARK    6  A    between atoms: S_9  and  C_10
REMARK    7  A    between atoms: C_10  and  C_11
REMARK    8  A    between atoms: C_11  and  C_13
REMARK    9  A    between atoms: C_13  and  C_14
REMARK   10  A    between atoms: C_13  and  C_15
REMARK   11  A    between atoms: C_13  and  C_16
REMARK   12  A    between atoms: C_18  and  O_19
REMARK   13  A    between atoms: O_19  and  C_20
REMARK   14  A    between atoms: N_22  and  C_23
REMARK   15  A    between atoms: N_22  and  C_24
REMARK                            x       y       z     vdW  Elec       q    Type
REMARK                         _______ _______ _______ _____ _____    ______ ____
ROOT
ATOM      1  C   UNL     1       3.214   4.267  19.687  0.00  0.00    +0.000 A 
ATOM      2  C   UNL     1       4.298   3.415  19.512  0.00  0.00    +0.000 A 
ATOM      3  C   UNL     1       4.222   1.918  19.584  0.00  0.00    +0.000 C 
ATOM      4  N   UNL     1       5.524   3.869  19.181  0.00  0.00    +0.000 NA
ATOM      5  C   UNL     1       5.681   5.192  19.025  0.00  0.00    +0.000 A 
ATOM      6  N   UNL     1       4.734   6.105  19.253  0.00  0.00    +0.000 NA
ATOM      7  C   UNL     1       3.531   5.622  19.607  0.00  0.00    +0.000 A 
ENDROOT
BRANCH   1   8
ATOM      8  C   UNL     1       1.808   3.763  19.880  0.00  0.00    +0.000 C 
BRANCH   8  10
ATOM      9  C   UNL     1       1.582   2.310  21.925  0.00  0.00    +0.000 C 
ATOM     10  C   UNL     1       1.358   3.701  21.342  0.00  0.00    +0.000 C 
ENDBRANCH   8  10
ENDBRANCH   1   8
BRANCH   5  11
ATOM     11  S   UNL     1       7.253   5.752  18.420  0.00  0.00    +0.000 S 
BRANCH  11  12
ATOM     12  C   UNL     1       7.530   4.504  17.115  0.00  0.00    +0.000 C 
BRANCH  12  13
ATOM     13  C   UNL     1       7.174   5.006  15.713  0.00  0.00    +0.000 C 
ATOM     14  O   UNL     1       8.013   5.511  14.960  0.00  0.00    +0.000 OA
BRANCH  13  15
ATOM     15  C   UNL     1       5.707   4.837  15.235  0.00  0.00    +0.000 C 
ATOM     16  C   UNL     1       4.942   6.162  15.336  0.00  0.00    +0.000 C 
ATOM     17  C   UNL     1       5.707   4.388  13.759  0.00  0.00    +0.000 C 
ATOM     18  C   UNL     1       4.998   3.758  16.064  0.00  0.00    +0.000 C 
ENDBRANCH  13  15
ENDBRANCH  12  13
ENDBRANCH  11  12
ENDBRANCH   5  11
BRANCH   7  19
ATOM     19  O   UNL     1       2.474   6.559  19.673  0.00  0.00    +0.000 OA
BRANCH  19  20
ATOM     20  C   UNL     1       2.356   7.476  18.626  0.00  0.00    +0.000 C 
ATOM     21  O   UNL     1       2.733   7.269  17.482  0.00  0.00    +0.000 OA
ATOM     22  N   UNL     1       1.836   8.701  19.058  0.00  0.00    +0.000 N 
ATOM     23  C   UNL     1       1.138   8.844  20.322  0.00  0.00    +0.000 C 
ATOM     24  C   UNL     1       1.677   9.792  18.112  0.00  0.00    +0.000 C 
ENDBRANCH  19  20
ENDBRANCH   7  19
TORSDOF 8
ENDMDL
MODEL 7
REMARK VINA RESULT:      -5.9      2.636      6.758
REMARK  Name = 
REMARK  15 active torsions:
REMARK  status: ('A' for Active; 'I' for Inactive)
REMARK    1  A    between atoms: C_1  and  C_2
REMARK    2  A    between atoms: C_2  and  C_3
REMARK    3  A    between atoms: C_3  and  C_4
REMARK    4  A    between atoms: C_5  and  C_6
REMARK    5  A    between atoms: C_8  and  S_9
REMARK    6  A    between atoms: S_9  and  C_10
REMARK    7  A    between atoms: C_10  and  C_11
REMARK    8  A    between atoms: C_11  and  C_13
REMARK    9  A    between atoms: C_13  and  C_14
REMARK   10  A    between atoms: C_13  and  C_15
REMARK   11  A    between atoms: C_13  and  C_16
REMARK   12  A    between atoms: C_18  and  O_19
REMARK   13  A    between atoms: O_19  and  C_20
REMARK   14  A    between atoms: N_22  and  C_23
REMARK   15  A    between atoms: N_22  and  C_24
REMARK                            x       y       z     vdW  Elec       q    Type
REMARK                         _______ _______ _______ _____ _____    ______ ____
ROOT
ATOM      1  C   UNL     1       3.799   5.871  18.939  0.00  0.00    +0.000 A 
ATOM      2  C   UNL     1       2.558   6.201  19.472  0.00  0.00    +0.000 A 
ATOM      3  C   UNL     1       1.840   5.396  20.515  0.00  0.00    +0.000 C 
ATOM      4  N   UNL     1       1.915   7.341  19.145  0.00  0.00    +0.000 NA
ATOM      5  C   UNL     1       2.509   8.166  18.270  0.00  0.00    +0.000 A 
ATOM      6  N   UNL     1       3.653   7.907  17.632  0.00  0.00    +0.000 NA
ATOM      7  C   UNL     1       4.256   6.752  17.961  0.00  0.00    +0.000 A 
ENDROOT
BRANCH   1   8
ATOM      8  C   UNL     1       4.606   4.697  19.428  0.00  0.00    +0.000 C 
BRANCH   8  10
ATOM      9  C   UNL     1       4.243   2.229  19.778  0.00  0.00    +0.000 C 
ATOM     10  C   UNL     1       4.246   3.367  18.762  0.00  0.00    +0.000 C 
ENDBRANCH   8  10
ENDBRANCH   1   8
BRANCH   5  11
ATOM     11  S   UNL     1       1.731   9.736  17.986  0.00  0.00    +0.000 S 
BRANCH  11  12
ATOM     12  C   UNL     1       0.358   9.607  19.185  0.00  0.00    +0.000 C 
BRANCH  12  13
ATOM     13  C   UNL     1       0.628  10.350  20.496  0.00  0.00    +0.000 C 
ATOM     14  O   UNL     1       1.108  11.489  20.523  0.00  0.00    +0.000 OA
BRANCH  13  15
ATOM     15  C   UNL     1       0.250   9.639  21.823  0.00  0.00    +0.000 C 
ATOM     16  C   UNL     1      -0.571   8.373  21.550  0.00  0.00    +0.000 C 
ATOM     17  C   UNL     1       1.541   9.231  22.561  0.00  0.00    +0.000 C 
ATOM     18  C   UNL     1      -0.540  10.590  22.730  0.00  0.00    +0.000 C 
ENDBRANCH  13  15
ENDBRANCH  12  13
ENDBRANCH  11  12
ENDBRANCH   5  11
BRANCH   7  19
ATOM     19  O   UNL     1       5.553   6.550  17.435  0.00  0.00    +0.000 OA
BRANCH  19  20
ATOM     20  C   UNL     1       5.654   6.134  16.105  0.00  0.00    +0.000 C 
ATOM     21  O   UNL     1       5.075   6.668  15.170  0.00  0.00    +0.000 OA
ATOM     22  N   UNL     1       6.426   4.975  15.975  0.00  0.00    +0.000 N 
ATOM     23  C   UNL     1       7.326   4.523  17.020  0.00  0.00    +0.000 C 
ATOM     24  C   UNL     1       6.611   4.373  14.666  0.00  0.00    +0.000 C 
ENDBRANCH  19  20
ENDBRANCH   7  19
TORSDOF 8
ENDMDL
MODEL 8
REMARK VINA RESULT:      -5.7      2.808      7.126
REMARK  Name = 
REMARK  15 active torsions:
REMARK  status: ('A' for Active; 'I' for Inactive)
REMARK    1  A    between atoms: C_1  and  C_2
REMARK    2  A    between atoms: C_2  and  C_3
REMARK    3  A    between atoms: C_3  and  C_4
REMARK    4  A    between atoms: C_5  and  C_6
REMARK    5  A    between atoms: C_8  and  S_9
REMARK    6  A    between atoms: S_9  and  C_10
REMARK    7  A    between atoms: C_10  and  C_11
REMARK    8  A    between atoms: C_11  and  C_13
REMARK    9  A    between atoms: C_13  and  C_14
REMARK   10  A    between atoms: C_13  and  C_15
REMARK   11  A    between atoms: C_13  and  C_16
REMARK   12  A    between atoms: C_18  and  O_19
REMARK   13  A    between atoms: O_19  and  C_20
REMARK   14  A    between atoms: N_22  and  C_23
REMARK   15  A    between atoms: N_22  and  C_24
REMARK                            x       y       z     vdW  Elec       q    Type
REMARK                         _______ _______ _______ _____ _____    ______ ____
ROOT
ATOM      1  C   UNL     1       3.900   5.704  18.962  0.00  0.00    +0.000 A 
ATOM      2  C   UNL     1       2.656   5.949  19.534  0.00  0.00    +0.000 A 
ATOM      3  C   UNL     1       2.019   5.086  20.582  0.00  0.00    +0.000 C 
ATOM      4  N   UNL     1       1.935   7.051  19.243  0.00  0.00    +0.000 NA
ATOM      5  C   UNL     1       2.452   7.924  18.365  0.00  0.00    +0.000 A 
ATOM      6  N   UNL     1       3.591   7.746  17.693  0.00  0.00    +0.000 NA
ATOM      7  C   UNL     1       4.273   6.626  17.987  0.00  0.00    +0.000 A 
ENDROOT
BRANCH   1   8
ATOM      8  C   UNL     1       4.791   4.576  19.410  0.00  0.00    +0.000 C 
BRANCH   8  10
ATOM      9  C   UNL     1       3.917   3.080  17.582  0.00  0.00    +0.000 C 
ATOM     10  C   UNL     1       4.262   3.182  19.064  0.00  0.00    +0.000 C 
ENDBRANCH   8  10
ENDBRANCH   1   8
BRANCH   5  11
ATOM     11  S   UNL     1       1.570   9.447  18.129  0.00  0.00    +0.000 S 
BRANCH  11  12
ATOM     12  C   UNL     1       0.824   9.617  19.787  0.00  0.00    +0.000 C 
BRANCH  12  13
ATOM     13  C   UNL     1      -0.461  10.450  19.789  0.00  0.00    +0.000 C 
ATOM     14  O   UNL     1      -1.373  10.259  18.978  0.00  0.00    +0.000 OA
BRANCH  13  15
ATOM     15  C   UNL     1      -0.611  11.547  20.877  0.00  0.00    +0.000 C 
ATOM     16  C   UNL     1      -0.764  10.920  22.269  0.00  0.00    +0.000 C 
ATOM     17  C   UNL     1       0.653  12.430  20.879  0.00  0.00    +0.000 C 
ATOM     18  C   UNL     1      -1.820  12.440  20.570  0.00  0.00    +0.000 C 
ENDBRANCH  13  15
ENDBRANCH  12  13
ENDBRANCH  11  12
ENDBRANCH   5  11
BRANCH   7  19
ATOM     19  O   UNL     1       5.566   6.513  17.422  0.00  0.00    +0.000 OA
BRANCH  19  20
ATOM     20  C   UNL     1       5.654   6.133  16.081  0.00  0.00    +0.000 C 
ATOM     21  O   UNL     1       5.067   6.691  15.166  0.00  0.00    +0.000 OA
ATOM     22  N   UNL     1       6.425   4.977  15.914  0.00  0.00    +0.000 N 
ATOM     23  C   UNL     1       7.333   4.497  16.939  0.00  0.00    +0.000 C 
ATOM     24  C   UNL     1       6.597   4.410  14.588  0.00  0.00    +0.000 C 
ENDBRANCH  19  20
ENDBRANCH   7  19
TORSDOF 8
ENDMDL
MODEL 9
REMARK VINA RESULT:      -5.7      2.870      6.970
REMARK  Name = 
REMARK  15 active torsions:
REMARK  status: ('A' for Active; 'I' for Inactive)
REMARK    1  A    between atoms: C_1  and  C_2
REMARK    2  A    between atoms: C_2  and  C_3
REMARK    3  A    between atoms: C_3  and  C_4
REMARK    4  A    between atoms: C_5  and  C_6
REMARK    5  A    between atoms: C_8  and  S_9
REMARK    6  A    between atoms: S_9  and  C_10
REMARK    7  A    between atoms: C_10  and  C_11
REMARK    8  A    between atoms: C_11  and  C_13
REMARK    9  A    between atoms: C_13  and  C_14
REMARK   10  A    between atoms: C_13  and  C_15
REMARK   11  A    between atoms: C_13  and  C_16
REMARK   12  A    between atoms: C_18  and  O_19
REMARK   13  A    between atoms: O_19  and  C_20
REMARK   14  A    between atoms: N_22  and  C_23
REMARK   15  A    between atoms: N_22  and  C_24
REMARK                            x       y       z     vdW  Elec       q    Type
REMARK                         _______ _______ _______ _____ _____    ______ ____
ROOT
ATOM      1  C   UNL     1       3.878   5.768  18.933  0.00  0.00    +0.000 A 
ATOM      2  C   UNL     1       2.634   6.080  19.471  0.00  0.00    +0.000 A 
ATOM      3  C   UNL     1       1.937   5.269  20.524  0.00  0.00    +0.000 C 
ATOM      4  N   UNL     1       1.969   7.205  19.140  0.00  0.00    +0.000 NA
ATOM      5  C   UNL     1       2.542   8.035  18.256  0.00  0.00    +0.000 A 
ATOM      6  N   UNL     1       3.687   7.793  17.614  0.00  0.00    +0.000 NA
ATOM      7  C   UNL     1       4.312   6.651  17.947  0.00  0.00    +0.000 A 
ENDROOT
BRANCH   1   8
ATOM      8  C   UNL     1       4.709   4.612  19.425  0.00  0.00    +0.000 C 
BRANCH   8  10
ATOM      9  C   UNL     1       3.895   3.134  17.555  0.00  0.00    +0.000 C 
ATOM     10  C   UNL     1       4.151   3.236  19.055  0.00  0.00    +0.000 C 
ENDBRANCH   8  10
ENDBRANCH   1   8
BRANCH   5  11
ATOM     11  S   UNL     1       1.734   9.589  17.967  0.00  0.00    +0.000 S 
BRANCH  11  12
ATOM     12  C   UNL     1       0.697   9.667  19.469  0.00  0.00    +0.000 C 
BRANCH  12  13
ATOM     13  C   UNL     1       0.320  11.095  19.870  0.00  0.00    +0.000 C 
ATOM     14  O   UNL     1       1.021  11.776  20.625  0.00  0.00    +0.000 OA
BRANCH  13  15
ATOM     15  C   UNL     1      -0.979  11.697  19.269  0.00  0.00    +0.000 C 
ATOM     16  C   UNL     1      -1.773  10.632  18.504  0.00  0.00    +0.000 C 
ATOM     17  C   UNL     1      -1.863  12.232  20.414  0.00  0.00    +0.000 C 
ATOM     18  C   UNL     1      -0.641  12.868  18.337  0.00  0.00    +0.000 C 
ENDBRANCH  13  15
ENDBRANCH  12  13
ENDBRANCH  11  12
ENDBRANCH   5  11
BRANCH   7  19
ATOM     19  O   UNL     1       5.610   6.469  17.414  0.00  0.00    +0.000 OA
BRANCH  19  20
ATOM     20  C   UNL     1       5.711   6.096  16.072  0.00  0.00    +0.000 C 
ATOM     21  O   UNL     1       5.129   6.657  15.155  0.00  0.00    +0.000 OA
ATOM     22  N   UNL     1       6.490   4.945  15.904  0.00  0.00    +0.000 N 
ATOM     23  C   UNL     1       7.392   4.464  16.933  0.00  0.00    +0.000 C 
ATOM     24  C   UNL     1       6.675   4.387  14.576  0.00  0.00    +0.000 C 
ENDBRANCH  19  20
ENDBRANCH   7  19
TORSDOF 8
ENDMDL
