MODEL 1
REMARK VINA RESULT:      -7.0      0.000      0.000
REMARK  Name = 
REMARK  6 active torsions:
REMARK  status: ('A' for Active; 'I' for Inactive)
REMARK    1  A    between atoms: C_1  and  O_2
REMARK    2  A    between atoms: O_2  and  C_3
REMARK    3  A    between atoms: C_5  and  N_6
REMARK    4  A    between atoms: N_9  and  C_10
REMARK    5  A    between atoms: C_14  and  C_15
REMARK    6  A    between atoms: C_19  and  C_20
REMARK                            x       y       z     vdW  Elec       q    Type
REMARK                         _______ _______ _______ _____ _____    ______ ____
ROOT
ATOM      1  N   UNL     1       7.136   8.449  17.054  0.00  0.00    +0.000 N 
ATOM      2  C   UNL     1       8.025   8.855  18.021  0.00  0.00    +0.000 C 
ATOM      3  N   UNL     1       8.473   8.103  18.975  0.00  0.00    +0.000 NA
ATOM      4  N   UNL     1       8.413  10.162  17.839  0.00  0.00    +0.000 N 
ATOM      5  H   UNL     1       7.394   8.740  16.122  0.00  0.00    +0.000 HD
ATOM      6  H   UNL     1       8.097   7.160  18.884  0.00  0.00    +0.000 HD
ATOM      7  H   UNL     1       7.663  10.794  17.593  0.00  0.00    +0.000 HD
ENDROOT
BRANCH   4   8
ATOM      8  C   UNL     1       9.474  10.774  18.542  0.00  0.00    +0.000 A 
ATOM      9  C   UNL     1      10.750  10.874  17.975  0.00  0.00    +0.000 A 
ATOM     10  C   UNL     1      11.784  11.526  18.661  0.00  0.00    +0.000 A 
ATOM     11  C   UNL     1      11.554  12.081  19.922  0.00  0.00    +0.000 A 
ATOM     12  C   UNL     1      10.296  11.980  20.512  0.00  0.00    +0.000 A 
ATOM     13  C   UNL     1       9.984  12.595  21.842  0.00  0.00    +0.000 C 
ATOM     14  C   UNL     1       9.279  11.313  19.821  0.00  0.00    +0.000 A 
ENDBRANCH   4   8
BRANCH   1  17
ATOM     15  C   UNL     1       6.071   4.889  16.629  0.00  0.00    +0.000 A 
ATOM     16  C   UNL     1       6.757   6.108  16.450  0.00  0.00    +0.000 A 
ATOM     17  C   UNL     1       6.360   7.273  17.116  0.00  0.00    +0.000 A 
ATOM     18  C   UNL     1       5.207   7.222  17.905  0.00  0.00    +0.000 A 
ATOM     19  C   UNL     1       4.525   6.023  18.092  0.00  0.00    +0.000 A 
ATOM     20  C   UNL     1       4.951   4.831  17.486  0.00  0.00    +0.000 A 
BRANCH  20  21
ATOM     21  C   UNL     1       4.246   3.591  17.825  0.00  0.00    +0.000 A 
ATOM     22  C   UNL     1       4.345   2.593  18.774  0.00  0.00    +0.000 A 
ATOM     23  N   UNL     1       3.326   1.680  18.626  0.00  0.00    +0.000 NA
ATOM     24  C   UNL     1       2.650   2.146  17.603  0.00  0.00    +0.000 A 
ATOM     25  O   UNL     1       3.141   3.290  17.061  0.00  0.00    +0.000 OA
ENDBRANCH  20  21
BRANCH  15  27
ATOM     26  C   UNL     1       6.241   3.697  14.567  0.00  0.00    +0.000 C 
ATOM     27  O   UNL     1       6.428   3.733  15.978  0.00  0.00    +0.000 OA
ENDBRANCH  15  27
ENDBRANCH   1  17
TORSDOF 4
ENDMDL
MODEL 2
REMARK VINA RESULT:      -7.0      1.619      2.119
REMARK  Name = 
REMARK  6 active torsions:
REMARK  status: ('A' for Active; 'I' for Inactive)
REMARK    1  A    between atoms: C_1  and  O_2
REMARK    2  A    between atoms: O_2  and  C_3
REMARK    3  A    between atoms: C_5  and  N_6
REMARK    4  A    between atoms: N_9  and  C_10
REMARK    5  A    between atoms: C_14  and  C_15
REMARK    6  A    between atoms: C_19  and  C_20
REMARK                            x       y       z     vdW  Elec       q    Type
REMARK                         _______ _______ _______ _____ _____    ______ ____
ROOT
ATOM      1  N   UNL     1       7.860   8.572  17.404  0.00  0.00    +0.000 N 
ATOM      2  C   UNL     1       8.580   9.337  18.290  0.00  0.00    +0.000 C 
ATOM      3  N   UNL     1       8.842   9.001  19.512  0.00  0.00    +0.000 NA
ATOM      4  N   UNL     1       9.021  10.505  17.712  0.00  0.00    +0.000 N 
ATOM      5  H   UNL     1       8.280   8.517  16.485  0.00  0.00    +0.000 HD
ATOM      6  H   UNL     1       8.467   8.074  19.709  0.00  0.00    +0.000 HD
ATOM      7  H   UNL     1       8.339  10.972  17.132  0.00  0.00    +0.000 HD
ENDROOT
BRANCH   4   8
ATOM      8  C   UNL     1       9.961  11.373  18.311  0.00  0.00    +0.000 A 
ATOM      9  C   UNL     1      11.239  11.538  17.765  0.00  0.00    +0.000 A 
ATOM     10  C   UNL     1      12.146  12.438  18.339  0.00  0.00    +0.000 A 
ATOM     11  C   UNL     1      11.787  13.182  19.465  0.00  0.00    +0.000 A 
ATOM     12  C   UNL     1      10.525  13.024  20.034  0.00  0.00    +0.000 A 
ATOM     13  C   UNL     1      10.072  13.827  21.215  0.00  0.00    +0.000 C 
ATOM     14  C   UNL     1       9.636  12.109  19.459  0.00  0.00    +0.000 A 
ENDBRANCH   4   8
BRANCH   1  17
ATOM     15  C   UNL     1       4.905   6.301  17.714  0.00  0.00    +0.000 A 
ATOM     16  C   UNL     1       5.684   7.457  17.502  0.00  0.00    +0.000 A 
ATOM     17  C   UNL     1       7.060   7.467  17.758  0.00  0.00    +0.000 A 
ATOM     18  C   UNL     1       7.635   6.320  18.313  0.00  0.00    +0.000 A 
ATOM     19  C   UNL     1       6.877   5.171  18.521  0.00  0.00    +0.000 A 
ATOM     20  C   UNL     1       5.511   5.124  18.205  0.00  0.00    +0.000 A 
BRANCH  20  21
ATOM     21  C   UNL     1       4.810   3.844  18.346  0.00  0.00    +0.000 A 
ATOM     22  C   UNL     1       4.043   3.013  17.555  0.00  0.00    +0.000 A 
ATOM     23  N   UNL     1       3.698   1.871  18.242  0.00  0.00    +0.000 NA
ATOM     24  C   UNL     1       4.257   2.044  19.415  0.00  0.00    +0.000 A 
ATOM     25  O   UNL     1       4.941   3.208  19.561  0.00  0.00    +0.000 OA
ENDBRANCH  20  21
BRANCH  15  27
ATOM     26  C   UNL     1       2.716   6.956  18.410  0.00  0.00    +0.000 C 
ATOM     27  O   UNL     1       3.550   6.265  17.485  0.00  0.00    +0.000 OA
ENDBRANCH  15  27
ENDBRANCH   1  17
TORSDOF 4
ENDMDL
MODEL 3
REMARK VINA RESULT:      -6.9      3.921      9.679
REMARK  Name = 
REMARK  6 active torsions:
REMARK  status: ('A' for Active; 'I' for Inactive)
REMARK    1  A    between atoms: C_1  and  O_2
REMARK    2  A    between atoms: O_2  and  C_3
REMARK    3  A    between atoms: C_5  and  N_6
REMARK    4  A    between atoms: N_9  and  C_10
REMARK    5  A    between atoms: C_14  and  C_15
REMARK    6  A    between atoms: C_19  and  C_20
REMARK                            x       y       z     vdW  Elec       q    Type
REMARK                         _______ _______ _______ _____ _____    ______ ____
ROOT
ATOM      1  N   UNL     1       8.942   8.593  18.953  0.00  0.00    +0.000 N 
ATOM      2  C   UNL     1       7.936   8.072  18.174  0.00  0.00    +0.000 C 
ATOM      3  N   UNL     1       7.322   8.716  17.233  0.00  0.00    +0.000 NA
ATOM      4  N   UNL     1       7.673   6.760  18.492  0.00  0.00    +0.000 N 
ATOM      5  H   UNL     1       9.728   7.967  19.067  0.00  0.00    +0.000 HD
ATOM      6  H   UNL     1       7.716   9.652  17.133  0.00  0.00    +0.000 HD
ATOM      7  H   UNL     1       7.652   6.564  19.483  0.00  0.00    +0.000 HD
ENDROOT
BRANCH   4   8
ATOM      8  C   UNL     1       6.851   5.912  17.717  0.00  0.00    +0.000 A 
ATOM      9  C   UNL     1       7.388   5.139  16.681  0.00  0.00    +0.000 A 
ATOM     10  C   UNL     1       6.573   4.264  15.951  0.00  0.00    +0.000 A 
ATOM     11  C   UNL     1       5.212   4.154  16.246  0.00  0.00    +0.000 A 
ATOM     12  C   UNL     1       4.653   4.925  17.264  0.00  0.00    +0.000 A 
ATOM     13  C   UNL     1       3.210   4.815  17.651  0.00  0.00    +0.000 C 
ATOM     14  C   UNL     1       5.477   5.805  17.974  0.00  0.00    +0.000 A 
ENDBRANCH   4   8
BRANCH   1  17
ATOM     15  C   UNL     1       9.780  11.929  20.420  0.00  0.00    +0.000 A 
ATOM     16  C   UNL     1       9.321  10.601  20.298  0.00  0.00    +0.000 A 
ATOM     17  C   UNL     1       9.255   9.964  19.054  0.00  0.00    +0.000 A 
ATOM     18  C   UNL     1       9.578  10.706  17.914  0.00  0.00    +0.000 A 
ATOM     19  C   UNL     1      10.036  12.017  18.023  0.00  0.00    +0.000 A 
ATOM     20  C   UNL     1      10.174  12.646  19.270  0.00  0.00    +0.000 A 
BRANCH  20  21
ATOM     21  C   UNL     1      10.772  13.985  19.308  0.00  0.00    +0.000 A 
ATOM     22  C   UNL     1      12.006  14.538  19.582  0.00  0.00    +0.000 A 
ATOM     23  N   UNL     1      11.982  15.900  19.384  0.00  0.00    +0.000 NA
ATOM     24  C   UNL     1      10.747  16.128  19.004  0.00  0.00    +0.000 A 
ATOM     25  O   UNL     1       9.954  15.028  18.936  0.00  0.00    +0.000 OA
ENDBRANCH  20  21
BRANCH  15  27
ATOM     26  C   UNL     1       8.777  12.365  22.543  0.00  0.00    +0.000 C 
ATOM     27  O   UNL     1       9.843  12.586  21.625  0.00  0.00    +0.000 OA
ENDBRANCH  15  27
ENDBRANCH   1  17
TORSDOF 4
ENDMDL
MODEL 4
REMARK VINA RESULT:      -6.8      3.907      9.741
REMARK  Name = 
REMARK  6 active torsions:
REMARK  status: ('A' for Active; 'I' for Inactive)
REMARK    1  A    between atoms: C_1  and  O_2
REMARK    2  A    between atoms: O_2  and  C_3
REMARK    3  A    between atoms: C_5  and  N_6
REMARK    4  A    between atoms: N_9  and  C_10
REMARK    5  A    between atoms: C_14  and  C_15
REMARK    6  A    between atoms: C_19  and  C_20
REMARK                            x       y       z     vdW  Elec       q    Type
REMARK                         _______ _______ _______ _____ _____    ______ ____
ROOT
ATOM      1  N   UNL     1       8.938   8.592  18.863  0.00  0.00    +0.000 N 
ATOM      2  C   UNL     1       7.885   8.077  18.145  0.00  0.00    +0.000 C 
ATOM      3  N   UNL     1       7.175   8.746  17.293  0.00  0.00    +0.000 NA
ATOM      4  N   UNL     1       7.687   6.743  18.415  0.00  0.00    +0.000 N 
ATOM      5  H   UNL     1       9.748   7.987  18.879  0.00  0.00    +0.000 HD
ATOM      6  H   UNL     1       7.532   9.697  17.210  0.00  0.00    +0.000 HD
ATOM      7  H   UNL     1       7.756   6.497  19.393  0.00  0.00    +0.000 HD
ENDROOT
BRANCH   4   8
ATOM      8  C   UNL     1       6.827   5.907  17.669  0.00  0.00    +0.000 A 
ATOM      9  C   UNL     1       5.619   5.451  18.208  0.00  0.00    +0.000 A 
ATOM     10  C   UNL     1       4.750   4.663  17.442  0.00  0.00    +0.000 A 
ATOM     11  C   UNL     1       5.082   4.319  16.129  0.00  0.00    +0.000 A 
ATOM     12  C   UNL     1       6.286   4.749  15.576  0.00  0.00    +0.000 A 
ATOM     13  C   UNL     1       6.672   4.446  14.160  0.00  0.00    +0.000 C 
ATOM     14  C   UNL     1       7.150   5.523  16.360  0.00  0.00    +0.000 A 
ENDBRANCH   4   8
BRANCH   1  17
ATOM     15  C   UNL     1       9.751  11.886  20.434  0.00  0.00    +0.000 A 
ATOM     16  C   UNL     1       9.323  10.552  20.275  0.00  0.00    +0.000 A 
ATOM     17  C   UNL     1       9.219   9.965  19.009  0.00  0.00    +0.000 A 
ATOM     18  C   UNL     1       9.471  10.763  17.889  0.00  0.00    +0.000 A 
ATOM     19  C   UNL     1       9.900  12.080  18.034  0.00  0.00    +0.000 A 
ATOM     20  C   UNL     1      10.076  12.661  19.299  0.00  0.00    +0.000 A 
BRANCH  20  21
ATOM     21  C   UNL     1      10.639  14.013  19.369  0.00  0.00    +0.000 A 
ATOM     22  C   UNL     1      11.854  14.593  19.674  0.00  0.00    +0.000 A 
ATOM     23  N   UNL     1      11.799  15.957  19.497  0.00  0.00    +0.000 NA
ATOM     24  C   UNL     1      10.566  16.159  19.097  0.00  0.00    +0.000 A 
ATOM     25  O   UNL     1       9.802  15.042  18.998  0.00  0.00    +0.000 OA
ENDBRANCH  20  21
BRANCH  15  27
ATOM     26  C   UNL     1       8.635  12.889  22.292  0.00  0.00    +0.000 C 
ATOM     27  O   UNL     1       9.850  12.495  21.662  0.00  0.00    +0.000 OA
ENDBRANCH  15  27
ENDBRANCH   1  17
TORSDOF 4
ENDMDL
MODEL 5
REMARK VINA RESULT:      -6.8      3.849      9.400
REMARK  Name = 
REMARK  6 active torsions:
REMARK  status: ('A' for Active; 'I' for Inactive)
REMARK    1  A    between atoms: C_1  and  O_2
REMARK    2  A    between atoms: O_2  and  C_3
REMARK    3  A    between atoms: C_5  and  N_6
REMARK    4  A    between atoms: N_9  and  C_10
REMARK    5  A    between atoms: C_14  and  C_15
REMARK    6  A    between atoms: C_19  and  C_20
REMARK                            x       y       z     vdW  Elec       q    Type
REMARK                         _______ _______ _______ _____ _____    ______ ____
ROOT
ATOM      1  N   UNL     1       9.012   8.677  18.945  0.00  0.00    +0.000 N 
ATOM      2  C   UNL     1       7.976   8.199  18.179  0.00  0.00    +0.000 C 
ATOM      3  N   UNL     1       7.304   8.902  17.324  0.00  0.00    +0.000 NA
ATOM      4  N   UNL     1       7.751   6.861  18.405  0.00  0.00    +0.000 N 
ATOM      5  H   UNL     1       9.813   8.060  18.971  0.00  0.00    +0.000 HD
ATOM      6  H   UNL     1       7.677   9.850  17.279  0.00  0.00    +0.000 HD
ATOM      7  H   UNL     1       7.784   6.587  19.377  0.00  0.00    +0.000 HD
ENDROOT
BRANCH   4   8
ATOM      8  C   UNL     1       6.905   6.059  17.608  0.00  0.00    +0.000 A 
ATOM      9  C   UNL     1       7.398   5.386  16.485  0.00  0.00    +0.000 A 
ATOM     10  C   UNL     1       6.561   4.554  15.729  0.00  0.00    +0.000 A 
ATOM     11  C   UNL     1       5.221   4.389  16.086  0.00  0.00    +0.000 A 
ATOM     12  C   UNL     1       4.704   5.061  17.192  0.00  0.00    +0.000 A 
ATOM     13  C   UNL     1       3.287   4.886  17.645  0.00  0.00    +0.000 C 
ATOM     14  C   UNL     1       5.549   5.899  17.927  0.00  0.00    +0.000 A 
ENDBRANCH   4   8
BRANCH   1  17
ATOM     15  C   UNL     1       9.801  12.261  18.224  0.00  0.00    +0.000 A 
ATOM     16  C   UNL     1       9.653  10.868  18.063  0.00  0.00    +0.000 A 
ATOM     17  C   UNL     1       9.308  10.042  19.139  0.00  0.00    +0.000 A 
ATOM     18  C   UNL     1       9.193  10.622  20.406  0.00  0.00    +0.000 A 
ATOM     19  C   UNL     1       9.333  11.997  20.576  0.00  0.00    +0.000 A 
ATOM     20  C   UNL     1       9.611  12.847  19.495  0.00  0.00    +0.000 A 
BRANCH  20  21
ATOM     21  C   UNL     1       9.629  14.293  19.737  0.00  0.00    +0.000 A 
ATOM     22  C   UNL     1      10.521  15.232  20.213  0.00  0.00    +0.000 A 
ATOM     23  N   UNL     1       9.977  16.495  20.148  0.00  0.00    +0.000 NA
ATOM     24  C   UNL     1       8.785  16.284  19.643  0.00  0.00    +0.000 A 
ATOM     25  O   UNL     1       8.496  14.986  19.371  0.00  0.00    +0.000 OA
ENDBRANCH  20  21
BRANCH  15  27
ATOM     26  C   UNL     1      11.541  13.204  16.887  0.00  0.00    +0.000 C 
ATOM     27  O   UNL     1      10.153  13.096  17.191  0.00  0.00    +0.000 OA
ENDBRANCH  15  27
ENDBRANCH   1  17
TORSDOF 4
ENDMDL
MODEL 6
REMARK VINA RESULT:      -6.8      0.583      1.383
REMARK  Name = 
REMARK  6 active torsions:
REMARK  status: ('A' for Active; 'I' for Inactive)
REMARK    1  A    between atoms: C_1  and  O_2
REMARK    2  A    between atoms: O_2  and  C_3
REMARK    3  A    between atoms: C_5  and  N_6
REMARK    4  A    between atoms: N_9  and  C_10
REMARK    5  A    between atoms: C_14  and  C_15
REMARK    6  A    between atoms: C_19  and  C_20
REMARK                            x       y       z     vdW  Elec       q    Type
REMARK                         _______ _______ _______ _____ _____    ______ ____
ROOT
ATOM      1  N   UNL     1       6.951   8.362  16.958  0.00  0.00    +0.000 N 
ATOM      2  C   UNL     1       7.854   8.775  17.909  0.00  0.00    +0.000 C 
ATOM      3  N   UNL     1       8.340   8.020  18.842  0.00  0.00    +0.000 NA
ATOM      4  N   UNL     1       8.210  10.092  17.736  0.00  0.00    +0.000 N 
ATOM      5  H   UNL     1       7.181   8.672  16.023  0.00  0.00    +0.000 HD
ATOM      6  H   UNL     1       7.981   7.070  18.747  0.00  0.00    +0.000 HD
ATOM      7  H   UNL     1       7.442  10.711  17.516  0.00  0.00    +0.000 HD
ENDROOT
BRANCH   4   8
ATOM      8  C   UNL     1       9.275  10.716  18.423  0.00  0.00    +0.000 A 
ATOM      9  C   UNL     1       9.433  10.556  19.804  0.00  0.00    +0.000 A 
ATOM     10  C   UNL     1      10.521  11.139  20.467  0.00  0.00    +0.000 A 
ATOM     11  C   UNL     1      11.460  11.892  19.758  0.00  0.00    +0.000 A 
ATOM     12  C   UNL     1      11.314  12.077  18.385  0.00  0.00    +0.000 A 
ATOM     13  C   UNL     1      12.314  12.838  17.568  0.00  0.00    +0.000 C 
ATOM     14  C   UNL     1      10.214  11.501  17.739  0.00  0.00    +0.000 A 
ENDBRANCH   4   8
BRANCH   1  17
ATOM     15  C   UNL     1       5.958   4.784  16.521  0.00  0.00    +0.000 A 
ATOM     16  C   UNL     1       6.616   6.018  16.342  0.00  0.00    +0.000 A 
ATOM     17  C   UNL     1       6.202   7.170  17.021  0.00  0.00    +0.000 A 
ATOM     18  C   UNL     1       5.060   7.089  17.824  0.00  0.00    +0.000 A 
ATOM     19  C   UNL     1       4.406   5.874  18.011  0.00  0.00    +0.000 A 
ATOM     20  C   UNL     1       4.850   4.696  17.393  0.00  0.00    +0.000 A 
BRANCH  20  21
ATOM     21  C   UNL     1       4.177   3.438  17.732  0.00  0.00    +0.000 A 
ATOM     22  C   UNL     1       4.466   2.291  18.443  0.00  0.00    +0.000 A 
ATOM     23  N   UNL     1       3.378   1.449  18.468  0.00  0.00    +0.000 NA
ATOM     24  C   UNL     1       2.475   2.102  17.778  0.00  0.00    +0.000 A 
ATOM     25  O   UNL     1       2.877   3.306  17.296  0.00  0.00    +0.000 OA
ENDBRANCH  20  21
BRANCH  15  27
ATOM     26  C   UNL     1       6.195   3.634  14.442  0.00  0.00    +0.000 C 
ATOM     27  O   UNL     1       6.332   3.639  15.859  0.00  0.00    +0.000 OA
ENDBRANCH  15  27
ENDBRANCH   1  17
TORSDOF 4
ENDMDL
MODEL 7
REMARK VINA RESULT:      -6.7      7.595     10.509
REMARK  Name = 
REMARK  6 active torsions:
REMARK  status: ('A' for Active; 'I' for Inactive)
REMARK    1  A    between atoms: C_1  and  O_2
REMARK    2  A    between atoms: O_2  and  C_3
REMARK    3  A    between atoms: C_5  and  N_6
REMARK    4  A    between atoms: N_9  and  C_10
REMARK    5  A    between atoms: C_14  and  C_15
REMARK    6  A    between atoms: C_19  and  C_20
REMARK                            x       y       z     vdW  Elec       q    Type
REMARK                         _______ _______ _______ _____ _____    ______ ____
ROOT
ATOM      1  N   UNL     1       1.694   8.247  21.628  0.00  0.00    +0.000 N 
ATOM      2  C   UNL     1       1.843   7.722  20.366  0.00  0.00    +0.000 C 
ATOM      3  N   UNL     1       1.510   8.327  19.271  0.00  0.00    +0.000 NA
ATOM      4  N   UNL     1       2.423   6.475  20.398  0.00  0.00    +0.000 N 
ATOM      5  H   UNL     1       2.506   8.117  22.216  0.00  0.00    +0.000 HD
ATOM      6  H   UNL     1       1.153   9.260  19.479  0.00  0.00    +0.000 HD
ATOM      7  H   UNL     1       2.071   5.866  21.123  0.00  0.00    +0.000 HD
ENDROOT
BRANCH   4   8
ATOM      8  C   UNL     1       2.895   5.797  19.252  0.00  0.00    +0.000 A 
ATOM      9  C   UNL     1       3.854   6.378  18.415  0.00  0.00    +0.000 A 
ATOM     10  C   UNL     1       4.351   5.677  17.309  0.00  0.00    +0.000 A 
ATOM     11  C   UNL     1       3.893   4.388  17.025  0.00  0.00    +0.000 A 
ATOM     12  C   UNL     1       2.928   3.795  17.837  0.00  0.00    +0.000 A 
ATOM     13  C   UNL     1       2.434   2.400  17.605  0.00  0.00    +0.000 C 
ATOM     14  C   UNL     1       2.431   4.514  18.929  0.00  0.00    +0.000 A 
ENDBRANCH   4   8
BRANCH   1  17
ATOM     15  C   UNL     1       0.082  11.613  21.401  0.00  0.00    +0.000 A 
ATOM     16  C   UNL     1       0.974  10.543  21.186  0.00  0.00    +0.000 A 
ATOM     17  C   UNL     1       0.903   9.370  21.945  0.00  0.00    +0.000 A 
ATOM     18  C   UNL     1      -0.027   9.313  22.987  0.00  0.00    +0.000 A 
ATOM     19  C   UNL     1      -0.917  10.362  23.206  0.00  0.00    +0.000 A 
ATOM     20  C   UNL     1      -0.903  11.516  22.409  0.00  0.00    +0.000 A 
BRANCH  20  21
ATOM     21  C   UNL     1      -1.946  12.523  22.630  0.00  0.00    +0.000 A 
ATOM     22  C   UNL     1      -3.184  12.835  22.106  0.00  0.00    +0.000 A 
ATOM     23  N   UNL     1      -3.746  13.893  22.784  0.00  0.00    +0.000 NA
ATOM     24  C   UNL     1      -2.840  14.189  23.685  0.00  0.00    +0.000 A 
ATOM     25  O   UNL     1      -1.725  13.414  23.656  0.00  0.00    +0.000 OA
ENDBRANCH  20  21
BRANCH  15  27
ATOM     26  C   UNL     1       1.187  13.691  20.996  0.00  0.00    +0.000 C 
ATOM     27  O   UNL     1       0.135  12.783  20.683  0.00  0.00    +0.000 OA
ENDBRANCH  15  27
ENDBRANCH   1  17
TORSDOF 4
ENDMDL
MODEL 8
REMARK VINA RESULT:      -6.7      7.372     10.129
REMARK  Name = 
REMARK  6 active torsions:
REMARK  status: ('A' for Active; 'I' for Inactive)
REMARK    1  A    between atoms: C_1  and  O_2
REMARK    2  A    between atoms: O_2  and  C_3
REMARK    3  A    between atoms: C_5  and  N_6
REMARK    4  A    between atoms: N_9  and  C_10
REMARK    5  A    between atoms: C_14  and  C_15
REMARK    6  A    between atoms: C_19  and  C_20
REMARK                            x       y       z     vdW  Elec       q    Type
REMARK                         _______ _______ _______ _____ _____    ______ ____
ROOT
ATOM      1  N   UNL     1       1.503   7.896  21.574  0.00  0.00    +0.000 N 
ATOM      2  C   UNL     1       1.875   7.381  20.355  0.00  0.00    +0.000 C 
ATOM      3  N   UNL     1       1.838   8.032  19.236  0.00  0.00    +0.000 NA
ATOM      4  N   UNL     1       2.327   6.087  20.465  0.00  0.00    +0.000 N 
ATOM      5  H   UNL     1       2.156   7.684  22.316  0.00  0.00    +0.000 HD
ATOM      6  H   UNL     1       1.525   8.989  19.397  0.00  0.00    +0.000 HD
ATOM      7  H   UNL     1       1.778   5.500  21.076  0.00  0.00    +0.000 HD
ENDROOT
BRANCH   4   8
ATOM      8  C   UNL     1       2.975   5.388  19.423  0.00  0.00    +0.000 A 
ATOM      9  C   UNL     1       2.246   4.618  18.510  0.00  0.00    +0.000 A 
ATOM     10  C   UNL     1       2.893   3.968  17.450  0.00  0.00    +0.000 A 
ATOM     11  C   UNL     1       4.277   4.078  17.294  0.00  0.00    +0.000 A 
ATOM     12  C   UNL     1       5.025   4.827  18.200  0.00  0.00    +0.000 A 
ATOM     13  C   UNL     1       6.505   5.014  18.055  0.00  0.00    +0.000 C 
ATOM     14  C   UNL     1       4.366   5.458  19.261  0.00  0.00    +0.000 A 
ENDBRANCH   4   8
BRANCH   1  17
ATOM     15  C   UNL     1      -0.218  11.136  20.849  0.00  0.00    +0.000 A 
ATOM     16  C   UNL     1       0.644  10.026  20.730  0.00  0.00    +0.000 A 
ATOM     17  C   UNL     1       0.760   9.080  21.755  0.00  0.00    +0.000 A 
ATOM     18  C   UNL     1       0.060   9.306  22.944  0.00  0.00    +0.000 A 
ATOM     19  C   UNL     1      -0.797  10.396  23.071  0.00  0.00    +0.000 A 
ATOM     20  C   UNL     1      -0.977  11.315  22.026  0.00  0.00    +0.000 A 
BRANCH  20  21
ATOM     21  C   UNL     1      -1.982  12.369  22.196  0.00  0.00    +0.000 A 
ATOM     22  C   UNL     1      -3.206  12.702  21.651  0.00  0.00    +0.000 A 
ATOM     23  N   UNL     1      -3.731  13.810  22.278  0.00  0.00    +0.000 NA
ATOM     24  C   UNL     1      -2.819  14.111  23.171  0.00  0.00    +0.000 A 
ATOM     25  O   UNL     1      -1.734  13.295  23.184  0.00  0.00    +0.000 OA
ENDBRANCH  20  21
BRANCH  15  27
ATOM     26  C   UNL     1      -0.801  11.651  18.591  0.00  0.00    +0.000 C 
ATOM     27  O   UNL     1      -0.343  12.089  19.867  0.00  0.00    +0.000 OA
ENDBRANCH  15  27
ENDBRANCH   1  17
TORSDOF 4
ENDMDL
MODEL 9
REMARK VINA RESULT:      -6.7      5.120      7.489
REMARK  Name = 
REMARK  6 active torsions:
REMARK  status: ('A' for Active; 'I' for Inactive)
REMARK    1  A    between atoms: C_1  and  O_2
REMARK    2  A    between atoms: O_2  and  C_3
REMARK    3  A    between atoms: C_5  and  N_6
REMARK    4  A    between atoms: N_9  and  C_10
REMARK    5  A    between atoms: C_14  and  C_15
REMARK    6  A    between atoms: C_19  and  C_20
REMARK                            x       y       z     vdW  Elec       q    Type
REMARK                         _______ _______ _______ _____ _____    ______ ____
ROOT
ATOM      1  N   UNL     1       2.258   7.575  18.993  0.00  0.00    +0.000 N 
ATOM      2  C   UNL     1       1.690   8.793  18.706  0.00  0.00    +0.000 C 
ATOM      3  N   UNL     1       1.705   9.359  17.541  0.00  0.00    +0.000 NA
ATOM      4  N   UNL     1       1.069   9.338  19.806  0.00  0.00    +0.000 N 
ATOM      5  H   UNL     1       1.663   6.974  19.547  0.00  0.00    +0.000 HD
ATOM      6  H   UNL     1       2.168   8.754  16.863  0.00  0.00    +0.000 HD
ATOM      7  H   UNL     1       1.588   9.252  20.668  0.00  0.00    +0.000 HD
ENDROOT
BRANCH   4   8
ATOM      8  C   UNL     1       0.221  10.467  19.753  0.00  0.00    +0.000 A 
ATOM      9  C   UNL     1       0.611  11.686  20.317  0.00  0.00    +0.000 A 
ATOM     10  C   UNL     1      -0.216  12.813  20.216  0.00  0.00    +0.000 A 
ATOM     11  C   UNL     1      -1.444  12.732  19.553  0.00  0.00    +0.000 A 
ATOM     12  C   UNL     1      -1.858  11.523  18.997  0.00  0.00    +0.000 A 
ATOM     13  C   UNL     1      -3.143  11.390  18.238  0.00  0.00    +0.000 C 
ATOM     14  C   UNL     1      -1.027  10.404  19.119  0.00  0.00    +0.000 A 
ENDBRANCH   4   8
BRANCH   1  17
ATOM     15  C   UNL     1       3.981   4.835  17.121  0.00  0.00    +0.000 A 
ATOM     16  C   UNL     1       3.167   5.506  18.057  0.00  0.00    +0.000 A 
ATOM     17  C   UNL     1       3.180   6.901  18.166  0.00  0.00    +0.000 A 
ATOM     18  C   UNL     1       4.086   7.617  17.379  0.00  0.00    +0.000 A 
ATOM     19  C   UNL     1       4.891   6.966  16.448  0.00  0.00    +0.000 A 
ATOM     20  C   UNL     1       4.840   5.574  16.277  0.00  0.00    +0.000 A 
BRANCH  20  21
ATOM     21  C   UNL     1       5.634   4.978  15.198  0.00  0.00    +0.000 A 
ATOM     22  C   UNL     1       5.466   4.011  14.228  0.00  0.00    +0.000 A 
ATOM     23  N   UNL     1       6.583   3.926  13.429  0.00  0.00    +0.000 NA
ATOM     24  C   UNL     1       7.386   4.830  13.935  0.00  0.00    +0.000 A 
ATOM     25  O   UNL     1       6.892   5.505  15.005  0.00  0.00    +0.000 OA
ENDBRANCH  20  21
BRANCH  15  27
ATOM     26  C   UNL     1       3.379   2.712  18.033  0.00  0.00    +0.000 C 
ATOM     27  O   UNL     1       4.002   3.467  16.999  0.00  0.00    +0.000 OA
ENDBRANCH  15  27
ENDBRANCH   1  17
TORSDOF 4
ENDMDL
