MODEL 1
REMARK VINA RESULT:      -7.8      0.000      0.000
REMARK  Name = 
REMARK  14 active torsions:
REMARK  status: ('A' for Active; 'I' for Inactive)
REMARK    1  A    between atoms: C_1  and  O_2
REMARK    2  A    between atoms: O_2  and  C_3
REMARK    3  A    between atoms: C_4  and  N_5
REMARK    4  A    between atoms: N_5  and  S_6
REMARK    5  A    between atoms: S_6  and  C_7
REMARK    6  A    between atoms: C_16  and  N_17
REMARK    7  A    between atoms: N_17  and  C_18
REMARK    8  A    between atoms: C_18  and  N_20
REMARK    9  A    between atoms: N_20  and  C_21
REMARK   10  A    between atoms: C_21  and  C_22
REMARK   11  A    between atoms: C_25  and  C_26
REMARK   12  A    between atoms: C_26  and  C_27
REMARK   13  A    between atoms: C_26  and  C_28
REMARK   14  A    between atoms: C_26  and  C_29
REMARK                            x       y       z     vdW  Elec       q    Type
REMARK                         _______ _______ _______ _____ _____    ______ ____
ROOT
ATOM      1  C   UNL     1       4.307   4.383  19.171  0.00  0.00    +0.000 A 
ATOM      2  C   UNL     1       4.790   4.856  17.928  0.00  0.00    +0.000 A 
ATOM      3  C   UNL     1       4.236   5.975  17.292  0.00  0.00    +0.000 A 
ATOM      4  C   UNL     1       3.146   6.626  17.855  0.00  0.00    +0.000 A 
ATOM      5  C   UNL     1       2.648   6.154  19.062  0.00  0.00    +0.000 A 
ATOM      6  C   UNL     1       3.212   5.038  19.728  0.00  0.00    +0.000 A 
ATOM      7  C   UNL     1       2.501   4.848  21.037  0.00  0.00    +0.000 C 
ATOM      8  C   UNL     1       1.189   5.604  20.804  0.00  0.00    +0.000 C 
ATOM      9  C   UNL     1       1.520   6.755  19.846  0.00  0.00    +0.000 C 
ENDROOT
BRANCH   1  11
ATOM     10  C   UNL     1       4.374   2.066  19.778  0.00  0.00    +0.000 C 
ATOM     11  O   UNL     1       5.007   3.325  19.678  0.00  0.00    +0.000 OA
ENDBRANCH   1  11
BRANCH   2  12
ATOM     12  N   UNL     1       5.795   4.124  17.211  0.00  0.00    +0.000 N 
ATOM     13  H   UNL     1       6.112   3.311  17.746  0.00  0.00    +0.000 HD
BRANCH  12  14
ATOM     14  S   UNL     1       7.184   4.939  16.703  0.00  0.00    +0.000 S 
ATOM     15  C   UNL     1       7.084   4.711  14.944  0.00  0.00    +0.000 C 
ATOM     16  O   UNL     1       7.108   6.355  16.992  0.00  0.00    +0.000 OA
ATOM     17  O   UNL     1       8.292   4.130  17.171  0.00  0.00    +0.000 OA
ENDBRANCH  12  14
ENDBRANCH   2  12
BRANCH   9  18
ATOM     18  N   UNL     1       1.776   8.000  20.570  0.00  0.00    +0.000 N 
ATOM     19  H   UNL     1       2.754   8.244  20.596  0.00  0.00    +0.000 HD
BRANCH  18  20
ATOM     20  C   UNL     1       0.948   9.016  20.941  0.00  0.00    +0.000 C 
ATOM     21  S   UNL     1      -0.221   9.028  22.125  0.00  0.00    +0.000 S 
BRANCH  20  22
ATOM     22  N   UNL     1       1.156  10.198  20.298  0.00  0.00    +0.000 N 
ATOM     23  H   UNL     1       1.261  10.986  20.926  0.00  0.00    +0.000 HD
BRANCH  22  24
ATOM     24  C   UNL     1       0.835  10.525  18.923  0.00  0.00    +0.000 C 
BRANCH  24  25
ATOM     25  C   UNL     1      -0.625  10.819  18.729  0.00  0.00    +0.000 A 
ATOM     26  C   UNL     1      -1.409  10.084  17.832  0.00  0.00    +0.000 A 
ATOM     27  C   UNL     1      -2.778  10.352  17.696  0.00  0.00    +0.000 A 
ATOM     28  C   UNL     1      -3.406  11.348  18.456  0.00  0.00    +0.000 A 
ATOM     29  C   UNL     1      -2.607  12.069  19.363  0.00  0.00    +0.000 A 
ATOM     30  C   UNL     1      -1.241  11.804  19.504  0.00  0.00    +0.000 A 
BRANCH  28  31
ATOM     31  C   UNL     1      -4.910  11.645  18.338  0.00  0.00    +0.000 C 
ATOM     32  C   UNL     1      -5.315  12.217  16.961  0.00  0.00    +0.000 C 
ATOM     33  C   UNL     1      -5.708  10.340  18.549  0.00  0.00    +0.000 C 
ATOM     34  C   UNL     1      -5.335  12.677  19.403  0.00  0.00    +0.000 C 
ENDBRANCH  28  31
ENDBRANCH  24  25
ENDBRANCH  22  24
ENDBRANCH  20  22
ENDBRANCH  18  20
ENDBRANCH   9  18
TORSDOF 9
ENDMDL
MODEL 2
REMARK VINA RESULT:      -7.7      2.694      4.424
REMARK  Name = 
REMARK  14 active torsions:
REMARK  status: ('A' for Active; 'I' for Inactive)
REMARK    1  A    between atoms: C_1  and  O_2
REMARK    2  A    between atoms: O_2  and  C_3
REMARK    3  A    between atoms: C_4  and  N_5
REMARK    4  A    between atoms: N_5  and  S_6
REMARK    5  A    between atoms: S_6  and  C_7
REMARK    6  A    between atoms: C_16  and  N_17
REMARK    7  A    between atoms: N_17  and  C_18
REMARK    8  A    between atoms: C_18  and  N_20
REMARK    9  A    between atoms: N_20  and  C_21
REMARK   10  A    between atoms: C_21  and  C_22
REMARK   11  A    between atoms: C_25  and  C_26
REMARK   12  A    between atoms: C_26  and  C_27
REMARK   13  A    between atoms: C_26  and  C_28
REMARK   14  A    between atoms: C_26  and  C_29
REMARK                            x       y       z     vdW  Elec       q    Type
REMARK                         _______ _______ _______ _____ _____    ______ ____
ROOT
ATOM      1  C   UNL     1       4.394   4.265  19.198  0.00  0.00    +0.000 A 
ATOM      2  C   UNL     1       4.934   4.884  18.046  0.00  0.00    +0.000 A 
ATOM      3  C   UNL     1       4.413   6.077  17.529  0.00  0.00    +0.000 A 
ATOM      4  C   UNL     1       3.299   6.663  18.119  0.00  0.00    +0.000 A 
ATOM      5  C   UNL     1       2.747   6.050  19.235  0.00  0.00    +0.000 A 
ATOM      6  C   UNL     1       3.277   4.855  19.783  0.00  0.00    +0.000 A 
ATOM      7  C   UNL     1       2.507   4.511  21.025  0.00  0.00    +0.000 C 
ATOM      8  C   UNL     1       1.209   5.301  20.829  0.00  0.00    +0.000 C 
ATOM      9  C   UNL     1       1.586   6.559  20.037  0.00  0.00    +0.000 C 
ENDROOT
BRANCH   1  11
ATOM     10  C   UNL     1       4.362   1.929  19.735  0.00  0.00    +0.000 C 
ATOM     11  O   UNL     1       5.068   3.147  19.602  0.00  0.00    +0.000 OA
ENDBRANCH   1  11
BRANCH   2  12
ATOM     12  N   UNL     1       5.968   4.236  17.289  0.00  0.00    +0.000 N 
ATOM     13  H   UNL     1       6.119   3.278  17.615  0.00  0.00    +0.000 HD
BRANCH  12  14
ATOM     14  S   UNL     1       7.489   4.965  17.210  0.00  0.00    +0.000 S 
ATOM     15  C   UNL     1       7.410   6.064  18.604  0.00  0.00    +0.000 C 
ATOM     16  O   UNL     1       8.553   4.009  17.434  0.00  0.00    +0.000 OA
ATOM     17  O   UNL     1       7.453   5.791  16.019  0.00  0.00    +0.000 OA
ENDBRANCH  12  14
ENDBRANCH   2  12
BRANCH   9  18
ATOM     18  N   UNL     1       1.812   7.703  20.919  0.00  0.00    +0.000 N 
ATOM     19  H   UNL     1       2.766   7.766  21.241  0.00  0.00    +0.000 HD
BRANCH  18  20
ATOM     20  C   UNL     1       1.083   8.833  21.140  0.00  0.00    +0.000 C 
ATOM     21  S   UNL     1       0.449   9.400  22.569  0.00  0.00    +0.000 S 
BRANCH  20  22
ATOM     22  N   UNL     1       0.911   9.633  20.053  0.00  0.00    +0.000 N 
ATOM     23  H   UNL     1       1.623   9.508  19.342  0.00  0.00    +0.000 HD
BRANCH  22  24
ATOM     24  C   UNL     1       0.147  10.861  19.971  0.00  0.00    +0.000 C 
BRANCH  24  25
ATOM     25  C   UNL     1       1.003  12.047  19.628  0.00  0.00    +0.000 A 
ATOM     26  C   UNL     1       1.072  13.170  20.462  0.00  0.00    +0.000 A 
ATOM     27  C   UNL     1       1.907  14.248  20.140  0.00  0.00    +0.000 A 
ATOM     28  C   UNL     1       2.704  14.234  18.988  0.00  0.00    +0.000 A 
ATOM     29  C   UNL     1       2.635  13.094  18.167  0.00  0.00    +0.000 A 
ATOM     30  C   UNL     1       1.805  12.014  18.485  0.00  0.00    +0.000 A 
BRANCH  28  31
ATOM     31  C   UNL     1       3.643  15.397  18.626  0.00  0.00    +0.000 C 
ATOM     32  C   UNL     1       2.968  16.481  17.757  0.00  0.00    +0.000 C 
ATOM     33  C   UNL     1       4.133  16.082  19.920  0.00  0.00    +0.000 C 
ATOM     34  C   UNL     1       4.862  14.873  17.837  0.00  0.00    +0.000 C 
ENDBRANCH  28  31
ENDBRANCH  24  25
ENDBRANCH  22  24
ENDBRANCH  20  22
ENDBRANCH  18  20
ENDBRANCH   9  18
TORSDOF 9
ENDMDL
MODEL 3
REMARK VINA RESULT:      -7.6      2.628      4.323
REMARK  Name = 
REMARK  14 active torsions:
REMARK  status: ('A' for Active; 'I' for Inactive)
REMARK    1  A    between atoms: C_1  and  O_2
REMARK    2  A    between atoms: O_2  and  C_3
REMARK    3  A    between atoms: C_4  and  N_5
REMARK    4  A    between atoms: N_5  and  S_6
REMARK    5  A    between atoms: S_6  and  C_7
REMARK    6  A    between atoms: C_16  and  N_17
REMARK    7  A    between atoms: N_17  and  C_18
REMARK    8  A    between atoms: C_18  and  N_20
REMARK    9  A    between atoms: N_20  and  C_21
REMARK   10  A    between atoms: C_21  and  C_22
REMARK   11  A    between atoms: C_25  and  C_26
REMARK   12  A    between atoms: C_26  and  C_27
REMARK   13  A    between atoms: C_26  and  C_28
REMARK   14  A    between atoms: C_26  and  C_29
REMARK                            x       y       z     vdW  Elec       q    Type
REMARK                         _______ _______ _______ _____ _____    ______ ____
ROOT
ATOM      1  C   UNL     1       4.321   4.188  18.989  0.00  0.00    +0.000 A 
ATOM      2  C   UNL     1       4.745   4.797  17.785  0.00  0.00    +0.000 A 
ATOM      3  C   UNL     1       4.166   5.979  17.305  0.00  0.00    +0.000 A 
ATOM      4  C   UNL     1       3.107   6.562  17.989  0.00  0.00    +0.000 A 
ATOM      5  C   UNL     1       2.667   5.958  19.159  0.00  0.00    +0.000 A 
ATOM      6  C   UNL     1       3.258   4.775  19.668  0.00  0.00    +0.000 A 
ATOM      7  C   UNL     1       2.610   4.440  20.981  0.00  0.00    +0.000 C 
ATOM      8  C   UNL     1       1.292   5.216  20.898  0.00  0.00    +0.000 C 
ATOM      9  C   UNL     1       1.580   6.467  20.059  0.00  0.00    +0.000 C 
ENDROOT
BRANCH   1  11
ATOM     10  C   UNL     1       4.368   1.851  19.520  0.00  0.00    +0.000 C 
ATOM     11  O   UNL     1       5.041   3.081  19.341  0.00  0.00    +0.000 OA
ENDBRANCH   1  11
BRANCH   2  12
ATOM     12  N   UNL     1       5.711   4.149  16.942  0.00  0.00    +0.000 N 
ATOM     13  H   UNL     1       6.042   3.277  17.363  0.00  0.00    +0.000 HD
BRANCH  12  14
ATOM     14  S   UNL     1       7.086   5.012  16.476  0.00  0.00    +0.000 S 
ATOM     15  C   UNL     1       7.052   4.774  14.716  0.00  0.00    +0.000 C 
ATOM     16  O   UNL     1       6.951   6.425  16.756  0.00  0.00    +0.000 OA
ATOM     17  O   UNL     1       8.206   4.244  16.984  0.00  0.00    +0.000 OA
ENDBRANCH  12  14
ENDBRANCH   2  12
BRANCH   9  18
ATOM     18  N   UNL     1       1.876   7.624  20.903  0.00  0.00    +0.000 N 
ATOM     19  H   UNL     1       2.848   7.677  21.167  0.00  0.00    +0.000 HD
BRANCH  18  20
ATOM     20  C   UNL     1       1.180   8.770  21.143  0.00  0.00    +0.000 C 
ATOM     21  S   UNL     1       0.713   9.419  22.602  0.00  0.00    +0.000 S 
BRANCH  20  22
ATOM     22  N   UNL     1       0.887   9.512  20.041  0.00  0.00    +0.000 N 
ATOM     23  H   UNL     1       1.430   9.254  19.224  0.00  0.00    +0.000 HD
BRANCH  22  24
ATOM     24  C   UNL     1       0.258  10.817  19.994  0.00  0.00    +0.000 C 
BRANCH  24  25
ATOM     25  C   UNL     1       1.224  11.905  19.621  0.00  0.00    +0.000 A 
ATOM     26  C   UNL     1       1.905  11.895  18.398  0.00  0.00    +0.000 A 
ATOM     27  C   UNL     1       2.773  12.942  18.056  0.00  0.00    +0.000 A 
ATOM     28  C   UNL     1       2.977  14.030  18.915  0.00  0.00    +0.000 A 
ATOM     29  C   UNL     1       2.275  14.032  20.135  0.00  0.00    +0.000 A 
ATOM     30  C   UNL     1       1.406  12.992  20.479  0.00  0.00    +0.000 A 
BRANCH  28  31
ATOM     31  C   UNL     1       3.908  15.199  18.552  0.00  0.00    +0.000 C 
ATOM     32  C   UNL     1       3.278  16.195  17.552  0.00  0.00    +0.000 C 
ATOM     33  C   UNL     1       4.260  15.990  19.830  0.00  0.00    +0.000 C 
ATOM     34  C   UNL     1       5.206  14.668  17.910  0.00  0.00    +0.000 C 
ENDBRANCH  28  31
ENDBRANCH  24  25
ENDBRANCH  22  24
ENDBRANCH  20  22
ENDBRANCH  18  20
ENDBRANCH   9  18
TORSDOF 9
ENDMDL
MODEL 4
REMARK VINA RESULT:      -7.6      0.924      1.379
REMARK  Name = 
REMARK  14 active torsions:
REMARK  status: ('A' for Active; 'I' for Inactive)
REMARK    1  A    between atoms: C_1  and  O_2
REMARK    2  A    between atoms: O_2  and  C_3
REMARK    3  A    between atoms: C_4  and  N_5
REMARK    4  A    between atoms: N_5  and  S_6
REMARK    5  A    between atoms: S_6  and  C_7
REMARK    6  A    between atoms: C_16  and  N_17
REMARK    7  A    between atoms: N_17  and  C_18
REMARK    8  A    between atoms: C_18  and  N_20
REMARK    9  A    between atoms: N_20  and  C_21
REMARK   10  A    between atoms: C_21  and  C_22
REMARK   11  A    between atoms: C_25  and  C_26
REMARK   12  A    between atoms: C_26  and  C_27
REMARK   13  A    between atoms: C_26  and  C_28
REMARK   14  A    between atoms: C_26  and  C_29
REMARK                            x       y       z     vdW  Elec       q    Type
REMARK                         _______ _______ _______ _____ _____    ______ ____
ROOT
ATOM      1  C   UNL     1       4.083   5.017  18.752  0.00  0.00    +0.000 A 
ATOM      2  C   UNL     1       4.447   5.736  17.589  0.00  0.00    +0.000 A 
ATOM      3  C   UNL     1       3.821   6.938  17.231  0.00  0.00    +0.000 A 
ATOM      4  C   UNL     1       2.774   7.432  17.998  0.00  0.00    +0.000 A 
ATOM      5  C   UNL     1       2.392   6.721  19.127  0.00  0.00    +0.000 A 
ATOM      6  C   UNL     1       3.031   5.517  19.515  0.00  0.00    +0.000 A 
ATOM      7  C   UNL     1       2.441   5.055  20.816  0.00  0.00    +0.000 C 
ATOM      8  C   UNL     1       1.101   5.799  20.845  0.00  0.00    +0.000 C 
ATOM      9  C   UNL     1       1.327   7.122  20.104  0.00  0.00    +0.000 C 
ENDROOT
BRANCH   1  11
ATOM     10  C   UNL     1       4.227   2.634  18.952  0.00  0.00    +0.000 C 
ATOM     11  O   UNL     1       4.842   3.906  18.984  0.00  0.00    +0.000 OA
ENDBRANCH   1  11
BRANCH   2  12
ATOM     12  N   UNL     1       5.397   5.188  16.662  0.00  0.00    +0.000 N 
ATOM     13  H   UNL     1       5.498   4.179  16.791  0.00  0.00    +0.000 HD
BRANCH  12  14
ATOM     14  S   UNL     1       6.958   5.830  16.629  0.00  0.00    +0.000 S 
ATOM     15  C   UNL     1       7.740   4.879  17.910  0.00  0.00    +0.000 C 
ATOM     16  O   UNL     1       7.624   5.553  15.374  0.00  0.00    +0.000 OA
ATOM     17  O   UNL     1       6.824   7.183  17.132  0.00  0.00    +0.000 OA
ENDBRANCH  12  14
ENDBRANCH   2  12
BRANCH   9  18
ATOM     18  N   UNL     1       1.625   8.213  21.032  0.00  0.00    +0.000 N 
ATOM     19  H   UNL     1       2.599   8.250  21.293  0.00  0.00    +0.000 HD
BRANCH  18  20
ATOM     20  C   UNL     1       0.927   9.334  21.364  0.00  0.00    +0.000 C 
ATOM     21  S   UNL     1       0.059   9.649  22.748  0.00  0.00    +0.000 S 
BRANCH  20  22
ATOM     22  N   UNL     1       1.007  10.354  20.467  0.00  0.00    +0.000 N 
ATOM     23  H   UNL     1       1.115  11.264  20.899  0.00  0.00    +0.000 HD
BRANCH  22  24
ATOM     24  C   UNL     1       0.554  10.360  19.090  0.00  0.00    +0.000 C 
BRANCH  24  25
ATOM     25  C   UNL     1      -0.895  10.735  18.965  0.00  0.00    +0.000 A 
ATOM     26  C   UNL     1      -1.451  11.779  19.715  0.00  0.00    +0.000 A 
ATOM     27  C   UNL     1      -2.796  12.135  19.553  0.00  0.00    +0.000 A 
ATOM     28  C   UNL     1      -3.621  11.473  18.635  0.00  0.00    +0.000 A 
ATOM     29  C   UNL     1      -3.045  10.435  17.879  0.00  0.00    +0.000 A 
ATOM     30  C   UNL     1      -1.702  10.077  18.034  0.00  0.00    +0.000 A 
BRANCH  28  31
ATOM     31  C   UNL     1      -5.094  11.860  18.426  0.00  0.00    +0.000 C 
ATOM     32  C   UNL     1      -5.395  12.378  17.000  0.00  0.00    +0.000 C 
ATOM     33  C   UNL     1      -5.989  10.625  18.665  0.00  0.00    +0.000 C 
ATOM     34  C   UNL     1      -5.497  12.977  19.411  0.00  0.00    +0.000 C 
ENDBRANCH  28  31
ENDBRANCH  24  25
ENDBRANCH  22  24
ENDBRANCH  20  22
ENDBRANCH  18  20
ENDBRANCH   9  18
TORSDOF 9
ENDMDL
MODEL 5
REMARK VINA RESULT:      -7.5      2.806      4.690
REMARK  Name = 
REMARK  14 active torsions:
REMARK  status: ('A' for Active; 'I' for Inactive)
REMARK    1  A    between atoms: C_1  and  O_2
REMARK    2  A    between atoms: O_2  and  C_3
REMARK    3  A    between atoms: C_4  and  N_5
REMARK    4  A    between atoms: N_5  and  S_6
REMARK    5  A    between atoms: S_6  and  C_7
REMARK    6  A    between atoms: C_16  and  N_17
REMARK    7  A    between atoms: N_17  and  C_18
REMARK    8  A    between atoms: C_18  and  N_20
REMARK    9  A    between atoms: N_20  and  C_21
REMARK   10  A    between atoms: C_21  and  C_22
REMARK   11  A    between atoms: C_25  and  C_26
REMARK   12  A    between atoms: C_26  and  C_27
REMARK   13  A    between atoms: C_26  and  C_28
REMARK   14  A    between atoms: C_26  and  C_29
REMARK                            x       y       z     vdW  Elec       q    Type
REMARK                         _______ _______ _______ _____ _____    ______ ____
ROOT
ATOM      1  C   UNL     1       2.593   6.882  18.691  0.00  0.00    +0.000 A 
ATOM      2  C   UNL     1       2.496   6.108  19.871  0.00  0.00    +0.000 A 
ATOM      3  C   UNL     1       1.807   6.562  21.004  0.00  0.00    +0.000 A 
ATOM      4  C   UNL     1       1.238   7.829  21.010  0.00  0.00    +0.000 A 
ATOM      5  C   UNL     1       1.350   8.607  19.866  0.00  0.00    +0.000 A 
ATOM      6  C   UNL     1       2.023   8.152  18.705  0.00  0.00    +0.000 A 
ATOM      7  C   UNL     1       1.885   9.191  17.629  0.00  0.00    +0.000 C 
ATOM      8  C   UNL     1       1.542  10.447  18.437  0.00  0.00    +0.000 C 
ATOM      9  C   UNL     1       0.757   9.970  19.664  0.00  0.00    +0.000 C 
ENDROOT
BRANCH   1  11
ATOM     10  C   UNL     1       4.526   6.708  17.284  0.00  0.00    +0.000 C 
ATOM     11  O   UNL     1       3.241   6.258  17.663  0.00  0.00    +0.000 OA
ENDBRANCH   1  11
BRANCH   2  12
ATOM     12  N   UNL     1       3.212   4.869  19.990  0.00  0.00    +0.000 N 
ATOM     13  H   UNL     1       3.994   4.830  19.332  0.00  0.00    +0.000 HD
BRANCH  12  14
ATOM     14  S   UNL     1       2.359   3.422  19.813  0.00  0.00    +0.000 S 
ATOM     15  C   UNL     1       2.227   2.900  21.507  0.00  0.00    +0.000 C 
ATOM     16  O   UNL     1       1.028   3.646  19.293  0.00  0.00    +0.000 OA
ATOM     17  O   UNL     1       3.283   2.514  19.164  0.00  0.00    +0.000 OA
ENDBRANCH  12  14
ENDBRANCH   2  12
BRANCH   9  18
ATOM     18  N   UNL     1      -0.687  10.063  19.448  0.00  0.00    +0.000 N 
ATOM     19  H   UNL     1      -1.221   9.856  20.278  0.00  0.00    +0.000 HD
BRANCH  18  20
ATOM     20  C   UNL     1      -1.417  10.649  18.459  0.00  0.00    +0.000 C 
ATOM     21  S   UNL     1      -2.041   9.963  17.077  0.00  0.00    +0.000 S 
BRANCH  20  22
ATOM     22  N   UNL     1      -1.730  11.957  18.667  0.00  0.00    +0.000 N 
ATOM     23  H   UNL     1      -1.645  12.530  17.835  0.00  0.00    +0.000 HD
BRANCH  22  24
ATOM     24  C   UNL     1      -1.748  12.673  19.926  0.00  0.00    +0.000 C 
BRANCH  24  25
ATOM     25  C   UNL     1      -3.106  12.671  20.568  0.00  0.00    +0.000 A 
ATOM     26  C   UNL     1      -3.269  12.877  21.944  0.00  0.00    +0.000 A 
ATOM     27  C   UNL     1      -4.549  12.908  22.514  0.00  0.00    +0.000 A 
ATOM     28  C   UNL     1      -5.700  12.747  21.731  0.00  0.00    +0.000 A 
ATOM     29  C   UNL     1      -5.521  12.555  20.349  0.00  0.00    +0.000 A 
ATOM     30  C   UNL     1      -4.246  12.525  19.775  0.00  0.00    +0.000 A 
BRANCH  28  31
ATOM     31  C   UNL     1      -7.115  12.799  22.332  0.00  0.00    +0.000 C 
ATOM     32  C   UNL     1      -7.915  14.051  21.907  0.00  0.00    +0.000 C 
ATOM     33  C   UNL     1      -7.914  11.561  21.869  0.00  0.00    +0.000 C 
ATOM     34  C   UNL     1      -7.040  12.806  23.873  0.00  0.00    +0.000 C 
ENDBRANCH  28  31
ENDBRANCH  24  25
ENDBRANCH  22  24
ENDBRANCH  20  22
ENDBRANCH  18  20
ENDBRANCH   9  18
TORSDOF 9
ENDMDL
MODEL 6
REMARK VINA RESULT:      -7.4      1.259      1.726
REMARK  Name = 
REMARK  14 active torsions:
REMARK  status: ('A' for Active; 'I' for Inactive)
REMARK    1  A    between atoms: C_1  and  O_2
REMARK    2  A    between atoms: O_2  and  C_3
REMARK    3  A    between atoms: C_4  and  N_5
REMARK    4  A    between atoms: N_5  and  S_6
REMARK    5  A    between atoms: S_6  and  C_7
REMARK    6  A    between atoms: C_16  and  N_17
REMARK    7  A    between atoms: N_17  and  C_18
REMARK    8  A    between atoms: C_18  and  N_20
REMARK    9  A    between atoms: N_20  and  C_21
REMARK   10  A    between atoms: C_21  and  C_22
REMARK   11  A    between atoms: C_25  and  C_26
REMARK   12  A    between atoms: C_26  and  C_27
REMARK   13  A    between atoms: C_26  and  C_28
REMARK   14  A    between atoms: C_26  and  C_29
REMARK                            x       y       z     vdW  Elec       q    Type
REMARK                         _______ _______ _______ _____ _____    ______ ____
ROOT
ATOM      1  C   UNL     1       3.961   4.961  18.922  0.00  0.00    +0.000 A 
ATOM      2  C   UNL     1       4.526   5.694  17.852  0.00  0.00    +0.000 A 
ATOM      3  C   UNL     1       4.089   6.984  17.522  0.00  0.00    +0.000 A 
ATOM      4  C   UNL     1       3.037   7.562  18.221  0.00  0.00    +0.000 A 
ATOM      5  C   UNL     1       2.460   6.841  19.257  0.00  0.00    +0.000 A 
ATOM      6  C   UNL     1       2.905   5.545  19.617  0.00  0.00    +0.000 A 
ATOM      7  C   UNL     1       2.135   5.087  20.822  0.00  0.00    +0.000 C 
ATOM      8  C   UNL     1       0.899   5.992  20.777  0.00  0.00    +0.000 C 
ATOM      9  C   UNL     1       1.358   7.317  20.156  0.00  0.00    +0.000 C 
ENDROOT
BRANCH   1  11
ATOM     10  C   UNL     1       3.915   2.577  18.685  0.00  0.00    +0.000 C 
ATOM     11  O   UNL     1       4.553   3.750  19.146  0.00  0.00    +0.000 OA
ENDBRANCH   1  11
BRANCH   2  12
ATOM     12  N   UNL     1       5.492   5.085  16.981  0.00  0.00    +0.000 N 
ATOM     13  H   UNL     1       5.288   4.092  16.842  0.00  0.00    +0.000 HD
BRANCH  12  14
ATOM     14  S   UNL     1       7.127   5.191  17.387  0.00  0.00    +0.000 S 
ATOM     15  C   UNL     1       7.404   6.938  17.219  0.00  0.00    +0.000 C 
ATOM     16  O   UNL     1       7.362   4.816  18.765  0.00  0.00    +0.000 OA
ATOM     17  O   UNL     1       7.832   4.546  16.297  0.00  0.00    +0.000 OA
ENDBRANCH  12  14
ENDBRANCH   2  12
BRANCH   9  18
ATOM     18  N   UNL     1       1.689   8.304  21.182  0.00  0.00    +0.000 N 
ATOM     19  H   UNL     1       2.682   8.380  21.347  0.00  0.00    +0.000 HD
BRANCH  18  20
ATOM     20  C   UNL     1       0.966   9.324  21.723  0.00  0.00    +0.000 C 
ATOM     21  S   UNL     1      -0.391   9.244  22.683  0.00  0.00    +0.000 S 
BRANCH  20  22
ATOM     22  N   UNL     1       1.463  10.571  21.500  0.00  0.00    +0.000 N 
ATOM     23  H   UNL     1       1.596  11.111  22.347  0.00  0.00    +0.000 HD
BRANCH  22  24
ATOM     24  C   UNL     1       1.422  11.332  20.267  0.00  0.00    +0.000 C 
BRANCH  24  25
ATOM     25  C   UNL     1       0.170  11.076  19.477  0.00  0.00    +0.000 A 
ATOM     26  C   UNL     1      -1.007  11.797  19.713  0.00  0.00    +0.000 A 
ATOM     27  C   UNL     1      -2.151  11.567  18.937  0.00  0.00    +0.000 A 
ATOM     28  C   UNL     1      -2.153  10.624  17.901  0.00  0.00    +0.000 A 
ATOM     29  C   UNL     1      -0.959   9.917  17.667  0.00  0.00    +0.000 A 
ATOM     30  C   UNL     1       0.186  10.145  18.436  0.00  0.00    +0.000 A 
BRANCH  28  31
ATOM     31  C   UNL     1      -3.390  10.371  17.024  0.00  0.00    +0.000 C 
ATOM     32  C   UNL     1      -3.040   9.985  15.568  0.00  0.00    +0.000 C 
ATOM     33  C   UNL     1      -4.214   9.210  17.623  0.00  0.00    +0.000 C 
ATOM     34  C   UNL     1      -4.269  11.637  16.961  0.00  0.00    +0.000 C 
ENDBRANCH  28  31
ENDBRANCH  24  25
ENDBRANCH  22  24
ENDBRANCH  20  22
ENDBRANCH  18  20
ENDBRANCH   9  18
TORSDOF 9
ENDMDL
MODEL 7
REMARK VINA RESULT:      -7.4      2.293      3.470
REMARK  Name = 
REMARK  14 active torsions:
REMARK  status: ('A' for Active; 'I' for Inactive)
REMARK    1  A    between atoms: C_1  and  O_2
REMARK    2  A    between atoms: O_2  and  C_3
REMARK    3  A    between atoms: C_4  and  N_5
REMARK    4  A    between atoms: N_5  and  S_6
REMARK    5  A    between atoms: S_6  and  C_7
REMARK    6  A    between atoms: C_16  and  N_17
REMARK    7  A    between atoms: N_17  and  C_18
REMARK    8  A    between atoms: C_18  and  N_20
REMARK    9  A    between atoms: N_20  and  C_21
REMARK   10  A    between atoms: C_21  and  C_22
REMARK   11  A    between atoms: C_25  and  C_26
REMARK   12  A    between atoms: C_26  and  C_27
REMARK   13  A    between atoms: C_26  and  C_28
REMARK   14  A    between atoms: C_26  and  C_29
REMARK                            x       y       z     vdW  Elec       q    Type
REMARK                         _______ _______ _______ _____ _____    ______ ____
ROOT
ATOM      1  C   UNL     1       4.391   4.221  19.013  0.00  0.00    +0.000 A 
ATOM      2  C   UNL     1       4.800   4.798  17.787  0.00  0.00    +0.000 A 
ATOM      3  C   UNL     1       4.192   5.948  17.267  0.00  0.00    +0.000 A 
ATOM      4  C   UNL     1       3.120   6.529  17.932  0.00  0.00    +0.000 A 
ATOM      5  C   UNL     1       2.695   5.956  19.123  0.00  0.00    +0.000 A 
ATOM      6  C   UNL     1       3.315   4.806  19.673  0.00  0.00    +0.000 A 
ATOM      7  C   UNL     1       2.676   4.502  20.997  0.00  0.00    +0.000 C 
ATOM      8  C   UNL     1       1.340   5.243  20.889  0.00  0.00    +0.000 C 
ATOM      9  C   UNL     1       1.598   6.470  20.007  0.00  0.00    +0.000 C 
ENDROOT
BRANCH   1  11
ATOM     10  C   UNL     1       4.479   1.955  19.788  0.00  0.00    +0.000 C 
ATOM     11  O   UNL     1       5.137   3.145  19.402  0.00  0.00    +0.000 OA
ENDBRANCH   1  11
BRANCH   2  12
ATOM     12  N   UNL     1       5.780   4.144  16.966  0.00  0.00    +0.000 N 
ATOM     13  H   UNL     1       5.827   3.144  17.173  0.00  0.00    +0.000 HD
BRANCH  12  14
ATOM     14  S   UNL     1       7.368   4.718  16.990  0.00  0.00    +0.000 S 
ATOM     15  C   UNL     1       7.103   6.427  17.400  0.00  0.00    +0.000 C 
ATOM     16  O   UNL     1       8.142   4.103  18.047  0.00  0.00    +0.000 OA
ATOM     17  O   UNL     1       7.807   4.679  15.610  0.00  0.00    +0.000 OA
ENDBRANCH  12  14
ENDBRANCH   2  12
BRANCH   9  18
ATOM     18  N   UNL     1       1.867   7.662  20.810  0.00  0.00    +0.000 N 
ATOM     19  H   UNL     1       2.836   7.744  21.078  0.00  0.00    +0.000 HD
BRANCH  18  20
ATOM     20  C   UNL     1       1.148   8.804  21.003  0.00  0.00    +0.000 C 
ATOM     21  S   UNL     1       0.555   9.433  22.424  0.00  0.00    +0.000 S 
BRANCH  20  22
ATOM     22  N   UNL     1       0.948   9.559  19.889  0.00  0.00    +0.000 N 
ATOM     23  H   UNL     1       1.807   9.830  19.425  0.00  0.00    +0.000 HD
BRANCH  22  24
ATOM     24  C   UNL     1      -0.226  10.336  19.546  0.00  0.00    +0.000 C 
BRANCH  24  25
ATOM     25  C   UNL     1       0.066  11.806  19.456  0.00  0.00    +0.000 A 
ATOM     26  C   UNL     1       1.367  12.286  19.257  0.00  0.00    +0.000 A 
ATOM     27  C   UNL     1       1.610  13.661  19.139  0.00  0.00    +0.000 A 
ATOM     28  C   UNL     1       0.567  14.595  19.203  0.00  0.00    +0.000 A 
ATOM     29  C   UNL     1      -0.736  14.097  19.389  0.00  0.00    +0.000 A 
ATOM     30  C   UNL     1      -0.984  12.726  19.506  0.00  0.00    +0.000 A 
BRANCH  28  31
ATOM     31  C   UNL     1       0.808  16.106  19.055  0.00  0.00    +0.000 C 
ATOM     32  C   UNL     1       0.969  16.835  20.408  0.00  0.00    +0.000 C 
ATOM     33  C   UNL     1       2.103  16.342  18.247  0.00  0.00    +0.000 C 
ATOM     34  C   UNL     1      -0.376  16.766  18.319  0.00  0.00    +0.000 C 
ENDBRANCH  28  31
ENDBRANCH  24  25
ENDBRANCH  22  24
ENDBRANCH  20  22
ENDBRANCH  18  20
ENDBRANCH   9  18
TORSDOF 9
ENDMDL
MODEL 8
REMARK VINA RESULT:      -7.3      2.069      2.964
REMARK  Name = 
REMARK  14 active torsions:
REMARK  status: ('A' for Active; 'I' for Inactive)
REMARK    1  A    between atoms: C_1  and  O_2
REMARK    2  A    between atoms: O_2  and  C_3
REMARK    3  A    between atoms: C_4  and  N_5
REMARK    4  A    between atoms: N_5  and  S_6
REMARK    5  A    between atoms: S_6  and  C_7
REMARK    6  A    between atoms: C_16  and  N_17
REMARK    7  A    between atoms: N_17  and  C_18
REMARK    8  A    between atoms: C_18  and  N_20
REMARK    9  A    between atoms: N_20  and  C_21
REMARK   10  A    between atoms: C_21  and  C_22
REMARK   11  A    between atoms: C_25  and  C_26
REMARK   12  A    between atoms: C_26  and  C_27
REMARK   13  A    between atoms: C_26  and  C_28
REMARK   14  A    between atoms: C_26  and  C_29
REMARK                            x       y       z     vdW  Elec       q    Type
REMARK                         _______ _______ _______ _____ _____    ______ ____
ROOT
ATOM      1  C   UNL     1       2.627   6.748  19.497  0.00  0.00    +0.000 A 
ATOM      2  C   UNL     1       3.047   6.940  18.159  0.00  0.00    +0.000 A 
ATOM      3  C   UNL     1       2.717   8.093  17.434  0.00  0.00    +0.000 A 
ATOM      4  C   UNL     1       1.911   9.068  18.008  0.00  0.00    +0.000 A 
ATOM      5  C   UNL     1       1.472   8.877  19.311  0.00  0.00    +0.000 A 
ATOM      6  C   UNL     1       1.817   7.727  20.064  0.00  0.00    +0.000 A 
ATOM      7  C   UNL     1       1.258   7.874  21.450  0.00  0.00    +0.000 C 
ATOM      8  C   UNL     1       0.162   8.925  21.247  0.00  0.00    +0.000 C 
ATOM      9  C   UNL     1       0.646   9.838  20.113  0.00  0.00    +0.000 C 
ENDROOT
BRANCH   1  11
ATOM     10  C   UNL     1       2.189   4.559  20.368  0.00  0.00    +0.000 C 
ATOM     11  O   UNL     1       3.096   5.601  20.072  0.00  0.00    +0.000 OA
ENDBRANCH   1  11
BRANCH   2  12
ATOM     12  N   UNL     1       3.731   5.893  17.453  0.00  0.00    +0.000 N 
ATOM     13  H   UNL     1       3.860   5.071  18.048  0.00  0.00    +0.000 HD
BRANCH  12  14
ATOM     14  S   UNL     1       5.234   6.231  16.762  0.00  0.00    +0.000 S 
ATOM     15  C   UNL     1       5.906   4.594  16.603  0.00  0.00    +0.000 C 
ATOM     16  O   UNL     1       5.098   6.807  15.441  0.00  0.00    +0.000 OA
ATOM     17  O   UNL     1       5.990   6.897  17.804  0.00  0.00    +0.000 OA
ENDBRANCH  12  14
ENDBRANCH   2  12
BRANCH   9  18
ATOM     18  N   UNL     1       1.301  11.038  20.631  0.00  0.00    +0.000 N 
ATOM     19  H   UNL     1       2.154  10.834  21.129  0.00  0.00    +0.000 HD
BRANCH  18  20
ATOM     20  C   UNL     1       1.149  12.356  20.323  0.00  0.00    +0.000 C 
ATOM     21  S   UNL     1       2.316  13.532  20.174  0.00  0.00    +0.000 S 
BRANCH  20  22
ATOM     22  N   UNL     1      -0.124  12.741  20.035  0.00  0.00    +0.000 N 
ATOM     23  H   UNL     1      -0.708  12.849  20.856  0.00  0.00    +0.000 HD
BRANCH  22  24
ATOM     24  C   UNL     1      -0.826  12.605  18.775  0.00  0.00    +0.000 C 
BRANCH  24  25
ATOM     25  C   UNL     1      -2.291  12.331  18.962  0.00  0.00    +0.000 A 
ATOM     26  C   UNL     1      -3.000  12.838  20.058  0.00  0.00    +0.000 A 
ATOM     27  C   UNL     1      -4.374  12.601  20.191  0.00  0.00    +0.000 A 
ATOM     28  C   UNL     1      -5.083  11.863  19.234  0.00  0.00    +0.000 A 
ATOM     29  C   UNL     1      -4.361  11.371  18.131  0.00  0.00    +0.000 A 
ATOM     30  C   UNL     1      -2.990  11.607  17.992  0.00  0.00    +0.000 A 
BRANCH  28  31
ATOM     31  C   UNL     1      -6.595  11.608  19.349  0.00  0.00    +0.000 C 
ATOM     32  C   UNL     1      -7.443  12.544  18.459  0.00  0.00    +0.000 C 
ATOM     33  C   UNL     1      -6.905  10.158  18.919  0.00  0.00    +0.000 C 
ATOM     34  C   UNL     1      -7.063  11.816  20.805  0.00  0.00    +0.000 C 
ENDBRANCH  28  31
ENDBRANCH  24  25
ENDBRANCH  22  24
ENDBRANCH  20  22
ENDBRANCH  18  20
ENDBRANCH   9  18
TORSDOF 9
ENDMDL
MODEL 9
REMARK VINA RESULT:      -7.2      2.828      3.265
REMARK  Name = 
REMARK  14 active torsions:
REMARK  status: ('A' for Active; 'I' for Inactive)
REMARK    1  A    between atoms: C_1  and  O_2
REMARK    2  A    between atoms: O_2  and  C_3
REMARK    3  A    between atoms: C_4  and  N_5
REMARK    4  A    between atoms: N_5  and  S_6
REMARK    5  A    between atoms: S_6  and  C_7
REMARK    6  A    between atoms: C_16  and  N_17
REMARK    7  A    between atoms: N_17  and  C_18
REMARK    8  A    between atoms: C_18  and  N_20
REMARK    9  A    between atoms: N_20  and  C_21
REMARK   10  A    between atoms: C_21  and  C_22
REMARK   11  A    between atoms: C_25  and  C_26
REMARK   12  A    between atoms: C_26  and  C_27
REMARK   13  A    between atoms: C_26  and  C_28
REMARK   14  A    between atoms: C_26  and  C_29
REMARK                            x       y       z     vdW  Elec       q    Type
REMARK                         _______ _______ _______ _____ _____    ______ ____
ROOT
ATOM      1  C   UNL     1       4.442   4.090  19.100  0.00  0.00    +0.000 A 
ATOM      2  C   UNL     1       4.866   4.682  17.887  0.00  0.00    +0.000 A 
ATOM      3  C   UNL     1       4.224   5.802  17.342  0.00  0.00    +0.000 A 
ATOM      4  C   UNL     1       3.104   6.335  17.968  0.00  0.00    +0.000 A 
ATOM      5  C   UNL     1       2.665   5.746  19.146  0.00  0.00    +0.000 A 
ATOM      6  C   UNL     1       3.318   4.627  19.721  0.00  0.00    +0.000 A 
ATOM      7  C   UNL     1       2.649   4.296  21.024  0.00  0.00    +0.000 C 
ATOM      8  C   UNL     1       1.284   4.974  20.867  0.00  0.00    +0.000 C 
ATOM      9  C   UNL     1       1.516   6.210  19.990  0.00  0.00    +0.000 C 
ENDROOT
BRANCH   1  11
ATOM     10  C   UNL     1       4.656   2.053  20.345  0.00  0.00    +0.000 C 
ATOM     11  O   UNL     1       5.223   3.050  19.519  0.00  0.00    +0.000 OA
ENDBRANCH   1  11
BRANCH   2  12
ATOM     12  N   UNL     1       5.903   4.073  17.103  0.00  0.00    +0.000 N 
ATOM     13  H   UNL     1       6.063   3.104  17.392  0.00  0.00    +0.000 HD
BRANCH  12  14
ATOM     14  S   UNL     1       7.418   4.817  17.046  0.00  0.00    +0.000 S 
ATOM     15  C   UNL     1       7.087   6.321  17.933  0.00  0.00    +0.000 C 
ATOM     16  O   UNL     1       8.413   4.059  17.774  0.00  0.00    +0.000 OA
ATOM     17  O   UNL     1       7.610   5.180  15.656  0.00  0.00    +0.000 OA
ENDBRANCH  12  14
ENDBRANCH   2  12
BRANCH   9  18
ATOM     18  N   UNL     1       1.701   7.415  20.796  0.00  0.00    +0.000 N 
ATOM     19  H   UNL     1       2.363   7.286  21.546  0.00  0.00    +0.000 HD
BRANCH  18  20
ATOM     20  C   UNL     1       1.394   8.721  20.556  0.00  0.00    +0.000 C 
ATOM     21  S   UNL     1       1.183   9.490  19.096  0.00  0.00    +0.000 S 
BRANCH  20  22
ATOM     22  N   UNL     1       1.167   9.476  21.665  0.00  0.00    +0.000 N 
ATOM     23  H   UNL     1       2.016   9.765  22.137  0.00  0.00    +0.000 HD
BRANCH  22  24
ATOM     24  C   UNL     1      -0.049   9.554  22.449  0.00  0.00    +0.000 C 
BRANCH  24  25
ATOM     25  C   UNL     1      -0.641  10.934  22.453  0.00  0.00    +0.000 A 
ATOM     26  C   UNL     1      -0.143  11.950  21.627  0.00  0.00    +0.000 A 
ATOM     27  C   UNL     1      -0.737  13.219  21.620  0.00  0.00    +0.000 A 
ATOM     28  C   UNL     1      -1.848  13.509  22.424  0.00  0.00    +0.000 A 
ATOM     29  C   UNL     1      -2.345  12.475  23.238  0.00  0.00    +0.000 A 
ATOM     30  C   UNL     1      -1.758  11.206  23.247  0.00  0.00    +0.000 A 
BRANCH  28  31
ATOM     31  C   UNL     1      -2.528  14.888  22.417  0.00  0.00    +0.000 C 
ATOM     32  C   UNL     1      -4.057  14.817  22.627  0.00  0.00    +0.000 C 
ATOM     33  C   UNL     1      -1.946  15.753  23.556  0.00  0.00    +0.000 C 
ATOM     34  C   UNL     1      -2.285  15.596  21.068  0.00  0.00    +0.000 C 
ENDBRANCH  28  31
ENDBRANCH  24  25
ENDBRANCH  22  24
ENDBRANCH  20  22
ENDBRANCH  18  20
ENDBRANCH   9  18
TORSDOF 9
ENDMDL
