MODEL 1
REMARK VINA RESULT:      -5.5      0.000      0.000
REMARK  Name = 
REMARK  6 active torsions:
REMARK  status: ('A' for Active; 'I' for Inactive)
REMARK    1  A    between atoms: C_1  and  C_2
REMARK    2  A    between atoms: C_2  and  S_3
REMARK    3  A    between atoms: C_2  and  C_12
REMARK    4  A    between atoms: S_3  and  C_4
REMARK    5  A    between atoms: C_4  and  N_6
REMARK    6  A    between atoms: C_12  and  O_14
REMARK                            x       y       z     vdW  Elec       q    Type
REMARK                         _______ _______ _______ _____ _____    ______ ____
ROOT
ATOM      1  C   UNL     1       3.561   5.532  18.913  0.00  0.00    +0.000 C 
ATOM      2  S   UNL     1       3.067   6.963  18.178  0.00  0.00    +0.000 S 
ENDROOT
BRANCH   1   3
ATOM      3  N   UNL     1       2.711   4.601  19.522  0.00  0.00    +0.000 N 
ATOM      4  C   UNL     1       2.215   4.774  20.907  0.00  0.00    +0.000 C 
ATOM      5  C   UNL     1       2.107   3.428  21.632  0.00  0.00    +0.000 C 
ATOM      6  O   UNL     1       1.298   2.502  20.896  0.00  0.00    +0.000 OA
ATOM      7  C   UNL     1       1.860   2.268  19.599  0.00  0.00    +0.000 C 
ATOM      8  C   UNL     1       1.941   3.569  18.793  0.00  0.00    +0.000 C 
ENDBRANCH   1   3
BRANCH   1   9
ATOM      9  S   UNL     1       5.282   5.126  18.867  0.00  0.00    +0.000 S 
BRANCH   9  11
ATOM     10  C   UNL     1       5.123   3.990  16.303  0.00  0.00    +0.000 C 
ATOM     11  C   UNL     1       5.640   5.196  17.073  0.00  0.00    +0.000 C 
BRANCH  11  12
ATOM     12  C   UNL     1       7.113   5.468  16.798  0.00  0.00    +0.000 C 
ATOM     13  O   UNL     1       7.572   6.565  16.512  0.00  0.00    +0.000 OA
BRANCH  12  14
ATOM     14  O   UNL     1       7.911   4.393  17.008  0.00  0.00    +0.000 OA
ATOM     15  H   UNL     1       7.445   3.543  16.860  0.00  0.00    +0.000 HD
ENDBRANCH  12  14
ENDBRANCH  11  12
ENDBRANCH   9  11
ENDBRANCH   1   9
TORSDOF 5
ENDMDL
MODEL 2
REMARK VINA RESULT:      -5.5      0.971      1.374
REMARK  Name = 
REMARK  6 active torsions:
REMARK  status: ('A' for Active; 'I' for Inactive)
REMARK    1  A    between atoms: C_1  and  C_2
REMARK    2  A    between atoms: C_2  and  S_3
REMARK    3  A    between atoms: C_2  and  C_12
REMARK    4  A    between atoms: S_3  and  C_4
REMARK    5  A    between atoms: C_4  and  N_6
REMARK    6  A    between atoms: C_12  and  O_14
REMARK                            x       y       z     vdW  Elec       q    Type
REMARK                         _______ _______ _______ _____ _____    ______ ____
ROOT
ATOM      1  C   UNL     1       3.809   5.545  18.990  0.00  0.00    +0.000 C 
ATOM      2  S   UNL     1       3.216   6.904  18.195  0.00  0.00    +0.000 S 
ENDROOT
BRANCH   1   3
ATOM      3  N   UNL     1       3.028   4.595  19.658  0.00  0.00    +0.000 N 
ATOM      4  C   UNL     1       3.461   3.188  19.815  0.00  0.00    +0.000 C 
ATOM      5  C   UNL     1       2.271   2.226  19.730  0.00  0.00    +0.000 C 
ATOM      6  O   UNL     1       1.252   2.570  20.677  0.00  0.00    +0.000 OA
ATOM      7  C   UNL     1       0.773   3.899  20.435  0.00  0.00    +0.000 C 
ATOM      8  C   UNL     1       1.905   4.923  20.564  0.00  0.00    +0.000 C 
ENDBRANCH   1   3
BRANCH   1   9
ATOM      9  S   UNL     1       5.551   5.243  18.933  0.00  0.00    +0.000 S 
BRANCH   9  11
ATOM     10  C   UNL     1       4.827   4.009  16.515  0.00  0.00    +0.000 C 
ATOM     11  C   UNL     1       5.829   4.965  17.145  0.00  0.00    +0.000 C 
BRANCH  11  12
ATOM     12  C   UNL     1       7.270   4.568  16.849  0.00  0.00    +0.000 C 
ATOM     13  O   UNL     1       7.803   4.668  15.753  0.00  0.00    +0.000 OA
BRANCH  12  14
ATOM     14  O   UNL     1       7.964   4.190  17.949  0.00  0.00    +0.000 OA
ATOM     15  H   UNL     1       8.934   4.232  17.815  0.00  0.00    +0.000 HD
ENDBRANCH  12  14
ENDBRANCH  11  12
ENDBRANCH   9  11
ENDBRANCH   1   9
TORSDOF 5
ENDMDL
MODEL 3
REMARK VINA RESULT:      -5.5      1.832      5.629
REMARK  Name = 
REMARK  6 active torsions:
REMARK  status: ('A' for Active; 'I' for Inactive)
REMARK    1  A    between atoms: C_1  and  C_2
REMARK    2  A    between atoms: C_2  and  S_3
REMARK    3  A    between atoms: C_2  and  C_12
REMARK    4  A    between atoms: S_3  and  C_4
REMARK    5  A    between atoms: C_4  and  N_6
REMARK    6  A    between atoms: C_12  and  O_14
REMARK                            x       y       z     vdW  Elec       q    Type
REMARK                         _______ _______ _______ _____ _____    ______ ____
ROOT
ATOM      1  C   UNL     1       4.109   4.769  18.982  0.00  0.00    +0.000 C 
ATOM      2  S   UNL     1       3.008   5.998  19.310  0.00  0.00    +0.000 S 
ENDROOT
BRANCH   1   3
ATOM      3  N   UNL     1       5.264   4.905  18.205  0.00  0.00    +0.000 N 
ATOM      4  C   UNL     1       6.534   5.423  18.764  0.00  0.00    +0.000 C 
ATOM      5  C   UNL     1       7.289   6.275  17.737  0.00  0.00    +0.000 C 
ATOM      6  O   UNL     1       7.507   5.553  16.519  0.00  0.00    +0.000 OA
ATOM      7  C   UNL     1       6.257   5.157  15.941  0.00  0.00    +0.000 C 
ATOM      8  C   UNL     1       5.474   4.250  16.896  0.00  0.00    +0.000 C 
ENDBRANCH   1   3
BRANCH   1   9
ATOM      9  S   UNL     1       3.832   3.187  19.724  0.00  0.00    +0.000 S 
BRANCH   9  11
ATOM     10  C   UNL     1       1.487   2.736  21.203  0.00  0.00    +0.000 C 
ATOM     11  C   UNL     1       2.005   3.131  19.829  0.00  0.00    +0.000 C 
BRANCH  11  12
ATOM     12  C   UNL     1       1.398   2.285  18.718  0.00  0.00    +0.000 C 
ATOM     13  O   UNL     1       0.197   2.173  18.511  0.00  0.00    +0.000 OA
BRANCH  12  14
ATOM     14  O   UNL     1       2.319   1.739  17.888  0.00  0.00    +0.000 OA
ATOM     15  H   UNL     1       2.814   2.415  17.378  0.00  0.00    +0.000 HD
ENDBRANCH  12  14
ENDBRANCH  11  12
ENDBRANCH   9  11
ENDBRANCH   1   9
TORSDOF 5
ENDMDL
MODEL 4
REMARK VINA RESULT:      -5.5      2.097      5.874
REMARK  Name = 
REMARK  6 active torsions:
REMARK  status: ('A' for Active; 'I' for Inactive)
REMARK    1  A    between atoms: C_1  and  C_2
REMARK    2  A    between atoms: C_2  and  S_3
REMARK    3  A    between atoms: C_2  and  C_12
REMARK    4  A    between atoms: S_3  and  C_4
REMARK    5  A    between atoms: C_4  and  N_6
REMARK    6  A    between atoms: C_12  and  O_14
REMARK                            x       y       z     vdW  Elec       q    Type
REMARK                         _______ _______ _______ _____ _____    ______ ____
ROOT
ATOM      1  C   UNL     1       4.153   3.159  18.385  0.00  0.00    +0.000 C 
ATOM      2  S   UNL     1       4.326   2.451  19.901  0.00  0.00    +0.000 S 
ENDROOT
BRANCH   1   3
ATOM      3  N   UNL     1       5.147   3.877  17.710  0.00  0.00    +0.000 N 
ATOM      4  C   UNL     1       5.075   4.146  16.255  0.00  0.00    +0.000 C 
ATOM      5  C   UNL     1       6.465   4.105  15.611  0.00  0.00    +0.000 C 
ATOM      6  O   UNL     1       7.371   5.001  16.267  0.00  0.00    +0.000 OA
ATOM      7  C   UNL     1       7.507   4.651  17.650  0.00  0.00    +0.000 C 
ATOM      8  C   UNL     1       6.158   4.731  18.371  0.00  0.00    +0.000 C 
ENDBRANCH   1   3
BRANCH   1   9
ATOM      9  S   UNL     1       2.619   2.933  17.533  0.00  0.00    +0.000 S 
BRANCH   9  11
ATOM     10  C   UNL     1       2.232   5.559  18.454  0.00  0.00    +0.000 C 
ATOM     11  C   UNL     1       1.558   4.201  18.321  0.00  0.00    +0.000 C 
BRANCH  11  12
ATOM     12  C   UNL     1       0.975   3.714  19.640  0.00  0.00    +0.000 C 
ATOM     13  O   UNL     1       1.148   4.266  20.718  0.00  0.00    +0.000 OA
BRANCH  12  14
ATOM     14  O   UNL     1       0.139   2.657  19.506  0.00  0.00    +0.000 OA
ATOM     15  H   UNL     1      -0.706   2.781  19.986  0.00  0.00    +0.000 HD
ENDBRANCH  12  14
ENDBRANCH  11  12
ENDBRANCH   9  11
ENDBRANCH   1   9
TORSDOF 5
ENDMDL
MODEL 5
REMARK VINA RESULT:      -5.5      1.373      1.581
REMARK  Name = 
REMARK  6 active torsions:
REMARK  status: ('A' for Active; 'I' for Inactive)
REMARK    1  A    between atoms: C_1  and  C_2
REMARK    2  A    between atoms: C_2  and  S_3
REMARK    3  A    between atoms: C_2  and  C_12
REMARK    4  A    between atoms: S_3  and  C_4
REMARK    5  A    between atoms: C_4  and  N_6
REMARK    6  A    between atoms: C_12  and  O_14
REMARK                            x       y       z     vdW  Elec       q    Type
REMARK                         _______ _______ _______ _____ _____    ______ ____
ROOT
ATOM      1  C   UNL     1       3.862   5.183  17.738  0.00  0.00    +0.000 C 
ATOM      2  S   UNL     1       4.230   6.774  17.336  0.00  0.00    +0.000 S 
ENDROOT
BRANCH   1   3
ATOM      3  N   UNL     1       2.784   4.779  18.534  0.00  0.00    +0.000 N 
ATOM      4  C   UNL     1       2.503   5.395  19.851  0.00  0.00    +0.000 C 
ATOM      5  C   UNL     1       1.969   4.360  20.848  0.00  0.00    +0.000 C 
ATOM      6  O   UNL     1       0.820   3.680  20.330  0.00  0.00    +0.000 OA
ATOM      7  C   UNL     1       1.147   3.001  19.111  0.00  0.00    +0.000 C 
ATOM      8  C   UNL     1       1.632   3.990  18.046  0.00  0.00    +0.000 C 
ENDBRANCH   1   3
BRANCH   1   9
ATOM      9  S   UNL     1       4.872   3.900  17.057  0.00  0.00    +0.000 S 
BRANCH   9  11
ATOM     10  C   UNL     1       5.317   4.176  14.298  0.00  0.00    +0.000 C 
ATOM     11  C   UNL     1       5.681   4.756  15.656  0.00  0.00    +0.000 C 
BRANCH  11  12
ATOM     12  C   UNL     1       7.187   4.868  15.851  0.00  0.00    +0.000 C 
ATOM     13  O   UNL     1       7.793   4.431  16.820  0.00  0.00    +0.000 OA
BRANCH  12  14
ATOM     14  O   UNL     1       7.832   5.405  14.788  0.00  0.00    +0.000 OA
ATOM     15  H   UNL     1       7.236   5.922  14.207  0.00  0.00    +0.000 HD
ENDBRANCH  12  14
ENDBRANCH  11  12
ENDBRANCH   9  11
ENDBRANCH   1   9
TORSDOF 5
ENDMDL
MODEL 6
REMARK VINA RESULT:      -5.5      1.409      1.634
REMARK  Name = 
REMARK  6 active torsions:
REMARK  status: ('A' for Active; 'I' for Inactive)
REMARK    1  A    between atoms: C_1  and  C_2
REMARK    2  A    between atoms: C_2  and  S_3
REMARK    3  A    between atoms: C_2  and  C_12
REMARK    4  A    between atoms: S_3  and  C_4
REMARK    5  A    between atoms: C_4  and  N_6
REMARK    6  A    between atoms: C_12  and  O_14
REMARK                            x       y       z     vdW  Elec       q    Type
REMARK                         _______ _______ _______ _____ _____    ______ ____
ROOT
ATOM      1  C   UNL     1       3.259   5.831  18.106  0.00  0.00    +0.000 C 
ATOM      2  S   UNL     1       2.560   7.234  18.717  0.00  0.00    +0.000 S 
ENDROOT
BRANCH   1   3
ATOM      3  N   UNL     1       2.853   4.527  18.409  0.00  0.00    +0.000 N 
ATOM      4  C   UNL     1       2.489   4.115  19.784  0.00  0.00    +0.000 C 
ATOM      5  C   UNL     1       2.928   2.674  20.069  0.00  0.00    +0.000 C 
ATOM      6  O   UNL     1       2.406   1.766  19.093  0.00  0.00    +0.000 OA
ATOM      7  C   UNL     1       2.862   2.123  17.782  0.00  0.00    +0.000 C 
ATOM      8  C   UNL     1       2.403   3.536  17.408  0.00  0.00    +0.000 C 
ENDBRANCH   1   3
BRANCH   1   9
ATOM      9  S   UNL     1       4.575   6.002  16.936  0.00  0.00    +0.000 S 
BRANCH   9  11
ATOM     10  C   UNL     1       6.140   5.422  19.195  0.00  0.00    +0.000 C 
ATOM     11  C   UNL     1       5.920   5.052  17.736  0.00  0.00    +0.000 C 
BRANCH  11  12
ATOM     12  C   UNL     1       7.210   5.103  16.928  0.00  0.00    +0.000 C 
ATOM     13  O   UNL     1       7.510   6.007  16.162  0.00  0.00    +0.000 OA
BRANCH  12  14
ATOM     14  O   UNL     1       8.068   4.095  17.215  0.00  0.00    +0.000 OA
ATOM     15  H   UNL     1       7.810   3.248  16.792  0.00  0.00    +0.000 HD
ENDBRANCH  12  14
ENDBRANCH  11  12
ENDBRANCH   9  11
ENDBRANCH   1   9
TORSDOF 5
ENDMDL
MODEL 7
REMARK VINA RESULT:      -5.5      2.060      5.155
REMARK  Name = 
REMARK  6 active torsions:
REMARK  status: ('A' for Active; 'I' for Inactive)
REMARK    1  A    between atoms: C_1  and  C_2
REMARK    2  A    between atoms: C_2  and  S_3
REMARK    3  A    between atoms: C_2  and  C_12
REMARK    4  A    between atoms: S_3  and  C_4
REMARK    5  A    between atoms: C_4  and  N_6
REMARK    6  A    between atoms: C_12  and  O_14
REMARK                            x       y       z     vdW  Elec       q    Type
REMARK                         _______ _______ _______ _____ _____    ______ ____
ROOT
ATOM      1  C   UNL     1       3.772   4.764  18.000  0.00  0.00    +0.000 C 
ATOM      2  S   UNL     1       3.315   5.902  19.152  0.00  0.00    +0.000 S 
ENDROOT
BRANCH   1   3
ATOM      3  N   UNL     1       5.083   4.531  17.570  0.00  0.00    +0.000 N 
ATOM      4  C   UNL     1       6.236   4.568  18.498  0.00  0.00    +0.000 C 
ATOM      5  C   UNL     1       7.479   5.153  17.820  0.00  0.00    +0.000 C 
ATOM      6  O   UNL     1       7.798   4.446  16.615  0.00  0.00    +0.000 OA
ATOM      7  C   UNL     1       6.707   4.517  15.689  0.00  0.00    +0.000 C 
ATOM      8  C   UNL     1       5.441   3.892  16.284  0.00  0.00    +0.000 C 
ENDBRANCH   1   3
BRANCH   1   9
ATOM      9  S   UNL     1       2.514   3.727  17.313  0.00  0.00    +0.000 S 
BRANCH   9  11
ATOM     10  C   UNL     1       1.240   2.991  19.707  0.00  0.00    +0.000 C 
ATOM     11  C   UNL     1       2.240   2.519  18.661  0.00  0.00    +0.000 C 
BRANCH  11  12
ATOM     12  C   UNL     1       3.550   2.056  19.284  0.00  0.00    +0.000 C 
ATOM     13  O   UNL     1       3.926   2.358  20.408  0.00  0.00    +0.000 OA
BRANCH  12  14
ATOM     14  O   UNL     1       4.232   1.172  18.517  0.00  0.00    +0.000 OA
ATOM     15  H   UNL     1       4.528   0.385  19.021  0.00  0.00    +0.000 HD
ENDBRANCH  12  14
ENDBRANCH  11  12
ENDBRANCH   9  11
ENDBRANCH   1   9
TORSDOF 5
ENDMDL
MODEL 8
REMARK VINA RESULT:      -5.4      1.771      5.944
REMARK  Name = 
REMARK  6 active torsions:
REMARK  status: ('A' for Active; 'I' for Inactive)
REMARK    1  A    between atoms: C_1  and  C_2
REMARK    2  A    between atoms: C_2  and  S_3
REMARK    3  A    between atoms: C_2  and  C_12
REMARK    4  A    between atoms: S_3  and  C_4
REMARK    5  A    between atoms: C_4  and  N_6
REMARK    6  A    between atoms: C_12  and  O_14
REMARK                            x       y       z     vdW  Elec       q    Type
REMARK                         _______ _______ _______ _____ _____    ______ ____
ROOT
ATOM      1  C   UNL     1       4.090   3.993  17.979  0.00  0.00    +0.000 C 
ATOM      2  S   UNL     1       2.700   3.318  17.315  0.00  0.00    +0.000 S 
ENDROOT
BRANCH   1   3
ATOM      3  N   UNL     1       5.220   4.391  17.256  0.00  0.00    +0.000 N 
ATOM      4  C   UNL     1       6.443   4.898  17.921  0.00  0.00    +0.000 C 
ATOM      5  C   UNL     1       7.106   6.007  17.098  0.00  0.00    +0.000 C 
ATOM      6  O   UNL     1       7.377   5.574  15.759  0.00  0.00    +0.000 OA
ATOM      7  C   UNL     1       6.163   5.192  15.102  0.00  0.00    +0.000 C 
ATOM      8  C   UNL     1       5.476   4.040  15.842  0.00  0.00    +0.000 C 
ENDBRANCH   1   3
BRANCH   1   9
ATOM      9  S   UNL     1       4.118   4.287  19.723  0.00  0.00    +0.000 S 
BRANCH   9  11
ATOM     10  C   UNL     1       1.862   5.748  20.542  0.00  0.00    +0.000 C 
ATOM     11  C   UNL     1       2.333   4.363  20.124  0.00  0.00    +0.000 C 
BRANCH  11  12
ATOM     12  C   UNL     1       1.930   3.290  21.127  0.00  0.00    +0.000 C 
ATOM     13  O   UNL     1       2.634   2.910  22.053  0.00  0.00    +0.000 OA
BRANCH  12  14
ATOM     14  O   UNL     1       0.656   2.858  20.974  0.00  0.00    +0.000 OA
ATOM     15  H   UNL     1       0.126   2.950  21.794  0.00  0.00    +0.000 HD
ENDBRANCH  12  14
ENDBRANCH  11  12
ENDBRANCH   9  11
ENDBRANCH   1   9
TORSDOF 5
ENDMDL
MODEL 9
REMARK VINA RESULT:      -5.4      1.737      5.690
REMARK  Name = 
REMARK  6 active torsions:
REMARK  status: ('A' for Active; 'I' for Inactive)
REMARK    1  A    between atoms: C_1  and  C_2
REMARK    2  A    between atoms: C_2  and  S_3
REMARK    3  A    between atoms: C_2  and  C_12
REMARK    4  A    between atoms: S_3  and  C_4
REMARK    5  A    between atoms: C_4  and  N_6
REMARK    6  A    between atoms: C_12  and  O_14
REMARK                            x       y       z     vdW  Elec       q    Type
REMARK                         _______ _______ _______ _____ _____    ______ ____
ROOT
ATOM      1  C   UNL     1       4.054   5.036  18.694  0.00  0.00    +0.000 C 
ATOM      2  S   UNL     1       2.772   6.075  19.023  0.00  0.00    +0.000 S 
ENDROOT
BRANCH   1   3
ATOM      3  N   UNL     1       5.133   5.324  17.852  0.00  0.00    +0.000 N 
ATOM      4  C   UNL     1       4.959   6.028  16.560  0.00  0.00    +0.000 C 
ATOM      5  C   UNL     1       5.929   5.495  15.500  0.00  0.00    +0.000 C 
ATOM      6  O   UNL     1       7.286   5.559  15.954  0.00  0.00    +0.000 OA
ATOM      7  C   UNL     1       7.453   4.781  17.146  0.00  0.00    +0.000 C 
ATOM      8  C   UNL     1       6.552   5.301  18.271  0.00  0.00    +0.000 C 
ENDBRANCH   1   3
BRANCH   1   9
ATOM      9  S   UNL     1       4.087   3.471  19.520  0.00  0.00    +0.000 S 
BRANCH   9  11
ATOM     10  C   UNL     1       2.059   2.764  21.331  0.00  0.00    +0.000 C 
ATOM     11  C   UNL     1       2.316   3.204  19.897  0.00  0.00    +0.000 C 
BRANCH  11  12
ATOM     12  C   UNL     1       1.652   2.282  18.884  0.00  0.00    +0.000 C 
ATOM     13  O   UNL     1       0.497   2.397  18.497  0.00  0.00    +0.000 OA
BRANCH  12  14
ATOM     14  O   UNL     1       2.496   1.367  18.349  0.00  0.00    +0.000 OA
ATOM     15  H   UNL     1       2.185   0.447  18.476  0.00  0.00    +0.000 HD
ENDBRANCH  12  14
ENDBRANCH  11  12
ENDBRANCH   9  11
ENDBRANCH   1   9
TORSDOF 5
ENDMDL
