MODEL 1
REMARK VINA RESULT:      -7.9      0.000      0.000
REMARK  Name = 
REMARK  6 active torsions:
REMARK  status: ('A' for Active; 'I' for Inactive)
REMARK    1  A    between atoms: C_1  and  N_2
REMARK    2  A    between atoms: N_2  and  C_3
REMARK    3  A    between atoms: N_2  and  C_4
REMARK    4  A    between atoms: C_4  and  C_5
REMARK    5  A    between atoms: C_5  and  C_6
REMARK    6  A    between atoms: C_11  and  C_12
REMARK                            x       y       z     vdW  Elec       q    Type
REMARK                         _______ _______ _______ _____ _____    ______ ____
ROOT
ATOM      1  C   UNL     1       1.158   7.753  20.771  0.00  0.00    +0.000 C 
ATOM      2  O   UNL     1       1.754   8.298  19.837  0.00  0.00    +0.000 OA
ATOM      3  N   UNL     1       1.316   6.475  21.230  0.00  0.00    +0.000 N 
ATOM      4  C   UNL     1       2.183   5.648  20.589  0.00  0.00    +0.000 A 
ATOM      5  N   UNL     1       3.169   5.992  19.821  0.00  0.00    +0.000 NA
ATOM      6  C   UNL     1       3.735   4.886  19.223  0.00  0.00    +0.000 A 
ATOM      7  C   UNL     1       3.135   3.694  19.592  0.00  0.00    +0.000 A 
ATOM      8  S   UNL     1       1.919   3.972  20.780  0.00  0.00    +0.000 S 
ATOM      9  H   UNL     1       0.578   6.045  21.766  0.00  0.00    +0.000 HD
ENDROOT
BRANCH   6  10
ATOM     10  C   UNL     1       4.883   5.144  18.275  0.00  0.00    +0.000 C 
ATOM     11  C   UNL     1       4.613   6.449  17.468  0.00  0.00    +0.000 C 
ATOM     12  C   UNL     1       5.763   6.736  16.487  0.00  0.00    +0.000 C 
ATOM     13  C   UNL     1       7.072   6.889  17.276  0.00  0.00    +0.000 C 
ATOM     14  C   UNL     1       7.376   5.595  18.047  0.00  0.00    +0.000 C 
ATOM     15  C   UNL     1       7.498   4.425  17.060  0.00  0.00    +0.000 C 
ATOM     16  C   UNL     1       6.189   4.263  16.272  0.00  0.00    +0.000 C 
ATOM     17  C   UNL     1       5.897   5.562  15.504  0.00  0.00    +0.000 C 
ATOM     18  C   UNL     1       5.036   3.981  17.253  0.00  0.00    +0.000 C 
ATOM     19  C   UNL     1       6.226   5.311  19.026  0.00  0.00    +0.000 C 
ENDBRANCH   6  10
BRANCH   1  20
ATOM     20  C   UNL     1       0.112   8.546  21.522  0.00  0.00    +0.000 C 
BRANCH  20  21
ATOM     21  C   UNL     1       0.746   9.413  22.611  0.00  0.00    +0.000 C 
BRANCH  21  23
ATOM     22  C   UNL     1       0.276  11.412  21.312  0.00  0.00    +0.000 C 
ATOM     23  N   UNL     1       0.206  10.793  22.642  0.00  0.00    +0.000 NA
ATOM     24  C   UNL     1      -1.186  10.791  23.108  0.00  0.00    +0.000 C 
ENDBRANCH  21  23
ENDBRANCH  20  21
ENDBRANCH   1  20
TORSDOF 4
ENDMDL
MODEL 2
REMARK VINA RESULT:      -7.7      4.395      8.330
REMARK  Name = 
REMARK  6 active torsions:
REMARK  status: ('A' for Active; 'I' for Inactive)
REMARK    1  A    between atoms: C_1  and  N_2
REMARK    2  A    between atoms: N_2  and  C_3
REMARK    3  A    between atoms: N_2  and  C_4
REMARK    4  A    between atoms: C_4  and  C_5
REMARK    5  A    between atoms: C_5  and  C_6
REMARK    6  A    between atoms: C_11  and  C_12
REMARK                            x       y       z     vdW  Elec       q    Type
REMARK                         _______ _______ _______ _____ _____    ______ ____
ROOT
ATOM      1  C   UNL     1       6.650   4.546  14.698  0.00  0.00    +0.000 C 
ATOM      2  O   UNL     1       5.440   4.309  14.636  0.00  0.00    +0.000 OA
ATOM      3  N   UNL     1       7.404   4.762  15.818  0.00  0.00    +0.000 N 
ATOM      4  C   UNL     1       6.791   4.779  17.030  0.00  0.00    +0.000 A 
ATOM      5  N   UNL     1       5.645   4.254  17.333  0.00  0.00    +0.000 NA
ATOM      6  C   UNL     1       5.270   4.600  18.615  0.00  0.00    +0.000 A 
ATOM      7  C   UNL     1       6.200   5.397  19.262  0.00  0.00    +0.000 A 
ATOM      8  S   UNL     1       7.596   5.619  18.279  0.00  0.00    +0.000 S 
ATOM      9  H   UNL     1       8.284   5.249  15.738  0.00  0.00    +0.000 HD
ENDROOT
BRANCH   6  10
ATOM     10  C   UNL     1       3.936   4.078  19.092  0.00  0.00    +0.000 C 
ATOM     11  C   UNL     1       2.986   3.876  17.875  0.00  0.00    +0.000 C 
ATOM     12  C   UNL     1       1.613   3.350  18.330  0.00  0.00    +0.000 C 
ATOM     13  C   UNL     1       1.802   2.009  19.054  0.00  0.00    +0.000 C 
ATOM     14  C   UNL     1       2.704   2.199  20.284  0.00  0.00    +0.000 C 
ATOM     15  C   UNL     1       2.067   3.220  21.238  0.00  0.00    +0.000 C 
ATOM     16  C   UNL     1       1.881   4.565  20.519  0.00  0.00    +0.000 C 
ATOM     17  C   UNL     1       0.975   4.363  19.294  0.00  0.00    +0.000 C 
ATOM     18  C   UNL     1       3.254   5.090  20.059  0.00  0.00    +0.000 C 
ATOM     19  C   UNL     1       4.074   2.722  19.827  0.00  0.00    +0.000 C 
ENDBRANCH   6  10
BRANCH   1  20
ATOM     20  C   UNL     1       7.437   4.626  13.408  0.00  0.00    +0.000 C 
BRANCH  20  21
ATOM     21  C   UNL     1       6.566   4.273  12.201  0.00  0.00    +0.000 C 
BRANCH  21  23
ATOM     22  C   UNL     1       4.969   2.568  11.533  0.00  0.00    +0.000 C 
ATOM     23  N   UNL     1       6.310   2.819  12.076  0.00  0.00    +0.000 NA
ATOM     24  C   UNL     1       7.314   2.192  11.209  0.00  0.00    +0.000 C 
ENDBRANCH  21  23
ENDBRANCH  20  21
ENDBRANCH   1  20
TORSDOF 4
ENDMDL
MODEL 3
REMARK VINA RESULT:      -7.7      4.399      8.327
REMARK  Name = 
REMARK  6 active torsions:
REMARK  status: ('A' for Active; 'I' for Inactive)
REMARK    1  A    between atoms: C_1  and  N_2
REMARK    2  A    between atoms: N_2  and  C_3
REMARK    3  A    between atoms: N_2  and  C_4
REMARK    4  A    between atoms: C_4  and  C_5
REMARK    5  A    between atoms: C_5  and  C_6
REMARK    6  A    between atoms: C_11  and  C_12
REMARK                            x       y       z     vdW  Elec       q    Type
REMARK                         _______ _______ _______ _____ _____    ______ ____
ROOT
ATOM      1  C   UNL     1       6.696   4.630  14.655  0.00  0.00    +0.000 C 
ATOM      2  O   UNL     1       5.482   4.414  14.583  0.00  0.00    +0.000 OA
ATOM      3  N   UNL     1       7.447   4.805  15.784  0.00  0.00    +0.000 N 
ATOM      4  C   UNL     1       6.830   4.798  16.993  0.00  0.00    +0.000 A 
ATOM      5  N   UNL     1       5.674   4.284  17.278  0.00  0.00    +0.000 NA
ATOM      6  C   UNL     1       5.300   4.602  18.567  0.00  0.00    +0.000 A 
ATOM      7  C   UNL     1       6.239   5.366  19.240  0.00  0.00    +0.000 A 
ATOM      8  S   UNL     1       7.642   5.592  18.267  0.00  0.00    +0.000 S 
ATOM      9  H   UNL     1       8.335   5.279  15.721  0.00  0.00    +0.000 HD
ENDROOT
BRANCH   6  10
ATOM     10  C   UNL     1       3.955   4.088  19.025  0.00  0.00    +0.000 C 
ATOM     11  C   UNL     1       3.317   5.104  20.018  0.00  0.00    +0.000 C 
ATOM     12  C   UNL     1       1.946   4.606  20.509  0.00  0.00    +0.000 C 
ATOM     13  C   UNL     1       1.015   4.421  19.303  0.00  0.00    +0.000 C 
ATOM     14  C   UNL     1       1.610   3.390  18.332  0.00  0.00    +0.000 C 
ATOM     15  C   UNL     1       1.795   2.048  19.055  0.00  0.00    +0.000 C 
ATOM     16  C   UNL     1       2.731   2.225  20.261  0.00  0.00    +0.000 C 
ATOM     17  C   UNL     1       2.123   3.257  21.225  0.00  0.00    +0.000 C 
ATOM     18  C   UNL     1       4.101   2.730  19.770  0.00  0.00    +0.000 C 
ATOM     19  C   UNL     1       2.977   3.891  17.841  0.00  0.00    +0.000 C 
ENDBRANCH   6  10
BRANCH   1  20
ATOM     20  C   UNL     1       7.489   4.733  13.371  0.00  0.00    +0.000 C 
BRANCH  20  21
ATOM     21  C   UNL     1       6.644   4.331  12.161  0.00  0.00    +0.000 C 
BRANCH  21  23
ATOM     22  C   UNL     1       5.035   2.604  11.585  0.00  0.00    +0.000 C 
ATOM     23  N   UNL     1       6.386   2.874  12.091  0.00  0.00    +0.000 NA
ATOM     24  C   UNL     1       7.373   2.217  11.225  0.00  0.00    +0.000 C 
ENDBRANCH  21  23
ENDBRANCH  20  21
ENDBRANCH   1  20
TORSDOF 4
ENDMDL
MODEL 4
REMARK VINA RESULT:      -7.7      4.370      8.350
REMARK  Name = 
REMARK  6 active torsions:
REMARK  status: ('A' for Active; 'I' for Inactive)
REMARK    1  A    between atoms: C_1  and  N_2
REMARK    2  A    between atoms: N_2  and  C_3
REMARK    3  A    between atoms: N_2  and  C_4
REMARK    4  A    between atoms: C_4  and  C_5
REMARK    5  A    between atoms: C_5  and  C_6
REMARK    6  A    between atoms: C_11  and  C_12
REMARK                            x       y       z     vdW  Elec       q    Type
REMARK                         _______ _______ _______ _____ _____    ______ ____
ROOT
ATOM      1  C   UNL     1       6.596   4.484  14.733  0.00  0.00    +0.000 C 
ATOM      2  O   UNL     1       5.384   4.258  14.674  0.00  0.00    +0.000 OA
ATOM      3  N   UNL     1       7.352   4.710  15.849  0.00  0.00    +0.000 N 
ATOM      4  C   UNL     1       6.739   4.752  17.061  0.00  0.00    +0.000 A 
ATOM      5  N   UNL     1       5.588   4.243  17.372  0.00  0.00    +0.000 NA
ATOM      6  C   UNL     1       5.217   4.613  18.648  0.00  0.00    +0.000 A 
ATOM      7  C   UNL     1       6.155   5.410  19.284  0.00  0.00    +0.000 A 
ATOM      8  S   UNL     1       7.553   5.603  18.297  0.00  0.00    +0.000 S 
ATOM      9  H   UNL     1       8.237   5.186  15.762  0.00  0.00    +0.000 HD
ENDROOT
BRANCH   6  10
ATOM     10  C   UNL     1       3.877   4.112  19.134  0.00  0.00    +0.000 C 
ATOM     11  C   UNL     1       4.064   2.759  19.884  0.00  0.00    +0.000 C 
ATOM     12  C   UNL     1       2.714   2.219  20.386  0.00  0.00    +0.000 C 
ATOM     13  C   UNL     1       2.082   3.244  21.338  0.00  0.00    +0.000 C 
ATOM     14  C   UNL     1       1.852   4.573  20.602  0.00  0.00    +0.000 C 
ATOM     15  C   UNL     1       0.926   4.343  19.399  0.00  0.00    +0.000 C 
ATOM     16  C   UNL     1       1.556   3.321  18.440  0.00  0.00    +0.000 C 
ATOM     17  C   UNL     1       1.778   1.996  19.187  0.00  0.00    +0.000 C 
ATOM     18  C   UNL     1       2.910   3.859  17.941  0.00  0.00    +0.000 C 
ATOM     19  C   UNL     1       3.202   5.112  20.103  0.00  0.00    +0.000 C 
ENDBRANCH   6  10
BRANCH   1  20
ATOM     20  C   UNL     1       7.384   4.536  13.442  0.00  0.00    +0.000 C 
BRANCH  20  21
ATOM     21  C   UNL     1       6.499   4.216  12.236  0.00  0.00    +0.000 C 
BRANCH  21  23
ATOM     22  C   UNL     1       4.979   2.504  11.421  0.00  0.00    +0.000 C 
ATOM     23  N   UNL     1       6.282   2.762  12.046  0.00  0.00    +0.000 NA
ATOM     24  C   UNL     1       7.347   2.187  11.214  0.00  0.00    +0.000 C 
ENDBRANCH  21  23
ENDBRANCH  20  21
ENDBRANCH   1  20
TORSDOF 4
ENDMDL
MODEL 5
REMARK VINA RESULT:      -7.7      0.608      1.701
REMARK  Name = 
REMARK  6 active torsions:
REMARK  status: ('A' for Active; 'I' for Inactive)
REMARK    1  A    between atoms: C_1  and  N_2
REMARK    2  A    between atoms: N_2  and  C_3
REMARK    3  A    between atoms: N_2  and  C_4
REMARK    4  A    between atoms: C_4  and  C_5
REMARK    5  A    between atoms: C_5  and  C_6
REMARK    6  A    between atoms: C_11  and  C_12
REMARK                            x       y       z     vdW  Elec       q    Type
REMARK                         _______ _______ _______ _____ _____    ______ ____
ROOT
ATOM      1  C   UNL     1       1.211   7.906  20.853  0.00  0.00    +0.000 C 
ATOM      2  O   UNL     1       1.829   8.463  19.942  0.00  0.00    +0.000 OA
ATOM      3  N   UNL     1       1.282   6.595  21.232  0.00  0.00    +0.000 N 
ATOM      4  C   UNL     1       2.075   5.748  20.526  0.00  0.00    +0.000 A 
ATOM      5  N   UNL     1       3.071   6.066  19.759  0.00  0.00    +0.000 NA
ATOM      6  C   UNL     1       3.543   4.960  19.084  0.00  0.00    +0.000 A 
ATOM      7  C   UNL     1       2.863   3.794  19.395  0.00  0.00    +0.000 A 
ATOM      8  S   UNL     1       1.692   4.087  20.623  0.00  0.00    +0.000 S 
ATOM      9  H   UNL     1       0.524   6.188  21.758  0.00  0.00    +0.000 HD
ENDROOT
BRANCH   6  10
ATOM     10  C   UNL     1       4.691   5.192  18.130  0.00  0.00    +0.000 C 
ATOM     11  C   UNL     1       6.010   5.389  18.934  0.00  0.00    +0.000 C 
ATOM     12  C   UNL     1       7.199   5.634  17.989  0.00  0.00    +0.000 C 
ATOM     13  C   UNL     1       7.353   4.429  17.049  0.00  0.00    +0.000 C 
ATOM     14  C   UNL     1       6.075   4.244  16.217  0.00  0.00    +0.000 C 
ATOM     15  C   UNL     1       5.808   5.514  15.394  0.00  0.00    +0.000 C 
ATOM     16  C   UNL     1       5.647   6.722  16.330  0.00  0.00    +0.000 C 
ATOM     17  C   UNL     1       6.933   6.897  17.155  0.00  0.00    +0.000 C 
ATOM     18  C   UNL     1       4.461   6.475  17.280  0.00  0.00    +0.000 C 
ATOM     19  C   UNL     1       4.890   3.998  17.163  0.00  0.00    +0.000 C 
ENDBRANCH   6  10
BRANCH   1  20
ATOM     20  C   UNL     1       0.238   8.726  21.672  0.00  0.00    +0.000 C 
BRANCH  20  21
ATOM     21  C   UNL     1      -0.128  10.030  20.960  0.00  0.00    +0.000 C 
BRANCH  21  23
ATOM     22  C   UNL     1       1.263  11.996  20.639  0.00  0.00    +0.000 C 
ATOM     23  N   UNL     1       0.466  11.227  21.602  0.00  0.00    +0.000 NA
ATOM     24  C   UNL     1      -0.585  12.085  22.164  0.00  0.00    +0.000 C 
ENDBRANCH  21  23
ENDBRANCH  20  21
ENDBRANCH   1  20
TORSDOF 4
ENDMDL
MODEL 6
REMARK VINA RESULT:      -7.7      0.585      1.510
REMARK  Name = 
REMARK  6 active torsions:
REMARK  status: ('A' for Active; 'I' for Inactive)
REMARK    1  A    between atoms: C_1  and  N_2
REMARK    2  A    between atoms: N_2  and  C_3
REMARK    3  A    between atoms: N_2  and  C_4
REMARK    4  A    between atoms: C_4  and  C_5
REMARK    5  A    between atoms: C_5  and  C_6
REMARK    6  A    between atoms: C_11  and  C_12
REMARK                            x       y       z     vdW  Elec       q    Type
REMARK                         _______ _______ _______ _____ _____    ______ ____
ROOT
ATOM      1  C   UNL     1       1.265   7.860  20.759  0.00  0.00    +0.000 C 
ATOM      2  O   UNL     1       1.790   8.375  19.766  0.00  0.00    +0.000 OA
ATOM      3  N   UNL     1       1.424   6.584  21.220  0.00  0.00    +0.000 N 
ATOM      4  C   UNL     1       2.201   5.721  20.516  0.00  0.00    +0.000 A 
ATOM      5  N   UNL     1       3.123   6.023  19.656  0.00  0.00    +0.000 NA
ATOM      6  C   UNL     1       3.596   4.891  19.025  0.00  0.00    +0.000 A 
ATOM      7  C   UNL     1       2.994   3.724  19.466  0.00  0.00    +0.000 A 
ATOM      8  S   UNL     1       1.902   4.057  20.756  0.00  0.00    +0.000 S 
ATOM      9  H   UNL     1       0.725   6.185  21.829  0.00  0.00    +0.000 HD
ENDROOT
BRANCH   6  10
ATOM     10  C   UNL     1       4.660   5.100  17.973  0.00  0.00    +0.000 C 
ATOM     11  C   UNL     1       4.380   4.171  16.754  0.00  0.00    +0.000 C 
ATOM     12  C   UNL     1       5.452   4.356  15.666  0.00  0.00    +0.000 C 
ATOM     13  C   UNL     1       5.452   5.819  15.200  0.00  0.00    +0.000 C 
ATOM     14  C   UNL     1       5.767   6.747  16.383  0.00  0.00    +0.000 C 
ATOM     15  C   UNL     1       7.141   6.388  16.967  0.00  0.00    +0.000 C 
ATOM     16  C   UNL     1       7.146   4.927  17.440  0.00  0.00    +0.000 C 
ATOM     17  C   UNL     1       6.832   4.009  16.248  0.00  0.00    +0.000 C 
ATOM     18  C   UNL     1       6.069   4.740  18.526  0.00  0.00    +0.000 C 
ATOM     19  C   UNL     1       4.694   6.563  17.468  0.00  0.00    +0.000 C 
ENDBRANCH   6  10
BRANCH   1  20
ATOM     20  C   UNL     1       0.318   8.697  21.590  0.00  0.00    +0.000 C 
BRANCH  20  21
ATOM     21  C   UNL     1       0.229  10.130  21.060  0.00  0.00    +0.000 C 
BRANCH  21  23
ATOM     22  C   UNL     1      -0.078  12.484  21.575  0.00  0.00    +0.000 C 
ATOM     23  N   UNL     1       0.095  11.139  22.137  0.00  0.00    +0.000 NA
ATOM     24  C   UNL     1      -1.045  10.820  23.004  0.00  0.00    +0.000 C 
ENDBRANCH  21  23
ENDBRANCH  20  21
ENDBRANCH   1  20
TORSDOF 4
ENDMDL
MODEL 7
REMARK VINA RESULT:      -7.3      4.349      8.277
REMARK  Name = 
REMARK  6 active torsions:
REMARK  status: ('A' for Active; 'I' for Inactive)
REMARK    1  A    between atoms: C_1  and  N_2
REMARK    2  A    between atoms: N_2  and  C_3
REMARK    3  A    between atoms: N_2  and  C_4
REMARK    4  A    between atoms: C_4  and  C_5
REMARK    5  A    between atoms: C_5  and  C_6
REMARK    6  A    between atoms: C_11  and  C_12
REMARK                            x       y       z     vdW  Elec       q    Type
REMARK                         _______ _______ _______ _____ _____    ______ ____
ROOT
ATOM      1  C   UNL     1       6.411   4.496  14.733  0.00  0.00    +0.000 C 
ATOM      2  O   UNL     1       5.793   3.461  14.998  0.00  0.00    +0.000 OA
ATOM      3  N   UNL     1       6.304   5.714  15.345  0.00  0.00    +0.000 N 
ATOM      4  C   UNL     1       5.390   5.873  16.337  0.00  0.00    +0.000 A 
ATOM      5  N   UNL     1       4.844   4.941  17.054  0.00  0.00    +0.000 NA
ATOM      6  C   UNL     1       3.849   5.459  17.857  0.00  0.00    +0.000 A 
ATOM      7  C   UNL     1       3.687   6.827  17.718  0.00  0.00    +0.000 A 
ATOM      8  S   UNL     1       4.870   7.470  16.643  0.00  0.00    +0.000 S 
ATOM      9  H   UNL     1       6.607   6.543  14.858  0.00  0.00    +0.000 HD
ENDROOT
BRANCH   6  10
ATOM     10  C   UNL     1       3.106   4.475  18.730  0.00  0.00    +0.000 C 
ATOM     11  C   UNL     1       1.735   4.127  18.077  0.00  0.00    +0.000 C 
ATOM     12  C   UNL     1       0.950   3.130  18.947  0.00  0.00    +0.000 C 
ATOM     13  C   UNL     1       1.775   1.845  19.113  0.00  0.00    +0.000 C 
ATOM     14  C   UNL     1       3.115   2.165  19.794  0.00  0.00    +0.000 C 
ATOM     15  C   UNL     1       2.856   2.797  21.169  0.00  0.00    +0.000 C 
ATOM     16  C   UNL     1       2.035   4.085  21.009  0.00  0.00    +0.000 C 
ATOM     17  C   UNL     1       0.697   3.752  20.330  0.00  0.00    +0.000 C 
ATOM     18  C   UNL     1       2.819   5.082  20.134  0.00  0.00    +0.000 C 
ATOM     19  C   UNL     1       3.898   3.159  18.922  0.00  0.00    +0.000 C 
ENDBRANCH   6  10
BRANCH   1  20
ATOM     20  C   UNL     1       7.411   4.470  13.597  0.00  0.00    +0.000 C 
BRANCH  20  21
ATOM     21  C   UNL     1       6.716   4.264  12.249  0.00  0.00    +0.000 C 
BRANCH  21  23
ATOM     22  C   UNL     1       4.721   3.055  11.570  0.00  0.00    +0.000 C 
ATOM     23  N   UNL     1       6.075   2.934  12.124  0.00  0.00    +0.000 NA
ATOM     24  C   UNL     1       6.878   2.054  11.267  0.00  0.00    +0.000 C 
ENDBRANCH  21  23
ENDBRANCH  20  21
ENDBRANCH   1  20
TORSDOF 4
ENDMDL
MODEL 8
REMARK VINA RESULT:      -7.3      4.377      8.289
REMARK  Name = 
REMARK  6 active torsions:
REMARK  status: ('A' for Active; 'I' for Inactive)
REMARK    1  A    between atoms: C_1  and  N_2
REMARK    2  A    between atoms: N_2  and  C_3
REMARK    3  A    between atoms: N_2  and  C_4
REMARK    4  A    between atoms: C_4  and  C_5
REMARK    5  A    between atoms: C_5  and  C_6
REMARK    6  A    between atoms: C_11  and  C_12
REMARK                            x       y       z     vdW  Elec       q    Type
REMARK                         _______ _______ _______ _____ _____    ______ ____
ROOT
ATOM      1  C   UNL     1       6.377   4.407  14.664  0.00  0.00    +0.000 C 
ATOM      2  O   UNL     1       5.725   3.391  14.924  0.00  0.00    +0.000 OA
ATOM      3  N   UNL     1       6.314   5.622  15.287  0.00  0.00    +0.000 N 
ATOM      4  C   UNL     1       5.410   5.805  16.284  0.00  0.00    +0.000 A 
ATOM      5  N   UNL     1       4.836   4.887  16.996  0.00  0.00    +0.000 NA
ATOM      6  C   UNL     1       3.863   5.431  17.808  0.00  0.00    +0.000 A 
ATOM      7  C   UNL     1       3.747   6.805  17.680  0.00  0.00    +0.000 A 
ATOM      8  S   UNL     1       4.946   7.416  16.606  0.00  0.00    +0.000 S 
ATOM      9  H   UNL     1       6.643   6.445  14.805  0.00  0.00    +0.000 HD
ENDROOT
BRANCH   6  10
ATOM     10  C   UNL     1       3.090   4.466  18.676  0.00  0.00    +0.000 C 
ATOM     11  C   UNL     1       2.844   5.103  20.076  0.00  0.00    +0.000 C 
ATOM     12  C   UNL     1       2.063   4.141  20.988  0.00  0.00    +0.000 C 
ATOM     13  C   UNL     1       0.713   3.811  20.336  0.00  0.00    +0.000 C 
ATOM     14  C   UNL     1       0.938   3.143  18.970  0.00  0.00    +0.000 C 
ATOM     15  C   UNL     1       1.754   1.855  19.155  0.00  0.00    +0.000 C 
ATOM     16  C   UNL     1       3.109   2.180  19.802  0.00  0.00    +0.000 C 
ATOM     17  C   UNL     1       2.871   2.845  21.168  0.00  0.00    +0.000 C 
ATOM     18  C   UNL     1       3.888   3.148  18.892  0.00  0.00    +0.000 C 
ATOM     19  C   UNL     1       1.716   4.107  18.061  0.00  0.00    +0.000 C 
ENDBRANCH   6  10
BRANCH   1  20
ATOM     20  C   UNL     1       7.369   4.356  13.523  0.00  0.00    +0.000 C 
BRANCH  20  21
ATOM     21  C   UNL     1       6.663   4.166  12.179  0.00  0.00    +0.000 C 
BRANCH  21  23
ATOM     22  C   UNL     1       4.568   3.122  11.528  0.00  0.00    +0.000 C 
ATOM     23  N   UNL     1       5.902   2.897  12.099  0.00  0.00    +0.000 NA
ATOM     24  C   UNL     1       6.624   1.913  11.283  0.00  0.00    +0.000 C 
ENDBRANCH  21  23
ENDBRANCH  20  21
ENDBRANCH   1  20
TORSDOF 4
ENDMDL
MODEL 9
REMARK VINA RESULT:      -7.3      4.352      8.270
REMARK  Name = 
REMARK  6 active torsions:
REMARK  status: ('A' for Active; 'I' for Inactive)
REMARK    1  A    between atoms: C_1  and  N_2
REMARK    2  A    between atoms: N_2  and  C_3
REMARK    3  A    between atoms: N_2  and  C_4
REMARK    4  A    between atoms: C_4  and  C_5
REMARK    5  A    between atoms: C_5  and  C_6
REMARK    6  A    between atoms: C_11  and  C_12
REMARK                            x       y       z     vdW  Elec       q    Type
REMARK                         _______ _______ _______ _____ _____    ______ ____
ROOT
ATOM      1  C   UNL     1       6.388   4.489  14.708  0.00  0.00    +0.000 C 
ATOM      2  O   UNL     1       5.753   3.462  14.969  0.00  0.00    +0.000 OA
ATOM      3  N   UNL     1       6.299   5.706  15.325  0.00  0.00    +0.000 N 
ATOM      4  C   UNL     1       5.385   5.876  16.316  0.00  0.00    +0.000 A 
ATOM      5  N   UNL     1       4.824   4.950  17.028  0.00  0.00    +0.000 NA
ATOM      6  C   UNL     1       3.836   5.480  17.831  0.00  0.00    +0.000 A 
ATOM      7  C   UNL     1       3.695   6.851  17.697  0.00  0.00    +0.000 A 
ATOM      8  S   UNL     1       4.889   7.479  16.627  0.00  0.00    +0.000 S 
ATOM      9  H   UNL     1       6.615   6.532  14.841  0.00  0.00    +0.000 HD
ENDROOT
BRANCH   6  10
ATOM     10  C   UNL     1       3.076   4.504  18.700  0.00  0.00    +0.000 C 
ATOM     11  C   UNL     1       3.909   3.200  18.875  0.00  0.00    +0.000 C 
ATOM     12  C   UNL     1       3.158   2.182  19.751  0.00  0.00    +0.000 C 
ATOM     13  C   UNL     1       2.890   2.803  21.130  0.00  0.00    +0.000 C 
ATOM     14  C   UNL     1       2.033   4.070  20.979  0.00  0.00    +0.000 C 
ATOM     15  C   UNL     1       0.701   3.713  20.302  0.00  0.00    +0.000 C 
ATOM     16  C   UNL     1       0.963   3.096  18.919  0.00  0.00    +0.000 C 
ATOM     17  C   UNL     1       1.818   1.829  19.084  0.00  0.00    +0.000 C 
ATOM     18  C   UNL     1       1.720   4.113  18.044  0.00  0.00    +0.000 C 
ATOM     19  C   UNL     1       2.786   5.085  20.105  0.00  0.00    +0.000 C 
ENDBRANCH   6  10
BRANCH   1  20
ATOM     20  C   UNL     1       7.389   4.451  13.574  0.00  0.00    +0.000 C 
BRANCH  20  21
ATOM     21  C   UNL     1       6.695   4.245  12.226  0.00  0.00    +0.000 C 
BRANCH  21  23
ATOM     22  C   UNL     1       4.688   3.059  11.541  0.00  0.00    +0.000 C 
ATOM     23  N   UNL     1       6.034   2.923  12.111  0.00  0.00    +0.000 NA
ATOM     24  C   UNL     1       6.832   2.020  11.272  0.00  0.00    +0.000 C 
ENDBRANCH  21  23
ENDBRANCH  20  21
ENDBRANCH   1  20
TORSDOF 4
ENDMDL
