MODEL 1
REMARK VINA RESULT:      -7.4      0.000      0.000
REMARK  Name = 
REMARK  7 active torsions:
REMARK  status: ('A' for Active; 'I' for Inactive)
REMARK    1  A    between atoms: C_1  and  O_2
REMARK    2  A    between atoms: O_2  and  C_3
REMARK    3  A    between atoms: C_6  and  C_7
REMARK    4  A    between atoms: C_7  and  N_8
REMARK    5  A    between atoms: C_14  and  C_15
REMARK    6  A    between atoms: C_20  and  O_21
REMARK    7  A    between atoms: O_21  and  C_22
REMARK                            x       y       z     vdW  Elec       q    Type
REMARK                         _______ _______ _______ _____ _____    ______ ____
ROOT
ATOM      1  N   UNL     1       3.742   4.586  19.068  0.00  0.00    +0.000 NA
ATOM      2  C   UNL     1       4.239   3.798  20.198  0.00  0.00    +0.000 C 
ATOM      3  C   UNL     1       3.532   2.481  20.524  0.00  0.00    +0.000 C 
ATOM      4  C   UNL     1       2.224   2.638  21.261  0.00  0.00    +0.000 C 
ATOM      5  C   UNL     1       1.140   3.229  20.378  0.00  0.00    +0.000 C 
ATOM      6  C   UNL     1       1.347   4.719  20.155  0.00  0.00    +0.000 C 
ATOM      7  C   UNL     1       2.356   5.115  19.050  0.00  0.00    +0.000 C 
ENDROOT
BRANCH   7   8
ATOM      8  C   UNL     1       2.269   6.640  18.883  0.00  0.00    +0.000 A 
ATOM      9  C   UNL     1       2.470   7.410  17.750  0.00  0.00    +0.000 A 
ATOM     10  C   UNL     1       2.113   8.776  17.951  0.00  0.00    +0.000 A 
ATOM     11  C   UNL     1       1.705   9.019  19.243  0.00  0.00    +0.000 A 
ATOM     12  S   UNL     1       1.838   7.630  20.228  0.00  0.00    +0.000 S 
ENDBRANCH   7   8
BRANCH   1  13
ATOM     13  C   UNL     1       4.788   5.523  18.588  0.00  0.00    +0.000 C 
BRANCH  13  17
ATOM     14  C   UNL     1       6.521   4.539  14.747  0.00  0.00    +0.000 A 
ATOM     15  C   UNL     1       5.234   4.127  15.072  0.00  0.00    +0.000 A 
ATOM     16  C   UNL     1       4.694   4.433  16.315  0.00  0.00    +0.000 A 
ATOM     17  C   UNL     1       5.445   5.134  17.272  0.00  0.00    +0.000 A 
ATOM     18  C   UNL     1       6.736   5.576  16.937  0.00  0.00    +0.000 A 
ATOM     19  C   UNL     1       7.271   5.252  15.686  0.00  0.00    +0.000 A 
BRANCH  14  21
ATOM     20  C   UNL     1       5.970   3.531  12.666  0.00  0.00    +0.000 C 
ATOM     21  O   UNL     1       6.927   4.192  13.484  0.00  0.00    +0.000 OA
ENDBRANCH  14  21
BRANCH  18  22
ATOM     22  O   UNL     1       7.400   6.327  17.879  0.00  0.00    +0.000 OA
ATOM     23  C   UNL     1       7.652   7.694  17.567  0.00  0.00    +0.000 C 
ENDBRANCH  18  22
ENDBRANCH  13  17
ENDBRANCH   1  13
TORSDOF 5
ENDMDL
MODEL 2
REMARK VINA RESULT:      -7.1      0.997      1.010
REMARK  Name = 
REMARK  7 active torsions:
REMARK  status: ('A' for Active; 'I' for Inactive)
REMARK    1  A    between atoms: C_1  and  O_2
REMARK    2  A    between atoms: O_2  and  C_3
REMARK    3  A    between atoms: C_6  and  C_7
REMARK    4  A    between atoms: C_7  and  N_8
REMARK    5  A    between atoms: C_14  and  C_15
REMARK    6  A    between atoms: C_20  and  O_21
REMARK    7  A    between atoms: O_21  and  C_22
REMARK                            x       y       z     vdW  Elec       q    Type
REMARK                         _______ _______ _______ _____ _____    ______ ____
ROOT
ATOM      1  N   UNL     1       3.630   4.139  18.070  0.00  0.00    +0.000 NA
ATOM      2  C   UNL     1       4.047   3.023  18.920  0.00  0.00    +0.000 C 
ATOM      3  C   UNL     1       3.258   1.715  18.829  0.00  0.00    +0.000 C 
ATOM      4  C   UNL     1       1.938   1.727  19.562  0.00  0.00    +0.000 C 
ATOM      5  C   UNL     1       0.916   2.620  18.881  0.00  0.00    +0.000 C 
ATOM      6  C   UNL     1       1.213   4.094  19.115  0.00  0.00    +0.000 C 
ATOM      7  C   UNL     1       2.276   4.736  18.192  0.00  0.00    +0.000 C 
ENDROOT
BRANCH   7   8
ATOM      8  C   UNL     1       2.279   6.243  18.486  0.00  0.00    +0.000 A 
ATOM      9  C   UNL     1       2.383   7.308  17.606  0.00  0.00    +0.000 A 
ATOM     10  C   UNL     1       2.157   8.564  18.242  0.00  0.00    +0.000 A 
ATOM     11  C   UNL     1       1.943   8.427  19.594  0.00  0.00    +0.000 A 
ATOM     12  S   UNL     1       2.105   6.805  20.107  0.00  0.00    +0.000 S 
ENDBRANCH   7   8
BRANCH   1  13
ATOM     13  C   UNL     1       4.741   5.110  17.905  0.00  0.00    +0.000 C 
BRANCH  13  17
ATOM     14  C   UNL     1       6.896   4.806  14.165  0.00  0.00    +0.000 A 
ATOM     15  C   UNL     1       5.598   4.323  14.278  0.00  0.00    +0.000 A 
ATOM     16  C   UNL     1       4.922   4.409  15.488  0.00  0.00    +0.000 A 
ATOM     17  C   UNL     1       5.544   4.955  16.622  0.00  0.00    +0.000 A 
ATOM     18  C   UNL     1       6.846   5.470  16.506  0.00  0.00    +0.000 A 
ATOM     19  C   UNL     1       7.519   5.367  15.283  0.00  0.00    +0.000 A 
BRANCH  14  21
ATOM     20  C   UNL     1       6.849   3.717  12.053  0.00  0.00    +0.000 C 
ATOM     21  O   UNL     1       7.443   4.680  12.915  0.00  0.00    +0.000 OA
ENDBRANCH  14  21
BRANCH  18  22
ATOM     22  O   UNL     1       7.382   6.067  17.623  0.00  0.00    +0.000 OA
ATOM     23  C   UNL     1       7.604   7.473  17.571  0.00  0.00    +0.000 C 
ENDBRANCH  18  22
ENDBRANCH  13  17
ENDBRANCH   1  13
TORSDOF 5
ENDMDL
MODEL 3
REMARK VINA RESULT:      -6.8      3.016      6.347
REMARK  Name = 
REMARK  7 active torsions:
REMARK  status: ('A' for Active; 'I' for Inactive)
REMARK    1  A    between atoms: C_1  and  O_2
REMARK    2  A    between atoms: O_2  and  C_3
REMARK    3  A    between atoms: C_6  and  C_7
REMARK    4  A    between atoms: C_7  and  N_8
REMARK    5  A    between atoms: C_14  and  C_15
REMARK    6  A    between atoms: C_20  and  O_21
REMARK    7  A    between atoms: O_21  and  C_22
REMARK                            x       y       z     vdW  Elec       q    Type
REMARK                         _______ _______ _______ _____ _____    ______ ____
ROOT
ATOM      1  N   UNL     1       4.472   5.828  17.824  0.00  0.00    +0.000 NA
ATOM      2  C   UNL     1       5.910   6.028  18.009  0.00  0.00    +0.000 C 
ATOM      3  C   UNL     1       6.776   6.230  16.764  0.00  0.00    +0.000 C 
ATOM      4  C   UNL     1       7.091   4.962  16.008  0.00  0.00    +0.000 C 
ATOM      5  C   UNL     1       5.869   4.397  15.307  0.00  0.00    +0.000 C 
ATOM      6  C   UNL     1       4.914   3.734  16.289  0.00  0.00    +0.000 C 
ATOM      7  C   UNL     1       3.949   4.674  17.051  0.00  0.00    +0.000 C 
ENDROOT
BRANCH   7   8
ATOM      8  C   UNL     1       2.975   3.782  17.836  0.00  0.00    +0.000 A 
ATOM      9  C   UNL     1       1.591   3.756  17.805  0.00  0.00    +0.000 A 
ATOM     10  C   UNL     1       1.051   2.659  18.538  0.00  0.00    +0.000 A 
ATOM     11  C   UNL     1       2.032   1.914  19.152  0.00  0.00    +0.000 A 
ATOM     12  S   UNL     1       3.586   2.587  18.920  0.00  0.00    +0.000 S 
ENDBRANCH   7   8
BRANCH   1  13
ATOM     13  C   UNL     1       3.737   6.142  19.075  0.00  0.00    +0.000 C 
BRANCH  13  17
ATOM     14  C   UNL     1       1.073   9.532  18.714  0.00  0.00    +0.000 A 
ATOM     15  C   UNL     1       1.968   9.221  17.698  0.00  0.00    +0.000 A 
ATOM     16  C   UNL     1       2.831   8.140  17.831  0.00  0.00    +0.000 A 
ATOM     17  C   UNL     1       2.837   7.366  19.003  0.00  0.00    +0.000 A 
ATOM     18  C   UNL     1       1.915   7.660  20.021  0.00  0.00    +0.000 A 
ATOM     19  C   UNL     1       1.059   8.757  19.877  0.00  0.00    +0.000 A 
BRANCH  14  21
ATOM     20  C   UNL     1      -1.084  10.316  18.094  0.00  0.00    +0.000 C 
ATOM     21  O   UNL     1       0.263  10.605  18.450  0.00  0.00    +0.000 OA
ENDBRANCH  14  21
BRANCH  18  22
ATOM     22  O   UNL     1       1.906   6.824  21.113  0.00  0.00    +0.000 OA
ATOM     23  C   UNL     1       1.415   5.501  20.920  0.00  0.00    +0.000 C 
ENDBRANCH  18  22
ENDBRANCH  13  17
ENDBRANCH   1  13
TORSDOF 5
ENDMDL
MODEL 4
REMARK VINA RESULT:      -6.8      3.202      6.677
REMARK  Name = 
REMARK  7 active torsions:
REMARK  status: ('A' for Active; 'I' for Inactive)
REMARK    1  A    between atoms: C_1  and  O_2
REMARK    2  A    between atoms: O_2  and  C_3
REMARK    3  A    between atoms: C_6  and  C_7
REMARK    4  A    between atoms: C_7  and  N_8
REMARK    5  A    between atoms: C_14  and  C_15
REMARK    6  A    between atoms: C_20  and  O_21
REMARK    7  A    between atoms: O_21  and  C_22
REMARK                            x       y       z     vdW  Elec       q    Type
REMARK                         _______ _______ _______ _____ _____    ______ ____
ROOT
ATOM      1  N   UNL     1       3.262   6.137  18.185  0.00  0.00    +0.000 NA
ATOM      2  C   UNL     1       4.592   6.657  17.866  0.00  0.00    +0.000 C 
ATOM      3  C   UNL     1       5.098   6.510  16.430  0.00  0.00    +0.000 C 
ATOM      4  C   UNL     1       5.599   5.130  16.081  0.00  0.00    +0.000 C 
ATOM      5  C   UNL     1       4.471   4.118  15.996  0.00  0.00    +0.000 C 
ATOM      6  C   UNL     1       3.958   3.730  17.374  0.00  0.00    +0.000 C 
ATOM      7  C   UNL     1       2.941   4.696  18.027  0.00  0.00    +0.000 C 
ENDROOT
BRANCH   7   8
ATOM      8  C   UNL     1       2.436   4.021  19.311  0.00  0.00    +0.000 A 
ATOM      9  C   UNL     1       1.147   3.946  19.813  0.00  0.00    +0.000 A 
ATOM     10  C   UNL     1       1.051   3.072  20.936  0.00  0.00    +0.000 A 
ATOM     11  C   UNL     1       2.274   2.552  21.292  0.00  0.00    +0.000 A 
ATOM     12  S   UNL     1       3.542   3.184  20.336  0.00  0.00    +0.000 S 
ENDBRANCH   7   8
BRANCH   1  13
ATOM     13  C   UNL     1       2.735   6.775  19.418  0.00  0.00    +0.000 C 
BRANCH  13  17
ATOM     14  C   UNL     1       0.306  10.278  18.676  0.00  0.00    +0.000 A 
ATOM     15  C   UNL     1       0.899   9.590  17.625  0.00  0.00    +0.000 A 
ATOM     16  C   UNL     1       1.691   8.476  17.875  0.00  0.00    +0.000 A 
ATOM     17  C   UNL     1       1.932   8.047  19.190  0.00  0.00    +0.000 A 
ATOM     18  C   UNL     1       1.313   8.724  20.254  0.00  0.00    +0.000 A 
ATOM     19  C   UNL     1       0.526   9.850  19.988  0.00  0.00    +0.000 A 
BRANCH  14  21
ATOM     20  C   UNL     1      -0.117  12.612  18.835  0.00  0.00    +0.000 C 
ATOM     21  O   UNL     1      -0.467  11.343  18.294  0.00  0.00    +0.000 OA
ENDBRANCH  14  21
BRANCH  18  22
ATOM     22  O   UNL     1       1.515   8.217  21.517  0.00  0.00    +0.000 OA
ATOM     23  C   UNL     1       1.195   9.059  22.620  0.00  0.00    +0.000 C 
ENDBRANCH  18  22
ENDBRANCH  13  17
ENDBRANCH   1  13
TORSDOF 5
ENDMDL
MODEL 5
REMARK VINA RESULT:      -6.7      1.612      3.708
REMARK  Name = 
REMARK  7 active torsions:
REMARK  status: ('A' for Active; 'I' for Inactive)
REMARK    1  A    between atoms: C_1  and  O_2
REMARK    2  A    between atoms: O_2  and  C_3
REMARK    3  A    between atoms: C_6  and  C_7
REMARK    4  A    between atoms: C_7  and  N_8
REMARK    5  A    between atoms: C_14  and  C_15
REMARK    6  A    between atoms: C_20  and  O_21
REMARK    7  A    between atoms: O_21  and  C_22
REMARK                            x       y       z     vdW  Elec       q    Type
REMARK                         _______ _______ _______ _____ _____    ______ ____
ROOT
ATOM      1  N   UNL     1       3.391   5.946  18.826  0.00  0.00    +0.000 NA
ATOM      2  C   UNL     1       2.923   6.785  17.722  0.00  0.00    +0.000 C 
ATOM      3  C   UNL     1       2.844   8.296  17.949  0.00  0.00    +0.000 C 
ATOM      4  C   UNL     1       1.645   8.748  18.747  0.00  0.00    +0.000 C 
ATOM      5  C   UNL     1       1.742   8.335  20.205  0.00  0.00    +0.000 C 
ATOM      6  C   UNL     1       1.472   6.849  20.388  0.00  0.00    +0.000 C 
ATOM      7  C   UNL     1       2.661   5.896  20.117  0.00  0.00    +0.000 C 
ENDROOT
BRANCH   7   8
ATOM      8  C   UNL     1       2.214   4.486  20.532  0.00  0.00    +0.000 A 
ATOM      9  C   UNL     1       2.541   3.761  21.666  0.00  0.00    +0.000 A 
ATOM     10  C   UNL     1       1.777   2.563  21.784  0.00  0.00    +0.000 A 
ATOM     11  C   UNL     1       0.934   2.380  20.712  0.00  0.00    +0.000 A 
ATOM     12  S   UNL     1       1.128   3.597  19.529  0.00  0.00    +0.000 S 
ENDBRANCH   7   8
BRANCH   1  13
ATOM     13  C   UNL     1       3.872   4.637  18.316  0.00  0.00    +0.000 C 
BRANCH  13  17
ATOM     14  C   UNL     1       7.027   5.061  15.385  0.00  0.00    +0.000 A 
ATOM     15  C   UNL     1       5.699   4.970  14.990  0.00  0.00    +0.000 A 
ATOM     16  C   UNL     1       4.695   4.816  15.938  0.00  0.00    +0.000 A 
ATOM     17  C   UNL     1       5.005   4.719  17.304  0.00  0.00    +0.000 A 
ATOM     18  C   UNL     1       6.345   4.838  17.710  0.00  0.00    +0.000 A 
ATOM     19  C   UNL     1       7.346   4.982  16.744  0.00  0.00    +0.000 A 
BRANCH  14  21
ATOM     20  C   UNL     1       7.446   4.925  13.049  0.00  0.00    +0.000 C 
ATOM     21  O   UNL     1       7.917   5.232  14.356  0.00  0.00    +0.000 OA
ENDBRANCH  14  21
BRANCH  18  22
ATOM     22  O   UNL     1       6.589   4.817  19.064  0.00  0.00    +0.000 OA
ATOM     23  C   UNL     1       7.591   5.698  19.562  0.00  0.00    +0.000 C 
ENDBRANCH  18  22
ENDBRANCH  13  17
ENDBRANCH   1  13
TORSDOF 5
ENDMDL
MODEL 6
REMARK VINA RESULT:      -6.6      3.173      6.461
REMARK  Name = 
REMARK  7 active torsions:
REMARK  status: ('A' for Active; 'I' for Inactive)
REMARK    1  A    between atoms: C_1  and  O_2
REMARK    2  A    between atoms: O_2  and  C_3
REMARK    3  A    between atoms: C_6  and  C_7
REMARK    4  A    between atoms: C_7  and  N_8
REMARK    5  A    between atoms: C_14  and  C_15
REMARK    6  A    between atoms: C_20  and  O_21
REMARK    7  A    between atoms: O_21  and  C_22
REMARK                            x       y       z     vdW  Elec       q    Type
REMARK                         _______ _______ _______ _____ _____    ______ ____
ROOT
ATOM      1  N   UNL     1       3.060   5.447  18.669  0.00  0.00    +0.000 NA
ATOM      2  C   UNL     1       1.918   4.932  17.912  0.00  0.00    +0.000 C 
ATOM      3  C   UNL     1       1.369   3.554  18.287  0.00  0.00    +0.000 C 
ATOM      4  C   UNL     1       2.183   2.393  17.770  0.00  0.00    +0.000 C 
ATOM      5  C   UNL     1       3.518   2.271  18.482  0.00  0.00    +0.000 C 
ATOM      6  C   UNL     1       4.500   3.339  18.022  0.00  0.00    +0.000 C 
ATOM      7  C   UNL     1       4.360   4.732  18.682  0.00  0.00    +0.000 C 
ENDROOT
BRANCH   7   8
ATOM      8  C   UNL     1       5.548   5.580  18.205  0.00  0.00    +0.000 A 
ATOM      9  C   UNL     1       5.657   6.384  17.082  0.00  0.00    +0.000 A 
ATOM     10  C   UNL     1       6.853   7.159  17.081  0.00  0.00    +0.000 A 
ATOM     11  C   UNL     1       7.648   6.883  18.171  0.00  0.00    +0.000 A 
ATOM     12  S   UNL     1       6.998   5.634  19.138  0.00  0.00    +0.000 S 
ENDBRANCH   7   8
BRANCH   1  13
ATOM     13  C   UNL     1       3.147   6.923  18.538  0.00  0.00    +0.000 C 
BRANCH  13  17
ATOM     14  C   UNL     1       0.371   9.171  20.979  0.00  0.00    +0.000 A 
ATOM     15  C   UNL     1       0.858   7.942  21.406  0.00  0.00    +0.000 A 
ATOM     16  C   UNL     1       1.735   7.220  20.607  0.00  0.00    +0.000 A 
ATOM     17  C   UNL     1       2.119   7.702  19.345  0.00  0.00    +0.000 A 
ATOM     18  C   UNL     1       1.652   8.957  18.921  0.00  0.00    +0.000 A 
ATOM     19  C   UNL     1       0.761   9.668  19.733  0.00  0.00    +0.000 A 
BRANCH  14  21
ATOM     20  C   UNL     1      -0.191   9.593  23.250  0.00  0.00    +0.000 C 
ATOM     21  O   UNL     1      -0.468   9.791  21.869  0.00  0.00    +0.000 OA
ENDBRANCH  14  21
BRANCH  18  22
ATOM     22  O   UNL     1       2.120   9.421  17.714  0.00  0.00    +0.000 OA
ATOM     23  C   UNL     1       2.455  10.804  17.630  0.00  0.00    +0.000 C 
ENDBRANCH  18  22
ENDBRANCH  13  17
ENDBRANCH   1  13
TORSDOF 5
ENDMDL
MODEL 7
REMARK VINA RESULT:      -6.5      3.166      6.611
REMARK  Name = 
REMARK  7 active torsions:
REMARK  status: ('A' for Active; 'I' for Inactive)
REMARK    1  A    between atoms: C_1  and  O_2
REMARK    2  A    between atoms: O_2  and  C_3
REMARK    3  A    between atoms: C_6  and  C_7
REMARK    4  A    between atoms: C_7  and  N_8
REMARK    5  A    between atoms: C_14  and  C_15
REMARK    6  A    between atoms: C_20  and  O_21
REMARK    7  A    between atoms: O_21  and  C_22
REMARK                            x       y       z     vdW  Elec       q    Type
REMARK                         _______ _______ _______ _____ _____    ______ ____
ROOT
ATOM      1  N   UNL     1       3.228   5.956  18.108  0.00  0.00    +0.000 NA
ATOM      2  C   UNL     1       4.492   6.644  17.840  0.00  0.00    +0.000 C 
ATOM      3  C   UNL     1       5.076   6.554  16.430  0.00  0.00    +0.000 C 
ATOM      4  C   UNL     1       5.769   5.249  16.121  0.00  0.00    +0.000 C 
ATOM      5  C   UNL     1       4.787   4.097  16.000  0.00  0.00    +0.000 C 
ATOM      6  C   UNL     1       4.269   3.655  17.360  0.00  0.00    +0.000 C 
ATOM      7  C   UNL     1       3.106   4.485  17.956  0.00  0.00    +0.000 C 
ENDROOT
BRANCH   7   8
ATOM      8  C   UNL     1       2.636   3.759  19.226  0.00  0.00    +0.000 A 
ATOM      9  C   UNL     1       3.366   3.383  20.341  0.00  0.00    +0.000 A 
ATOM     10  C   UNL     1       2.537   2.897  21.395  0.00  0.00    +0.000 A 
ATOM     11  C   UNL     1       1.210   2.863  21.034  0.00  0.00    +0.000 A 
ATOM     12  S   UNL     1       0.976   3.329  19.407  0.00  0.00    +0.000 S 
ENDBRANCH   7   8
BRANCH   1  13
ATOM     13  C   UNL     1       2.568   6.529  19.308  0.00  0.00    +0.000 C 
BRANCH  13  17
ATOM     14  C   UNL     1       1.108  10.562  18.735  0.00  0.00    +0.000 A 
ATOM     15  C   UNL     1       1.837   9.923  17.740  0.00  0.00    +0.000 A 
ATOM     16  C   UNL     1       2.317   8.634  17.941  0.00  0.00    +0.000 A 
ATOM     17  C   UNL     1       2.101   7.969  19.159  0.00  0.00    +0.000 A 
ATOM     18  C   UNL     1       1.340   8.601  20.157  0.00  0.00    +0.000 A 
ATOM     19  C   UNL     1       0.872   9.903  19.944  0.00  0.00    +0.000 A 
BRANCH  14  21
ATOM     20  C   UNL     1       1.604  12.881  18.580  0.00  0.00    +0.000 C 
ATOM     21  O   UNL     1       0.674  11.819  18.403  0.00  0.00    +0.000 OA
ENDBRANCH  14  21
BRANCH  18  22
ATOM     22  O   UNL     1       1.088   7.878  21.299  0.00  0.00    +0.000 OA
ATOM     23  C   UNL     1       0.139   8.413  22.217  0.00  0.00    +0.000 C 
ENDBRANCH  18  22
ENDBRANCH  13  17
ENDBRANCH   1  13
TORSDOF 5
ENDMDL
MODEL 8
REMARK VINA RESULT:      -6.5      2.864      6.405
REMARK  Name = 
REMARK  7 active torsions:
REMARK  status: ('A' for Active; 'I' for Inactive)
REMARK    1  A    between atoms: C_1  and  O_2
REMARK    2  A    between atoms: O_2  and  C_3
REMARK    3  A    between atoms: C_6  and  C_7
REMARK    4  A    between atoms: C_7  and  N_8
REMARK    5  A    between atoms: C_14  and  C_15
REMARK    6  A    between atoms: C_20  and  O_21
REMARK    7  A    between atoms: O_21  and  C_22
REMARK                            x       y       z     vdW  Elec       q    Type
REMARK                         _______ _______ _______ _____ _____    ______ ____
ROOT
ATOM      1  N   UNL     1       4.705   5.596  17.656  0.00  0.00    +0.000 NA
ATOM      2  C   UNL     1       6.129   5.838  17.895  0.00  0.00    +0.000 C 
ATOM      3  C   UNL     1       7.016   6.162  16.691  0.00  0.00    +0.000 C 
ATOM      4  C   UNL     1       7.402   4.965  15.857  0.00  0.00    +0.000 C 
ATOM      5  C   UNL     1       6.221   4.404  15.084  0.00  0.00    +0.000 C 
ATOM      6  C   UNL     1       5.271   3.636  15.990  0.00  0.00    +0.000 C 
ATOM      7  C   UNL     1       4.249   4.480  16.790  0.00  0.00    +0.000 C 
ENDROOT
BRANCH   7   8
ATOM      8  C   UNL     1       3.294   3.497  17.483  0.00  0.00    +0.000 A 
ATOM      9  C   UNL     1       3.583   2.324  18.161  0.00  0.00    +0.000 A 
ATOM     10  C   UNL     1       2.444   1.786  18.828  0.00  0.00    +0.000 A 
ATOM     11  C   UNL     1       1.309   2.531  18.595  0.00  0.00    +0.000 A 
ATOM     12  S   UNL     1       1.599   3.815  17.506  0.00  0.00    +0.000 S 
ENDBRANCH   7   8
BRANCH   1  13
ATOM     13  C   UNL     1       3.928   5.790  18.905  0.00  0.00    +0.000 C 
BRANCH  13  17
ATOM     14  C   UNL     1       1.299   9.225  18.804  0.00  0.00    +0.000 A 
ATOM     15  C   UNL     1       2.172   8.969  17.755  0.00  0.00    +0.000 A 
ATOM     16  C   UNL     1       3.025   7.873  17.805  0.00  0.00    +0.000 A 
ATOM     17  C   UNL     1       3.041   7.027  18.925  0.00  0.00    +0.000 A 
ATOM     18  C   UNL     1       2.140   7.266  19.976  0.00  0.00    +0.000 A 
ATOM     19  C   UNL     1       1.295   8.380  19.916  0.00  0.00    +0.000 A 
BRANCH  14  21
ATOM     20  C   UNL     1      -0.444  10.602  19.650  0.00  0.00    +0.000 C 
ATOM     21  O   UNL     1       0.497  10.322  18.621  0.00  0.00    +0.000 OA
ENDBRANCH  14  21
BRANCH  18  22
ATOM     22  O   UNL     1       2.139   6.364  21.014  0.00  0.00    +0.000 OA
ATOM     23  C   UNL     1       1.344   5.191  20.861  0.00  0.00    +0.000 C 
ENDBRANCH  18  22
ENDBRANCH  13  17
ENDBRANCH   1  13
TORSDOF 5
ENDMDL
MODEL 9
REMARK VINA RESULT:      -6.3      1.347      3.504
REMARK  Name = 
REMARK  7 active torsions:
REMARK  status: ('A' for Active; 'I' for Inactive)
REMARK    1  A    between atoms: C_1  and  O_2
REMARK    2  A    between atoms: O_2  and  C_3
REMARK    3  A    between atoms: C_6  and  C_7
REMARK    4  A    between atoms: C_7  and  N_8
REMARK    5  A    between atoms: C_14  and  C_15
REMARK    6  A    between atoms: C_20  and  O_21
REMARK    7  A    between atoms: O_21  and  C_22
REMARK                            x       y       z     vdW  Elec       q    Type
REMARK                         _______ _______ _______ _____ _____    ______ ____
ROOT
ATOM      1  N   UNL     1       3.848   5.917  18.765  0.00  0.00    +0.000 NA
ATOM      2  C   UNL     1       3.826   6.682  17.517  0.00  0.00    +0.000 C 
ATOM      3  C   UNL     1       3.715   8.205  17.607  0.00  0.00    +0.000 C 
ATOM      4  C   UNL     1       2.325   8.716  17.896  0.00  0.00    +0.000 C 
ATOM      5  C   UNL     1       1.887   8.404  19.316  0.00  0.00    +0.000 C 
ATOM      6  C   UNL     1       1.527   6.935  19.483  0.00  0.00    +0.000 C 
ATOM      7  C   UNL     1       2.707   5.960  19.713  0.00  0.00    +0.000 C 
ENDROOT
BRANCH   7   8
ATOM      8  C   UNL     1       2.101   4.584  20.029  0.00  0.00    +0.000 A 
ATOM      9  C   UNL     1       1.339   3.756  19.222  0.00  0.00    +0.000 A 
ATOM     10  C   UNL     1       1.121   2.475  19.809  0.00  0.00    +0.000 A 
ATOM     11  C   UNL     1       1.673   2.382  21.067  0.00  0.00    +0.000 A 
ATOM     12  S   UNL     1       2.369   3.859  21.571  0.00  0.00    +0.000 S 
ENDBRANCH   7   8
BRANCH   1  13
ATOM     13  C   UNL     1       4.441   4.575  18.542  0.00  0.00    +0.000 C 
BRANCH  13  17
ATOM     14  C   UNL     1       6.583   4.327  14.791  0.00  0.00    +0.000 A 
ATOM     15  C   UNL     1       5.200   4.200  14.829  0.00  0.00    +0.000 A 
ATOM     16  C   UNL     1       4.523   4.264  16.041  0.00  0.00    +0.000 A 
ATOM     17  C   UNL     1       5.224   4.425  17.247  0.00  0.00    +0.000 A 
ATOM     18  C   UNL     1       6.620   4.581  17.211  0.00  0.00    +0.000 A 
ATOM     19  C   UNL     1       7.288   4.504  15.984  0.00  0.00    +0.000 A 
BRANCH  14  21
ATOM     20  C   UNL     1       6.370   3.579  12.545  0.00  0.00    +0.000 C 
ATOM     21  O   UNL     1       7.125   4.268  13.534  0.00  0.00    +0.000 OA
ENDBRANCH  14  21
BRANCH  18  22
ATOM     22  O   UNL     1       7.251   4.816  18.410  0.00  0.00    +0.000 OA
ATOM     23  C   UNL     1       7.660   6.153  18.683  0.00  0.00    +0.000 C 
ENDBRANCH  18  22
ENDBRANCH  13  17
ENDBRANCH   1  13
TORSDOF 5
ENDMDL
