MODEL 1
REMARK VINA RESULT:      -7.7      0.000      0.000
REMARK  Name = 
REMARK  7 active torsions:
REMARK  status: ('A' for Active; 'I' for Inactive)
REMARK    1  A    between atoms: C_1  and  O_2
REMARK    2  A    between atoms: O_2  and  C_3
REMARK    3  A    between atoms: C_3  and  C_4
REMARK    4  A    between atoms: N_6  and  C_7
REMARK    5  A    between atoms: C_7  and  C_8
REMARK    6  A    between atoms: C_7  and  C_15
REMARK    7  A    between atoms: C_18  and  C_19
REMARK                            x       y       z     vdW  Elec       q    Type
REMARK                         _______ _______ _______ _____ _____    ______ ____
ROOT
ATOM      1  C   UNL     1       6.894   5.379  16.764  0.00  0.00    +0.000 C 
ENDROOT
BRANCH   1   2
ATOM      2  C   UNL     1       5.514   5.129  17.366  0.00  0.00    +0.000 A 
ATOM      3  C   UNL     1       4.376   5.921  17.124  0.00  0.00    +0.000 A 
ATOM      4  C   UNL     1       3.166   5.658  17.780  0.00  0.00    +0.000 A 
ATOM      5  C   UNL     1       3.081   4.620  18.704  0.00  0.00    +0.000 A 
ATOM      6 CL   UNL     1       1.602   4.326  19.534  0.00  0.00    +0.000 Cl
ATOM      7  C   UNL     1       4.192   3.832  18.973  0.00  0.00    +0.000 A 
ATOM      8  C   UNL     1       5.394   4.085  18.308  0.00  0.00    +0.000 A 
ENDBRANCH   1   2
BRANCH   1   9
ATOM      9  C   UNL     1       6.937   4.901  15.340  0.00  0.00    +0.000 A 
ATOM     10  N   UNL     1       7.726   5.461  14.410  0.00  0.00    +0.000 NA
ATOM     11  O   UNL     1       7.313   4.852  13.225  0.00  0.00    +0.000 OA
ATOM     12  C   UNL     1       6.312   3.987  13.556  0.00  0.00    +0.000 A 
ATOM     13  C   UNL     1       5.658   3.270  12.447  0.00  0.00    +0.000 C 
ATOM     14  N   UNL     1       6.048   3.961  14.843  0.00  0.00    +0.000 NA
ENDBRANCH   1   9
BRANCH   1  17
ATOM     15  C   UNL     1       7.807   7.377  17.894  0.00  0.00    +0.000 C 
ATOM     16  O   UNL     1       8.204   6.749  18.871  0.00  0.00    +0.000 OA
ATOM     17  N   UNL     1       7.217   6.792  16.804  0.00  0.00    +0.000 N 
ATOM     18  H   UNL     1       6.857   7.377  16.058  0.00  0.00    +0.000 HD
BRANCH  15  19
ATOM     19  C   UNL     1       7.927   8.896  17.787  0.00  0.00    +0.000 C 
BRANCH  19  21
ATOM     20  C   UNL     1       9.283  10.746  18.342  0.00  0.00    +0.000 C 
ATOM     21  O   UNL     1       8.810   9.464  18.749  0.00  0.00    +0.000 OA
ENDBRANCH  19  21
ENDBRANCH  15  19
ENDBRANCH   1  17
TORSDOF 5
ENDMDL
MODEL 2
REMARK VINA RESULT:      -7.4      0.184      1.089
REMARK  Name = 
REMARK  7 active torsions:
REMARK  status: ('A' for Active; 'I' for Inactive)
REMARK    1  A    between atoms: C_1  and  O_2
REMARK    2  A    between atoms: O_2  and  C_3
REMARK    3  A    between atoms: C_3  and  C_4
REMARK    4  A    between atoms: N_6  and  C_7
REMARK    5  A    between atoms: C_7  and  C_8
REMARK    6  A    between atoms: C_7  and  C_15
REMARK    7  A    between atoms: C_18  and  C_19
REMARK                            x       y       z     vdW  Elec       q    Type
REMARK                         _______ _______ _______ _____ _____    ______ ____
ROOT
ATOM      1  C   UNL     1       6.974   5.402  16.787  0.00  0.00    +0.000 C 
ENDROOT
BRANCH   1   2
ATOM      2  C   UNL     1       5.627   5.097  17.437  0.00  0.00    +0.000 A 
ATOM      3  C   UNL     1       5.352   3.963  18.223  0.00  0.00    +0.000 A 
ATOM      4  C   UNL     1       4.062   3.728  18.719  0.00  0.00    +0.000 A 
ATOM      5  C   UNL     1       3.025   4.604  18.415  0.00  0.00    +0.000 A 
ATOM      6 CL   UNL     1       1.436   4.290  18.996  0.00  0.00    +0.000 Cl
ATOM      7  C   UNL     1       3.264   5.724  17.629  0.00  0.00    +0.000 A 
ATOM      8  C   UNL     1       4.553   5.966  17.148  0.00  0.00    +0.000 A 
ENDBRANCH   1   2
BRANCH   1   9
ATOM      9  C   UNL     1       6.983   4.930  15.361  0.00  0.00    +0.000 A 
ATOM     10  N   UNL     1       7.736   5.506  14.410  0.00  0.00    +0.000 NA
ATOM     11  O   UNL     1       7.300   4.894  13.235  0.00  0.00    +0.000 OA
ATOM     12  C   UNL     1       6.323   4.011  13.592  0.00  0.00    +0.000 A 
ATOM     13  C   UNL     1       5.651   3.287  12.499  0.00  0.00    +0.000 C 
ATOM     14  N   UNL     1       6.097   3.976  14.886  0.00  0.00    +0.000 NA
ENDBRANCH   1   9
BRANCH   1  17
ATOM     15  C   UNL     1       7.837   7.434  17.897  0.00  0.00    +0.000 C 
ATOM     16  O   UNL     1       8.282   6.821  18.863  0.00  0.00    +0.000 OA
ATOM     17  N   UNL     1       7.242   6.827  16.821  0.00  0.00    +0.000 N 
ATOM     18  H   UNL     1       6.841   7.398  16.085  0.00  0.00    +0.000 HD
BRANCH  15  19
ATOM     19  C   UNL     1       7.895   8.956  17.789  0.00  0.00    +0.000 C 
BRANCH  19  21
ATOM     20  C   UNL     1       9.334  10.769  18.253  0.00  0.00    +0.000 C 
ATOM     21  O   UNL     1       8.760   9.560  18.745  0.00  0.00    +0.000 OA
ENDBRANCH  19  21
ENDBRANCH  15  19
ENDBRANCH   1  17
TORSDOF 5
ENDMDL
MODEL 3
REMARK VINA RESULT:      -7.1      0.719      1.484
REMARK  Name = 
REMARK  7 active torsions:
REMARK  status: ('A' for Active; 'I' for Inactive)
REMARK    1  A    between atoms: C_1  and  O_2
REMARK    2  A    between atoms: O_2  and  C_3
REMARK    3  A    between atoms: C_3  and  C_4
REMARK    4  A    between atoms: N_6  and  C_7
REMARK    5  A    between atoms: C_7  and  C_8
REMARK    6  A    between atoms: C_7  and  C_15
REMARK    7  A    between atoms: C_18  and  C_19
REMARK                            x       y       z     vdW  Elec       q    Type
REMARK                         _______ _______ _______ _____ _____    ______ ____
ROOT
ATOM      1  C   UNL     1       6.813   5.365  16.930  0.00  0.00    +0.000 C 
ENDROOT
BRANCH   1   2
ATOM      2  C   UNL     1       5.533   5.164  17.737  0.00  0.00    +0.000 A 
ATOM      3  C   UNL     1       5.370   4.214  18.761  0.00  0.00    +0.000 A 
ATOM      4  C   UNL     1       4.132   4.050  19.399  0.00  0.00    +0.000 A 
ATOM      5  C   UNL     1       3.036   4.812  19.005  0.00  0.00    +0.000 A 
ATOM      6 CL   UNL     1       1.510   4.580  19.766  0.00  0.00    +0.000 Cl
ATOM      7  C   UNL     1       3.165   5.747  17.986  0.00  0.00    +0.000 A 
ATOM      8  C   UNL     1       4.402   5.920  17.362  0.00  0.00    +0.000 A 
ENDBRANCH   1   2
BRANCH   1   9
ATOM      9  C   UNL     1       6.627   4.868  15.525  0.00  0.00    +0.000 A 
ATOM     10  N   UNL     1       5.974   3.730  15.238  0.00  0.00    +0.000 NA
ATOM     11  O   UNL     1       6.205   3.559  13.873  0.00  0.00    +0.000 OA
ATOM     12  C   UNL     1       6.978   4.608  13.471  0.00  0.00    +0.000 A 
ATOM     13  C   UNL     1       7.418   4.609  12.065  0.00  0.00    +0.000 C 
ATOM     14  N   UNL     1       7.255   5.454  14.438  0.00  0.00    +0.000 NA
ENDBRANCH   1   9
BRANCH   1  17
ATOM     15  C   UNL     1       7.814   7.385  17.942  0.00  0.00    +0.000 C 
ATOM     16  O   UNL     1       8.220   6.791  18.936  0.00  0.00    +0.000 OA
ATOM     17  N   UNL     1       7.176   6.768  16.896  0.00  0.00    +0.000 N 
ATOM     18  H   UNL     1       6.812   7.330  16.134  0.00  0.00    +0.000 HD
BRANCH  15  19
ATOM     19  C   UNL     1       7.973   8.894  17.761  0.00  0.00    +0.000 C 
BRANCH  19  21
ATOM     20  C   UNL     1       9.212  10.817  18.341  0.00  0.00    +0.000 C 
ATOM     21  O   UNL     1       8.850   9.489  18.713  0.00  0.00    +0.000 OA
ENDBRANCH  19  21
ENDBRANCH  15  19
ENDBRANCH   1  17
TORSDOF 5
ENDMDL
MODEL 4
REMARK VINA RESULT:      -7.1      0.871      1.121
REMARK  Name = 
REMARK  7 active torsions:
REMARK  status: ('A' for Active; 'I' for Inactive)
REMARK    1  A    between atoms: C_1  and  O_2
REMARK    2  A    between atoms: O_2  and  C_3
REMARK    3  A    between atoms: C_3  and  C_4
REMARK    4  A    between atoms: N_6  and  C_7
REMARK    5  A    between atoms: C_7  and  C_8
REMARK    6  A    between atoms: C_7  and  C_15
REMARK    7  A    between atoms: C_18  and  C_19
REMARK                            x       y       z     vdW  Elec       q    Type
REMARK                         _______ _______ _______ _____ _____    ______ ____
ROOT
ATOM      1  C   UNL     1       6.595   5.599  16.892  0.00  0.00    +0.000 C 
ENDROOT
BRANCH   1   2
ATOM      2  C   UNL     1       5.308   5.497  17.706  0.00  0.00    +0.000 A 
ATOM      3  C   UNL     1       4.255   6.429  17.665  0.00  0.00    +0.000 A 
ATOM      4  C   UNL     1       3.141   6.293  18.504  0.00  0.00    +0.000 A 
ATOM      5  C   UNL     1       3.075   5.242  19.414  0.00  0.00    +0.000 A 
ATOM      6 CL   UNL     1       1.722   5.101  20.468  0.00  0.00    +0.000 Cl
ATOM      7  C   UNL     1       4.107   4.315  19.488  0.00  0.00    +0.000 A 
ATOM      8  C   UNL     1       5.210   4.443  18.640  0.00  0.00    +0.000 A 
ENDBRANCH   1   2
BRANCH   1   9
ATOM      9  C   UNL     1       6.362   5.123  15.487  0.00  0.00    +0.000 A 
ATOM     10  N   UNL     1       5.293   4.390  15.136  0.00  0.00    +0.000 NA
ATOM     11  O   UNL     1       5.573   4.018  13.821  0.00  0.00    +0.000 OA
ATOM     12  C   UNL     1       6.785   4.559  13.509  0.00  0.00    +0.000 A 
ATOM     13  C   UNL     1       7.333   4.239  12.179  0.00  0.00    +0.000 C 
ATOM     14  N   UNL     1       7.310   5.263  14.486  0.00  0.00    +0.000 NA
ENDBRANCH   1   9
BRANCH   1  17
ATOM     15  C   UNL     1       7.795   7.515  17.888  0.00  0.00    +0.000 C 
ATOM     16  O   UNL     1       8.192   6.874  18.857  0.00  0.00    +0.000 OA
ATOM     17  N   UNL     1       7.069   6.968  16.861  0.00  0.00    +0.000 N 
ATOM     18  H   UNL     1       6.722   7.569  16.122  0.00  0.00    +0.000 HD
BRANCH  15  19
ATOM     19  C   UNL     1       8.069   9.008  17.720  0.00  0.00    +0.000 C 
BRANCH  19  21
ATOM     20  C   UNL     1       9.381  10.848  18.401  0.00  0.00    +0.000 C 
ATOM     21  O   UNL     1       8.898   9.551  18.743  0.00  0.00    +0.000 OA
ENDBRANCH  19  21
ENDBRANCH  15  19
ENDBRANCH   1  17
TORSDOF 5
ENDMDL
MODEL 5
REMARK VINA RESULT:      -7.1      3.936      6.391
REMARK  Name = 
REMARK  7 active torsions:
REMARK  status: ('A' for Active; 'I' for Inactive)
REMARK    1  A    between atoms: C_1  and  O_2
REMARK    2  A    between atoms: O_2  and  C_3
REMARK    3  A    between atoms: C_3  and  C_4
REMARK    4  A    between atoms: N_6  and  C_7
REMARK    5  A    between atoms: C_7  and  C_8
REMARK    6  A    between atoms: C_7  and  C_15
REMARK    7  A    between atoms: C_18  and  C_19
REMARK                            x       y       z     vdW  Elec       q    Type
REMARK                         _______ _______ _______ _____ _____    ______ ____
ROOT
ATOM      1  C   UNL     1       3.178   5.821  17.999  0.00  0.00    +0.000 C 
ENDROOT
BRANCH   1   2
ATOM      2  C   UNL     1       2.519   7.014  18.687  0.00  0.00    +0.000 A 
ATOM      3  C   UNL     1       2.154   7.058  20.044  0.00  0.00    +0.000 A 
ATOM      4  C   UNL     1       1.485   8.171  20.573  0.00  0.00    +0.000 A 
ATOM      5  C   UNL     1       1.148   9.241  19.750  0.00  0.00    +0.000 A 
ATOM      6 CL   UNL     1       0.294  10.588  20.396  0.00  0.00    +0.000 Cl
ATOM      7  C   UNL     1       1.483   9.218  18.402  0.00  0.00    +0.000 A 
ATOM      8  C   UNL     1       2.162   8.115  17.879  0.00  0.00    +0.000 A 
ENDBRANCH   1   2
BRANCH   1   9
ATOM      9  C   UNL     1       4.673   5.951  18.048  0.00  0.00    +0.000 A 
ATOM     10  N   UNL     1       5.428   5.311  18.955  0.00  0.00    +0.000 NA
ATOM     11  O   UNL     1       6.698   5.857  18.764  0.00  0.00    +0.000 OA
ATOM     12  C   UNL     1       6.584   6.776  17.763  0.00  0.00    +0.000 A 
ATOM     13  C   UNL     1       7.794   7.546  17.426  0.00  0.00    +0.000 C 
ATOM     14  N   UNL     1       5.368   6.866  17.272  0.00  0.00    +0.000 NA
ENDBRANCH   1   9
BRANCH   1  17
ATOM     15  C   UNL     1       1.695   3.859  18.231  0.00  0.00    +0.000 C 
ATOM     16  O   UNL     1       1.033   4.133  17.234  0.00  0.00    +0.000 OA
ATOM     17  N   UNL     1       2.784   4.583  18.642  0.00  0.00    +0.000 N 
ATOM     18  H   UNL     1       3.248   4.337  19.510  0.00  0.00    +0.000 HD
BRANCH  15  19
ATOM     19  C   UNL     1       1.372   2.669  19.133  0.00  0.00    +0.000 C 
BRANCH  19  21
ATOM     20  C   UNL     1       1.549   2.784  21.484  0.00  0.00    +0.000 C 
ATOM     21  O   UNL     1       0.726   3.038  20.348  0.00  0.00    +0.000 OA
ENDBRANCH  19  21
ENDBRANCH  15  19
ENDBRANCH   1  17
TORSDOF 5
ENDMDL
MODEL 6
REMARK VINA RESULT:      -7.1      3.513      4.853
REMARK  Name = 
REMARK  7 active torsions:
REMARK  status: ('A' for Active; 'I' for Inactive)
REMARK    1  A    between atoms: C_1  and  O_2
REMARK    2  A    between atoms: O_2  and  C_3
REMARK    3  A    between atoms: C_3  and  C_4
REMARK    4  A    between atoms: N_6  and  C_7
REMARK    5  A    between atoms: C_7  and  C_8
REMARK    6  A    between atoms: C_7  and  C_15
REMARK    7  A    between atoms: C_18  and  C_19
REMARK                            x       y       z     vdW  Elec       q    Type
REMARK                         _______ _______ _______ _____ _____    ______ ____
ROOT
ATOM      1  C   UNL     1       3.813   5.804  18.966  0.00  0.00    +0.000 C 
ENDROOT
BRANCH   1   2
ATOM      2  C   UNL     1       2.905   7.028  18.872  0.00  0.00    +0.000 A 
ATOM      3  C   UNL     1       2.834   7.893  17.765  0.00  0.00    +0.000 A 
ATOM      4  C   UNL     1       2.024   9.036  17.798  0.00  0.00    +0.000 A 
ATOM      5  C   UNL     1       1.297   9.346  18.943  0.00  0.00    +0.000 A 
ATOM      6 CL   UNL     1       0.333  10.771  18.991  0.00  0.00    +0.000 Cl
ATOM      7  C   UNL     1       1.360   8.518  20.057  0.00  0.00    +0.000 A 
ATOM      8  C   UNL     1       2.156   7.370  20.018  0.00  0.00    +0.000 A 
ENDBRANCH   1   2
BRANCH   1   9
ATOM      9  C   UNL     1       3.070   4.570  18.539  0.00  0.00    +0.000 A 
ATOM     10  N   UNL     1       3.085   4.113  17.277  0.00  0.00    +0.000 NA
ATOM     11  O   UNL     1       2.134   3.092  17.290  0.00  0.00    +0.000 OA
ATOM     12  C   UNL     1       1.635   3.037  18.558  0.00  0.00    +0.000 A 
ATOM     13  C   UNL     1       0.550   2.071  18.804  0.00  0.00    +0.000 C 
ATOM     14  N   UNL     1       2.184   3.908  19.374  0.00  0.00    +0.000 NA
ENDBRANCH   1   9
BRANCH   1  17
ATOM     15  C   UNL     1       6.250   5.707  18.571  0.00  0.00    +0.000 C 
ATOM     16  O   UNL     1       6.494   5.209  19.666  0.00  0.00    +0.000 OA
ATOM     17  N   UNL     1       4.981   5.973  18.124  0.00  0.00    +0.000 N 
ATOM     18  H   UNL     1       4.855   6.441  17.233  0.00  0.00    +0.000 HD
BRANCH  15  19
ATOM     19  C   UNL     1       7.345   6.089  17.577  0.00  0.00    +0.000 C 
BRANCH  19  21
ATOM     20  C   UNL     1       7.852   8.390  17.703  0.00  0.00    +0.000 C 
ATOM     21  O   UNL     1       7.154   7.372  16.990  0.00  0.00    +0.000 OA
ENDBRANCH  19  21
ENDBRANCH  15  19
ENDBRANCH   1  17
TORSDOF 5
ENDMDL
MODEL 7
REMARK VINA RESULT:      -7.0      4.034      6.353
REMARK  Name = 
REMARK  7 active torsions:
REMARK  status: ('A' for Active; 'I' for Inactive)
REMARK    1  A    between atoms: C_1  and  O_2
REMARK    2  A    between atoms: O_2  and  C_3
REMARK    3  A    between atoms: C_3  and  C_4
REMARK    4  A    between atoms: N_6  and  C_7
REMARK    5  A    between atoms: C_7  and  C_8
REMARK    6  A    between atoms: C_7  and  C_15
REMARK    7  A    between atoms: C_18  and  C_19
REMARK                            x       y       z     vdW  Elec       q    Type
REMARK                         _______ _______ _______ _____ _____    ______ ____
ROOT
ATOM      1  C   UNL     1       3.002   5.995  17.957  0.00  0.00    +0.000 C 
ENDROOT
BRANCH   1   2
ATOM      2  C   UNL     1       2.380   7.208  18.645  0.00  0.00    +0.000 A 
ATOM      3  C   UNL     1       2.033   7.268  20.007  0.00  0.00    +0.000 A 
ATOM      4  C   UNL     1       1.397   8.400  20.537  0.00  0.00    +0.000 A 
ATOM      5  C   UNL     1       1.076   9.473  19.711  0.00  0.00    +0.000 A 
ATOM      6 CL   UNL     1       0.262  10.844  20.360  0.00  0.00    +0.000 Cl
ATOM      7  C   UNL     1       1.394   9.434  18.359  0.00  0.00    +0.000 A 
ATOM      8  C   UNL     1       2.041   8.313  17.835  0.00  0.00    +0.000 A 
ENDBRANCH   1   2
BRANCH   1   9
ATOM      9  C   UNL     1       4.494   6.148  17.880  0.00  0.00    +0.000 A 
ATOM     10  N   UNL     1       5.124   6.584  16.778  0.00  0.00    +0.000 NA
ATOM     11  O   UNL     1       6.473   6.389  17.076  0.00  0.00    +0.000 OA
ATOM     12  C   UNL     1       6.524   5.850  18.328  0.00  0.00    +0.000 A 
ATOM     13  C   UNL     1       7.857   5.485  18.840  0.00  0.00    +0.000 C 
ATOM     14  N   UNL     1       5.342   5.695  18.879  0.00  0.00    +0.000 NA
ENDBRANCH   1   9
BRANCH   1  17
ATOM     15  C   UNL     1       1.686   3.930  18.278  0.00  0.00    +0.000 C 
ATOM     16  O   UNL     1       1.061   4.062  17.230  0.00  0.00    +0.000 OA
ATOM     17  N   UNL     1       2.682   4.781  18.681  0.00  0.00    +0.000 N 
ATOM     18  H   UNL     1       3.115   4.647  19.588  0.00  0.00    +0.000 HD
BRANCH  15  19
ATOM     19  C   UNL     1       1.417   2.790  19.259  0.00  0.00    +0.000 C 
BRANCH  19  21
ATOM     20  C   UNL     1       1.724   2.779  21.599  0.00  0.00    +0.000 C 
ATOM     21  O   UNL     1       0.914   3.231  20.516  0.00  0.00    +0.000 OA
ENDBRANCH  19  21
ENDBRANCH  15  19
ENDBRANCH   1  17
TORSDOF 5
ENDMDL
MODEL 8
REMARK VINA RESULT:      -7.0      3.833      6.248
REMARK  Name = 
REMARK  7 active torsions:
REMARK  status: ('A' for Active; 'I' for Inactive)
REMARK    1  A    between atoms: C_1  and  O_2
REMARK    2  A    between atoms: O_2  and  C_3
REMARK    3  A    between atoms: C_3  and  C_4
REMARK    4  A    between atoms: N_6  and  C_7
REMARK    5  A    between atoms: C_7  and  C_8
REMARK    6  A    between atoms: C_7  and  C_15
REMARK    7  A    between atoms: C_18  and  C_19
REMARK                            x       y       z     vdW  Elec       q    Type
REMARK                         _______ _______ _______ _____ _____    ______ ____
ROOT
ATOM      1  C   UNL     1       3.311   5.731  17.852  0.00  0.00    +0.000 C 
ENDROOT
BRANCH   1   2
ATOM      2  C   UNL     1       2.551   6.907  18.459  0.00  0.00    +0.000 A 
ATOM      3  C   UNL     1       2.194   8.078  17.765  0.00  0.00    +0.000 A 
ATOM      4  C   UNL     1       1.559   9.139  18.425  0.00  0.00    +0.000 A 
ATOM      5  C   UNL     1       1.298   9.059  19.789  0.00  0.00    +0.000 A 
ATOM      6 CL   UNL     1       0.553  10.381  20.601  0.00  0.00    +0.000 Cl
ATOM      7  C   UNL     1       1.653   7.922  20.503  0.00  0.00    +0.000 A 
ATOM      8  C   UNL     1       2.272   6.858  19.842  0.00  0.00    +0.000 A 
ENDBRANCH   1   2
BRANCH   1   9
ATOM      9  C   UNL     1       4.792   5.945  17.984  0.00  0.00    +0.000 A 
ATOM     10  N   UNL     1       5.537   5.323  18.912  0.00  0.00    +0.000 NA
ATOM     11  O   UNL     1       6.780   5.944  18.802  0.00  0.00    +0.000 OA
ATOM     12  C   UNL     1       6.664   6.884  17.821  0.00  0.00    +0.000 A 
ATOM     13  C   UNL     1       7.843   7.731  17.568  0.00  0.00    +0.000 C 
ATOM     14  N   UNL     1       5.472   6.919  17.270  0.00  0.00    +0.000 NA
ENDBRANCH   1   9
BRANCH   1  17
ATOM     15  C   UNL     1       1.823   3.785  18.172  0.00  0.00    +0.000 C 
ATOM     16  O   UNL     1       1.101   4.072  17.222  0.00  0.00    +0.000 OA
ATOM     17  N   UNL     1       2.946   4.495  18.515  0.00  0.00    +0.000 N 
ATOM     18  H   UNL     1       3.463   4.238  19.348  0.00  0.00    +0.000 HD
BRANCH  15  19
ATOM     19  C   UNL     1       1.546   2.594  19.088  0.00  0.00    +0.000 C 
BRANCH  19  21
ATOM     20  C   UNL     1       1.540   2.962  21.419  0.00  0.00    +0.000 C 
ATOM     21  O   UNL     1       0.759   2.927  20.227  0.00  0.00    +0.000 OA
ENDBRANCH  19  21
ENDBRANCH  15  19
ENDBRANCH   1  17
TORSDOF 5
ENDMDL
MODEL 9
REMARK VINA RESULT:      -7.0      3.917      6.218
REMARK  Name = 
REMARK  7 active torsions:
REMARK  status: ('A' for Active; 'I' for Inactive)
REMARK    1  A    between atoms: C_1  and  O_2
REMARK    2  A    between atoms: O_2  and  C_3
REMARK    3  A    between atoms: C_3  and  C_4
REMARK    4  A    between atoms: N_6  and  C_7
REMARK    5  A    between atoms: C_7  and  C_8
REMARK    6  A    between atoms: C_7  and  C_15
REMARK    7  A    between atoms: C_18  and  C_19
REMARK                            x       y       z     vdW  Elec       q    Type
REMARK                         _______ _______ _______ _____ _____    ______ ____
ROOT
ATOM      1  C   UNL     1       3.226   5.836  17.892  0.00  0.00    +0.000 C 
ENDROOT
BRANCH   1   2
ATOM      2  C   UNL     1       2.464   7.009  18.503  0.00  0.00    +0.000 A 
ATOM      3  C   UNL     1       2.070   8.164  17.803  0.00  0.00    +0.000 A 
ATOM      4  C   UNL     1       1.438   9.225  18.466  0.00  0.00    +0.000 A 
ATOM      5  C   UNL     1       1.215   9.160  19.838  0.00  0.00    +0.000 A 
ATOM      6 CL   UNL     1       0.472  10.482  20.652  0.00  0.00    +0.000 Cl
ATOM      7  C   UNL     1       1.607   8.038  20.557  0.00  0.00    +0.000 A 
ATOM      8  C   UNL     1       2.223   6.975  19.893  0.00  0.00    +0.000 A 
ENDBRANCH   1   2
BRANCH   1   9
ATOM      9  C   UNL     1       4.706   6.085  17.957  0.00  0.00    +0.000 A 
ATOM     10  N   UNL     1       5.391   6.663  16.958  0.00  0.00    +0.000 NA
ATOM     11  O   UNL     1       6.721   6.521  17.351  0.00  0.00    +0.000 OA
ATOM     12  C   UNL     1       6.709   5.868  18.548  0.00  0.00    +0.000 A 
ATOM     13  C   UNL     1       8.019   5.536  19.137  0.00  0.00    +0.000 C 
ATOM     14  N   UNL     1       5.500   5.590  18.980  0.00  0.00    +0.000 NA
ENDBRANCH   1   9
BRANCH   1  17
ATOM     15  C   UNL     1       1.865   3.804  18.236  0.00  0.00    +0.000 C 
ATOM     16  O   UNL     1       1.173   3.994  17.240  0.00  0.00    +0.000 OA
ATOM     17  N   UNL     1       2.915   4.608  18.596  0.00  0.00    +0.000 N 
ATOM     18  H   UNL     1       3.407   4.427  19.464  0.00  0.00    +0.000 HD
BRANCH  15  19
ATOM     19  C   UNL     1       1.626   2.638  19.195  0.00  0.00    +0.000 C 
BRANCH  19  21
ATOM     20  C   UNL     1       1.662   2.879  21.542  0.00  0.00    +0.000 C 
ATOM     21  O   UNL     1       0.883   3.001  20.354  0.00  0.00    +0.000 OA
ENDBRANCH  19  21
ENDBRANCH  15  19
ENDBRANCH   1  17
TORSDOF 5
ENDMDL
