MODEL 1
REMARK VINA RESULT:      -7.5      0.000      0.000
REMARK  Name = 
REMARK  11 active torsions:
REMARK  status: ('A' for Active; 'I' for Inactive)
REMARK    1  A    between atoms: C_1  and  O_2
REMARK    2  A    between atoms: O_2  and  C_3
REMARK    3  A    between atoms: C_3  and  C_5
REMARK    4  A    between atoms: C_8  and  C_9
REMARK    5  A    between atoms: C_10  and  C_11
REMARK    6  A    between atoms: C_11  and  C_13
REMARK    7  A    between atoms: C_19  and  O_20
REMARK    8  A    between atoms: N_23  and  C_24
REMARK    9  A    between atoms: C_24  and  C_25
REMARK   10  A    between atoms: C_25  and  C_26
REMARK   11  A    between atoms: C_33  and  C_34
REMARK                            x       y       z     vdW  Elec       q    Type
REMARK                         _______ _______ _______ _____ _____    ______ ____
ROOT
ATOM      1  C   UNL     1      -1.660  12.512  19.259  0.00  0.00    +0.000 C 
ATOM      2  C   UNL     1      -0.554  13.537  19.306  0.00  0.00    +0.000 C 
ATOM      3  C   UNL     1       0.647  12.948  19.145  0.00  0.00    +0.000 C 
ATOM      4  C   UNL     1       0.417  11.484  18.887  0.00  0.00    +0.000 C 
ATOM      5  O   UNL     1       1.277  10.708  18.538  0.00  0.00    +0.000 OA
ATOM      6  N   UNL     1      -0.926  11.206  19.143  0.00  0.00    +0.000 N 
ENDROOT
BRANCH   1  10
ATOM      7  C   UNL     1      -4.244  12.726  22.738  0.00  0.00    +0.000 A 
ATOM      8  C   UNL     1      -2.921  12.255  22.849  0.00  0.00    +0.000 A 
ATOM      9  C   UNL     1      -2.094  12.174  21.724  0.00  0.00    +0.000 A 
ATOM     10  C   UNL     1      -2.566  12.577  20.469  0.00  0.00    +0.000 A 
ATOM     11  C   UNL     1      -3.891  13.037  20.363  0.00  0.00    +0.000 A 
ATOM     12  C   UNL     1      -4.724  13.095  21.480  0.00  0.00    +0.000 A 
BRANCH   7  13
ATOM     13  C   UNL     1      -5.067  12.834  23.963  0.00  0.00    +0.000 C 
ATOM     14  O   UNL     1      -4.906  12.121  24.942  0.00  0.00    +0.000 OA
BRANCH  13  16
ATOM     15  C   UNL     1      -7.313  13.432  24.205  0.00  0.00    +0.000 C 
ATOM     16  O   UNL     1      -5.984  13.827  23.847  0.00  0.00    +0.000 OA
ENDBRANCH  13  16
ENDBRANCH   7  13
ENDBRANCH   1  10
BRANCH   2  17
ATOM     17  C   UNL     1      -0.571  14.997  19.765  0.00  0.00    +0.000 C 
ATOM     18  O   UNL     1      -0.402  15.888  18.925  0.00  0.00    +0.000 OA
BRANCH  17  19
ATOM     19  C   UNL     1      -0.784  15.421  21.171  0.00  0.00    +0.000 A 
ATOM     20  C   UNL     1      -2.001  15.997  21.571  0.00  0.00    +0.000 A 
ATOM     21  C   UNL     1      -2.192  16.386  22.903  0.00  0.00    +0.000 A 
ATOM     22  C   UNL     1      -1.161  16.150  23.799  0.00  0.00    +0.000 A 
ATOM     23  N   UNL     1      -0.007  15.535  23.459  0.00  0.00    +0.000 NA
ATOM     24  C   UNL     1       0.146  15.167  22.160  0.00  0.00    +0.000 A 
ENDBRANCH  17  19
ENDBRANCH   2  17
BRANCH   3  25
ATOM     25  O   UNL     1       1.882  13.504  19.240  0.00  0.00    +0.000 OA
ATOM     26  H   UNL     1       2.395  12.955  19.879  0.00  0.00    +0.000 HD
ENDBRANCH   3  25
BRANCH   6  27
ATOM     27  C   UNL     1      -1.567   9.864  18.777  0.00  0.00    +0.000 C 
BRANCH  27  28
ATOM     28  C   UNL     1      -2.620   9.560  17.449  0.00  0.00    +0.000 C 
BRANCH  28  29
ATOM     29  C   UNL     1      -3.899  10.439  17.339  0.00  0.00    +0.000 A 
ATOM     30  C   UNL     1      -4.013  11.002  16.074  0.00  0.00    +0.000 A 
ATOM     31  N   UNL     1      -4.222  12.298  16.464  0.00  0.00    +0.000 N 
ATOM     32  C   UNL     1      -5.381  12.173  17.206  0.00  0.00    +0.000 A 
ATOM     33  C   UNL     1      -6.426  13.099  17.209  0.00  0.00    +0.000 A 
ATOM     34  C   UNL     1      -7.531  12.838  17.968  0.00  0.00    +0.000 A 
ATOM     35  C   UNL     1      -7.502  11.737  18.795  0.00  0.00    +0.000 A 
ATOM     36  C   UNL     1      -6.394  10.781  18.885  0.00  0.00    +0.000 A 
ATOM     37  C   UNL     1      -6.797   9.721  19.926  0.00  0.00    +0.000 C 
ATOM     38  C   UNL     1      -5.253  10.952  17.940  0.00  0.00    +0.000 A 
ATOM     39  H   UNL     1      -3.476  12.874  16.835  0.00  0.00    +0.000 HD
ENDBRANCH  28  29
ENDBRANCH  27  28
ENDBRANCH   6  27
TORSDOF 9
ENDMDL
MODEL 2
REMARK VINA RESULT:      -7.3      4.401      7.397
REMARK  Name = 
REMARK  11 active torsions:
REMARK  status: ('A' for Active; 'I' for Inactive)
REMARK    1  A    between atoms: C_1  and  O_2
REMARK    2  A    between atoms: O_2  and  C_3
REMARK    3  A    between atoms: C_3  and  C_5
REMARK    4  A    between atoms: C_8  and  C_9
REMARK    5  A    between atoms: C_10  and  C_11
REMARK    6  A    between atoms: C_11  and  C_13
REMARK    7  A    between atoms: C_19  and  O_20
REMARK    8  A    between atoms: N_23  and  C_24
REMARK    9  A    between atoms: C_24  and  C_25
REMARK   10  A    between atoms: C_25  and  C_26
REMARK   11  A    between atoms: C_33  and  C_34
REMARK                            x       y       z     vdW  Elec       q    Type
REMARK                         _______ _______ _______ _____ _____    ______ ____
ROOT
ATOM      1  C   UNL     1       0.099  10.934  20.338  0.00  0.00    +0.000 C 
ATOM      2  C   UNL     1      -0.059  12.219  21.112  0.00  0.00    +0.000 C 
ATOM      3  C   UNL     1      -0.322  11.963  22.408  0.00  0.00    +0.000 C 
ATOM      4  C   UNL     1      -0.268  10.473  22.609  0.00  0.00    +0.000 C 
ATOM      5  O   UNL     1      -0.295   9.928  23.689  0.00  0.00    +0.000 OA
ATOM      6  N   UNL     1      -0.207   9.869  21.354  0.00  0.00    +0.000 N 
ENDROOT
BRANCH   1  10
ATOM      7  C   UNL     1      -2.498  10.724  16.868  0.00  0.00    +0.000 A 
ATOM      8  C   UNL     1      -1.314   9.963  16.931  0.00  0.00    +0.000 A 
ATOM      9  C   UNL     1      -0.470  10.042  18.044  0.00  0.00    +0.000 A 
ATOM     10  C   UNL     1      -0.802  10.871  19.124  0.00  0.00    +0.000 A 
ATOM     11  C   UNL     1      -1.980  11.635  19.051  0.00  0.00    +0.000 A 
ATOM     12  C   UNL     1      -2.808  11.575  17.930  0.00  0.00    +0.000 A 
BRANCH   7  13
ATOM     13  C   UNL     1      -3.378  10.575  15.689  0.00  0.00    +0.000 C 
ATOM     14  O   UNL     1      -4.588  10.748  15.730  0.00  0.00    +0.000 OA
BRANCH  13  16
ATOM     15  C   UNL     1      -3.468   9.874  13.461  0.00  0.00    +0.000 C 
ATOM     16  O   UNL     1      -2.662  10.248  14.584  0.00  0.00    +0.000 OA
ENDBRANCH  13  16
ENDBRANCH   7  13
ENDBRANCH   1  10
BRANCH   2  17
ATOM     17  C   UNL     1      -0.241  13.658  20.623  0.00  0.00    +0.000 C 
ATOM     18  O   UNL     1      -1.307  14.237  20.858  0.00  0.00    +0.000 OA
BRANCH  17  19
ATOM     19  C   UNL     1       0.794  14.417  19.878  0.00  0.00    +0.000 A 
ATOM     20  C   UNL     1       1.556  13.797  18.874  0.00  0.00    +0.000 A 
ATOM     21  C   UNL     1       2.525  14.527  18.173  0.00  0.00    +0.000 A 
ATOM     22  C   UNL     1       2.672  15.870  18.484  0.00  0.00    +0.000 A 
ATOM     23  N   UNL     1       1.907  16.510  19.397  0.00  0.00    +0.000 NA
ATOM     24  C   UNL     1       0.974  15.774  20.056  0.00  0.00    +0.000 A 
ENDBRANCH  17  19
ENDBRANCH   2  17
BRANCH   3  25
ATOM     25  O   UNL     1      -0.640  12.838  23.397  0.00  0.00    +0.000 OA
ATOM     26  H   UNL     1      -0.693  13.732  22.983  0.00  0.00    +0.000 HD
ENDBRANCH   3  25
BRANCH   6  27
ATOM     27  C   UNL     1       0.078   8.375  21.178  0.00  0.00    +0.000 C 
BRANCH  27  28
ATOM     28  C   UNL     1       1.610   7.602  21.315  0.00  0.00    +0.000 C 
BRANCH  28  29
ATOM     29  C   UNL     1       1.907   6.430  20.336  0.00  0.00    +0.000 A 
ATOM     30  C   UNL     1       2.776   6.828  19.327  0.00  0.00    +0.000 A 
ATOM     31  N   UNL     1       2.048   6.371  18.262  0.00  0.00    +0.000 N 
ATOM     32  C   UNL     1       1.982   5.019  18.541  0.00  0.00    +0.000 A 
ATOM     33  C   UNL     1       2.069   4.005  17.584  0.00  0.00    +0.000 A 
ATOM     34  C   UNL     1       2.017   2.706  18.000  0.00  0.00    +0.000 A 
ATOM     35  C   UNL     1       1.750   2.462  19.329  0.00  0.00    +0.000 A 
ATOM     36  C   UNL     1       1.571   3.495  20.355  0.00  0.00    +0.000 A 
ATOM     37  C   UNL     1       1.295   2.767  21.683  0.00  0.00    +0.000 C 
ATOM     38  C   UNL     1       1.794   4.914  19.955  0.00  0.00    +0.000 A 
ATOM     39  H   UNL     1       1.206   6.836  17.947  0.00  0.00    +0.000 HD
ENDBRANCH  28  29
ENDBRANCH  27  28
ENDBRANCH   6  27
TORSDOF 9
ENDMDL
MODEL 3
REMARK VINA RESULT:      -7.3      4.829      7.474
REMARK  Name = 
REMARK  11 active torsions:
REMARK  status: ('A' for Active; 'I' for Inactive)
REMARK    1  A    between atoms: C_1  and  O_2
REMARK    2  A    between atoms: O_2  and  C_3
REMARK    3  A    between atoms: C_3  and  C_5
REMARK    4  A    between atoms: C_8  and  C_9
REMARK    5  A    between atoms: C_10  and  C_11
REMARK    6  A    between atoms: C_11  and  C_13
REMARK    7  A    between atoms: C_19  and  O_20
REMARK    8  A    between atoms: N_23  and  C_24
REMARK    9  A    between atoms: C_24  and  C_25
REMARK   10  A    between atoms: C_25  and  C_26
REMARK   11  A    between atoms: C_33  and  C_34
REMARK                            x       y       z     vdW  Elec       q    Type
REMARK                         _______ _______ _______ _____ _____    ______ ____
ROOT
ATOM      1  C   UNL     1       0.719  10.487  19.507  0.00  0.00    +0.000 C 
ATOM      2  C   UNL     1       0.660  10.926  20.950  0.00  0.00    +0.000 C 
ATOM      3  C   UNL     1       0.988   9.909  21.770  0.00  0.00    +0.000 C 
ATOM      4  C   UNL     1       1.379   8.731  20.919  0.00  0.00    +0.000 C 
ATOM      5  O   UNL     1       1.883   7.718  21.345  0.00  0.00    +0.000 OA
ATOM      6  N   UNL     1       1.038   9.021  19.597  0.00  0.00    +0.000 N 
ENDROOT
BRANCH   1  10
ATOM      7  C   UNL     1      -2.982  11.301  17.393  0.00  0.00    +0.000 A 
ATOM      8  C   UNL     1      -2.769  10.061  18.026  0.00  0.00    +0.000 A 
ATOM      9  C   UNL     1      -1.571   9.795  18.696  0.00  0.00    +0.000 A 
ATOM     10  C   UNL     1      -0.566  10.768  18.760  0.00  0.00    +0.000 A 
ATOM     11  C   UNL     1      -0.779  12.001  18.117  0.00  0.00    +0.000 A 
ATOM     12  C   UNL     1      -1.965  12.257  17.428  0.00  0.00    +0.000 A 
BRANCH   7  13
ATOM     13  C   UNL     1      -4.282  11.551  16.733  0.00  0.00    +0.000 C 
ATOM     14  O   UNL     1      -4.596  11.055  15.661  0.00  0.00    +0.000 OA
BRANCH  13  16
ATOM     15  C   UNL     1      -6.428  11.963  17.561  0.00  0.00    +0.000 C 
ATOM     16  O   UNL     1      -5.059  12.372  17.484  0.00  0.00    +0.000 OA
ENDBRANCH  13  16
ENDBRANCH   7  13
ENDBRANCH   1  10
BRANCH   2  17
ATOM     17  C   UNL     1       0.048  12.178  21.583  0.00  0.00    +0.000 C 
ATOM     18  O   UNL     1       0.777  13.151  21.804  0.00  0.00    +0.000 OA
BRANCH  17  19
ATOM     19  C   UNL     1      -1.384  12.305  21.950  0.00  0.00    +0.000 A 
ATOM     20  C   UNL     1      -2.303  12.894  21.067  0.00  0.00    +0.000 A 
ATOM     21  C   UNL     1      -3.654  13.001  21.423  0.00  0.00    +0.000 A 
ATOM     22  C   UNL     1      -4.042  12.478  22.648  0.00  0.00    +0.000 A 
ATOM     23  N   UNL     1      -3.194  11.845  23.488  0.00  0.00    +0.000 NA
ATOM     24  C   UNL     1      -1.892  11.754  23.111  0.00  0.00    +0.000 A 
ENDBRANCH  17  19
ENDBRANCH   2  17
BRANCH   3  25
ATOM     25  O   UNL     1       0.943   9.867  23.126  0.00  0.00    +0.000 OA
ATOM     26  H   UNL     1       1.520   9.118  23.409  0.00  0.00    +0.000 HD
ENDBRANCH   3  25
BRANCH   6  27
ATOM     27  C   UNL     1       1.487   8.142  18.426  0.00  0.00    +0.000 C 
BRANCH  27  28
ATOM     28  C   UNL     1       3.091   7.608  18.103  0.00  0.00    +0.000 C 
BRANCH  28  29
ATOM     29  C   UNL     1       3.361   6.078  18.178  0.00  0.00    +0.000 A 
ATOM     30  C   UNL     1       4.676   5.784  17.838  0.00  0.00    +0.000 A 
ATOM     31  N   UNL     1       4.417   4.803  16.918  0.00  0.00    +0.000 N 
ATOM     32  C   UNL     1       3.743   3.878  17.694  0.00  0.00    +0.000 A 
ATOM     33  C   UNL     1       3.890   2.494  17.586  0.00  0.00    +0.000 A 
ATOM     34  C   UNL     1       3.183   1.691  18.436  0.00  0.00    +0.000 A 
ATOM     35  C   UNL     1       2.262   2.286  19.269  0.00  0.00    +0.000 A 
ATOM     36  C   UNL     1       2.016   3.728  19.360  0.00  0.00    +0.000 A 
ATOM     37  C   UNL     1       0.912   3.932  20.414  0.00  0.00    +0.000 C 
ATOM     38  C   UNL     1       2.896   4.632  18.566  0.00  0.00    +0.000 A 
ATOM     39  H   UNL     1       4.051   5.012  15.998  0.00  0.00    +0.000 HD
ENDBRANCH  28  29
ENDBRANCH  27  28
ENDBRANCH   6  27
TORSDOF 9
ENDMDL
MODEL 4
REMARK VINA RESULT:      -7.2      7.643     11.979
REMARK  Name = 
REMARK  11 active torsions:
REMARK  status: ('A' for Active; 'I' for Inactive)
REMARK    1  A    between atoms: C_1  and  O_2
REMARK    2  A    between atoms: O_2  and  C_3
REMARK    3  A    between atoms: C_3  and  C_5
REMARK    4  A    between atoms: C_8  and  C_9
REMARK    5  A    between atoms: C_10  and  C_11
REMARK    6  A    between atoms: C_11  and  C_13
REMARK    7  A    between atoms: C_19  and  O_20
REMARK    8  A    between atoms: N_23  and  C_24
REMARK    9  A    between atoms: C_24  and  C_25
REMARK   10  A    between atoms: C_25  and  C_26
REMARK   11  A    between atoms: C_33  and  C_34
REMARK                            x       y       z     vdW  Elec       q    Type
REMARK                         _______ _______ _______ _____ _____    ______ ____
ROOT
ATOM      1  C   UNL     1       4.983   6.356  18.295  0.00  0.00    +0.000 C 
ATOM      2  C   UNL     1       4.743   5.006  17.665  0.00  0.00    +0.000 C 
ATOM      3  C   UNL     1       5.559   4.822  16.610  0.00  0.00    +0.000 C 
ATOM      4  C   UNL     1       6.473   6.013  16.514  0.00  0.00    +0.000 C 
ATOM      5  O   UNL     1       7.431   6.082  15.778  0.00  0.00    +0.000 OA
ATOM      6  N   UNL     1       6.003   6.991  17.391  0.00  0.00    +0.000 N 
ENDROOT
BRANCH   1  10
ATOM      7  C   UNL     1       1.367   8.722  18.682  0.00  0.00    +0.000 A 
ATOM      8  C   UNL     1       1.821   7.917  19.745  0.00  0.00    +0.000 A 
ATOM      9  C   UNL     1       2.979   7.145  19.615  0.00  0.00    +0.000 A 
ATOM     10  C   UNL     1       3.717   7.173  18.424  0.00  0.00    +0.000 A 
ATOM     11  C   UNL     1       3.253   7.969  17.362  0.00  0.00    +0.000 A 
ATOM     12  C   UNL     1       2.084   8.721  17.484  0.00  0.00    +0.000 A 
BRANCH   7  13
ATOM     13  C   UNL     1       0.160   9.554  18.882  0.00  0.00    +0.000 C 
ATOM     14  O   UNL     1      -0.476  10.044  17.961  0.00  0.00    +0.000 OA
BRANCH  13  16
ATOM     15  C   UNL     1      -0.701  10.936  20.558  0.00  0.00    +0.000 C 
ATOM     16  O   UNL     1      -0.139   9.669  20.200  0.00  0.00    +0.000 OA
ENDBRANCH  13  16
ENDBRANCH   7  13
ENDBRANCH   1  10
BRANCH   2  17
ATOM     17  C   UNL     1       3.596   4.011  17.856  0.00  0.00    +0.000 C 
ATOM     18  O   UNL     1       3.095   3.481  16.858  0.00  0.00    +0.000 OA
BRANCH  17  19
ATOM     19  C   UNL     1       3.039   3.632  19.178  0.00  0.00    +0.000 A 
ATOM     20  C   UNL     1       1.704   3.921  19.505  0.00  0.00    +0.000 A 
ATOM     21  C   UNL     1       1.188   3.551  20.753  0.00  0.00    +0.000 A 
ATOM     22  C   UNL     1       2.027   2.869  21.623  0.00  0.00    +0.000 A 
ATOM     23  N   UNL     1       3.293   2.518  21.310  0.00  0.00    +0.000 NA
ATOM     24  C   UNL     1       3.762   2.888  20.089  0.00  0.00    +0.000 A 
ENDBRANCH  17  19
ENDBRANCH   2  17
BRANCH   3  25
ATOM     25  O   UNL     1       5.573   3.798  15.718  0.00  0.00    +0.000 OA
ATOM     26  H   UNL     1       6.344   3.947  15.122  0.00  0.00    +0.000 HD
ENDBRANCH   3  25
BRANCH   6  27
ATOM     27  C   UNL     1       6.809   8.252  17.719  0.00  0.00    +0.000 C 
BRANCH  27  28
ATOM     28  C   UNL     1       8.327   8.315  18.525  0.00  0.00    +0.000 C 
BRANCH  28  29
ATOM     29  C   UNL     1       8.919   9.723  18.822  0.00  0.00    +0.000 A 
ATOM     30  C   UNL     1       9.158  10.424  17.647  0.00  0.00    +0.000 A 
ATOM     31  N   UNL     1      10.450  10.794  17.910  0.00  0.00    +0.000 N 
ATOM     32  C   UNL     1      10.289  11.535  19.065  0.00  0.00    +0.000 A 
ATOM     33  C   UNL     1      10.992  12.704  19.364  0.00  0.00    +0.000 A 
ATOM     34  C   UNL     1      10.714  13.356  20.531  0.00  0.00    +0.000 A 
ATOM     35  C   UNL     1       9.846  12.755  21.416  0.00  0.00    +0.000 A 
ATOM     36  C   UNL     1       9.146  11.489  21.180  0.00  0.00    +0.000 A 
ATOM     37  C   UNL     1       8.289  11.208  22.428  0.00  0.00    +0.000 C 
ATOM     38  C   UNL     1       9.304  10.849  19.843  0.00  0.00    +0.000 A 
ATOM     39  H   UNL     1      11.217  10.134  17.868  0.00  0.00    +0.000 HD
ENDBRANCH  28  29
ENDBRANCH  27  28
ENDBRANCH   6  27
TORSDOF 9
ENDMDL
MODEL 5
REMARK VINA RESULT:      -7.1      7.710     12.149
REMARK  Name = 
REMARK  11 active torsions:
REMARK  status: ('A' for Active; 'I' for Inactive)
REMARK    1  A    between atoms: C_1  and  O_2
REMARK    2  A    between atoms: O_2  and  C_3
REMARK    3  A    between atoms: C_3  and  C_5
REMARK    4  A    between atoms: C_8  and  C_9
REMARK    5  A    between atoms: C_10  and  C_11
REMARK    6  A    between atoms: C_11  and  C_13
REMARK    7  A    between atoms: C_19  and  O_20
REMARK    8  A    between atoms: N_23  and  C_24
REMARK    9  A    between atoms: C_24  and  C_25
REMARK   10  A    between atoms: C_25  and  C_26
REMARK   11  A    between atoms: C_33  and  C_34
REMARK                            x       y       z     vdW  Elec       q    Type
REMARK                         _______ _______ _______ _____ _____    ______ ____
ROOT
ATOM      1  C   UNL     1       5.268   5.474  18.347  0.00  0.00    +0.000 C 
ATOM      2  C   UNL     1       4.855   4.180  17.691  0.00  0.00    +0.000 C 
ATOM      3  C   UNL     1       5.677   3.882  16.667  0.00  0.00    +0.000 C 
ATOM      4  C   UNL     1       6.762   4.923  16.623  0.00  0.00    +0.000 C 
ATOM      5  O   UNL     1       7.749   4.852  15.927  0.00  0.00    +0.000 OA
ATOM      6  N   UNL     1       6.408   5.954  17.492  0.00  0.00    +0.000 N 
ENDROOT
BRANCH   1  10
ATOM      7  C   UNL     1       2.033   8.353  18.619  0.00  0.00    +0.000 A 
ATOM      8  C   UNL     1       2.271   7.433  19.659  0.00  0.00    +0.000 A 
ATOM      9  C   UNL     1       3.305   6.497  19.564  0.00  0.00    +0.000 A 
ATOM     10  C   UNL     1       4.133   6.471  18.435  0.00  0.00    +0.000 A 
ATOM     11  C   UNL     1       3.885   7.385  17.395  0.00  0.00    +0.000 A 
ATOM     12  C   UNL     1       2.837   8.303  17.479  0.00  0.00    +0.000 A 
BRANCH   7  13
ATOM     13  C   UNL     1       0.954   9.352  18.784  0.00  0.00    +0.000 C 
ATOM     14  O   UNL     1       0.215   9.695  17.873  0.00  0.00    +0.000 OA
BRANCH  13  16
ATOM     15  C   UNL     1       0.444  11.153  20.183  0.00  0.00    +0.000 C 
ATOM     16  O   UNL     1       0.897   9.800  20.063  0.00  0.00    +0.000 OA
ENDBRANCH  13  16
ENDBRANCH   7  13
ENDBRANCH   1  10
BRANCH   2  17
ATOM     17  C   UNL     1       3.564   3.367  17.822  0.00  0.00    +0.000 C 
ATOM     18  O   UNL     1       3.089   2.836  16.812  0.00  0.00    +0.000 OA
BRANCH  17  19
ATOM     19  C   UNL     1       2.836   3.168  19.100  0.00  0.00    +0.000 A 
ATOM     20  C   UNL     1       1.447   3.361  19.174  0.00  0.00    +0.000 A 
ATOM     21  C   UNL     1       0.772   3.162  20.385  0.00  0.00    +0.000 A 
ATOM     22  C   UNL     1       1.515   2.742  21.478  0.00  0.00    +0.000 A 
ATOM     23  N   UNL     1       2.840   2.482  21.420  0.00  0.00    +0.000 NA
ATOM     24  C   UNL     1       3.464   2.681  20.229  0.00  0.00    +0.000 A 
ENDBRANCH  17  19
ENDBRANCH   2  17
BRANCH   3  25
ATOM     25  O   UNL     1       5.574   2.873  15.763  0.00  0.00    +0.000 OA
ATOM     26  H   UNL     1       4.611   2.706  15.628  0.00  0.00    +0.000 HD
ENDBRANCH   3  25
BRANCH   6  27
ATOM     27  C   UNL     1       7.379   7.077  17.868  0.00  0.00    +0.000 C 
BRANCH  27  28
ATOM     28  C   UNL     1       7.216   8.745  17.477  0.00  0.00    +0.000 C 
BRANCH  28  29
ATOM     29  C   UNL     1       8.196   9.738  18.165  0.00  0.00    +0.000 A 
ATOM     30  C   UNL     1       9.303   9.074  18.679  0.00  0.00    +0.000 A 
ATOM     31  N   UNL     1       9.270   9.605  19.941  0.00  0.00    +0.000 N 
ATOM     32  C   UNL     1       9.412  10.953  19.671  0.00  0.00    +0.000 A 
ATOM     33  C   UNL     1      10.162  11.843  20.441  0.00  0.00    +0.000 A 
ATOM     34  C   UNL     1      10.242  13.147  20.045  0.00  0.00    +0.000 A 
ATOM     35  C   UNL     1       9.469  13.546  18.977  0.00  0.00    +0.000 A 
ATOM     36  C   UNL     1       8.604  12.665  18.188  0.00  0.00    +0.000 A 
ATOM     37  C   UNL     1       7.940  13.535  17.105  0.00  0.00    +0.000 C 
ATOM     38  C   UNL     1       8.635  11.206  18.497  0.00  0.00    +0.000 A 
ATOM     39  H   UNL     1       8.578   9.324  20.624  0.00  0.00    +0.000 HD
ENDBRANCH  28  29
ENDBRANCH  27  28
ENDBRANCH   6  27
TORSDOF 9
ENDMDL
MODEL 6
REMARK VINA RESULT:      -7.1      4.362      7.611
REMARK  Name = 
REMARK  11 active torsions:
REMARK  status: ('A' for Active; 'I' for Inactive)
REMARK    1  A    between atoms: C_1  and  O_2
REMARK    2  A    between atoms: O_2  and  C_3
REMARK    3  A    between atoms: C_3  and  C_5
REMARK    4  A    between atoms: C_8  and  C_9
REMARK    5  A    between atoms: C_10  and  C_11
REMARK    6  A    between atoms: C_11  and  C_13
REMARK    7  A    between atoms: C_19  and  O_20
REMARK    8  A    between atoms: N_23  and  C_24
REMARK    9  A    between atoms: C_24  and  C_25
REMARK   10  A    between atoms: C_25  and  C_26
REMARK   11  A    between atoms: C_33  and  C_34
REMARK                            x       y       z     vdW  Elec       q    Type
REMARK                         _______ _______ _______ _____ _____    ______ ____
ROOT
ATOM      1  C   UNL     1       0.085  11.436  20.154  0.00  0.00    +0.000 C 
ATOM      2  C   UNL     1      -0.685  12.012  21.316  0.00  0.00    +0.000 C 
ATOM      3  C   UNL     1      -0.531  11.249  22.414  0.00  0.00    +0.000 C 
ATOM      4  C   UNL     1       0.437  10.146  22.083  0.00  0.00    +0.000 C 
ATOM      5  O   UNL     1       0.915   9.389  22.896  0.00  0.00    +0.000 OA
ATOM      6  N   UNL     1       0.647  10.155  20.704  0.00  0.00    +0.000 N 
ENDROOT
BRANCH   1  10
ATOM      7  C   UNL     1      -2.415  10.847  16.657  0.00  0.00    +0.000 A 
ATOM      8  C   UNL     1      -2.314   9.852  17.649  0.00  0.00    +0.000 A 
ATOM      9  C   UNL     1      -1.498  10.038  18.769  0.00  0.00    +0.000 A 
ATOM     10  C   UNL     1      -0.777  11.228  18.929  0.00  0.00    +0.000 A 
ATOM     11  C   UNL     1      -0.873  12.213  17.930  0.00  0.00    +0.000 A 
ATOM     12  C   UNL     1      -1.668  12.018  16.801  0.00  0.00    +0.000 A 
BRANCH   7  13
ATOM     13  C   UNL     1      -3.324  10.622  15.512  0.00  0.00    +0.000 C 
ATOM     14  O   UNL     1      -4.523  10.855  15.554  0.00  0.00    +0.000 OA
BRANCH  13  16
ATOM     15  C   UNL     1      -3.479   9.846  13.313  0.00  0.00    +0.000 C 
ATOM     16  O   UNL     1      -2.644  10.155  14.435  0.00  0.00    +0.000 OA
ENDBRANCH  13  16
ENDBRANCH   7  13
ENDBRANCH   1  10
BRANCH   2  17
ATOM     17  C   UNL     1      -1.769  13.093  21.351  0.00  0.00    +0.000 C 
ATOM     18  O   UNL     1      -1.430  14.272  21.504  0.00  0.00    +0.000 OA
BRANCH  17  19
ATOM     19  C   UNL     1      -3.220  12.817  21.207  0.00  0.00    +0.000 A 
ATOM     20  C   UNL     1      -3.791  12.615  19.940  0.00  0.00    +0.000 A 
ATOM     21  C   UNL     1      -5.160  12.348  19.819  0.00  0.00    +0.000 A 
ATOM     22  C   UNL     1      -5.907  12.259  20.984  0.00  0.00    +0.000 A 
ATOM     23  N   UNL     1      -5.373  12.380  22.220  0.00  0.00    +0.000 NA
ATOM     24  C   UNL     1      -4.041  12.634  22.303  0.00  0.00    +0.000 A 
ENDBRANCH  17  19
ENDBRANCH   2  17
BRANCH   3  25
ATOM     25  O   UNL     1      -1.147  11.363  23.619  0.00  0.00    +0.000 OA
ATOM     26  H   UNL     1      -0.440  11.346  24.306  0.00  0.00    +0.000 HD
ENDBRANCH   3  25
BRANCH   6  27
ATOM     27  C   UNL     1       1.739   9.313  20.037  0.00  0.00    +0.000 C 
BRANCH  27  28
ATOM     28  C   UNL     1       1.628   8.511  18.518  0.00  0.00    +0.000 C 
BRANCH  28  29
ATOM     29  C   UNL     1       2.431   7.189  18.350  0.00  0.00    +0.000 A 
ATOM     30  C   UNL     1       3.763   7.446  18.050  0.00  0.00    +0.000 A 
ATOM     31  N   UNL     1       3.873   6.619  16.963  0.00  0.00    +0.000 N 
ATOM     32  C   UNL     1       3.578   5.392  17.527  0.00  0.00    +0.000 A 
ATOM     33  C   UNL     1       4.213   4.194  17.196  0.00  0.00    +0.000 A 
ATOM     34  C   UNL     1       3.844   3.054  17.852  0.00  0.00    +0.000 A 
ATOM     35  C   UNL     1       2.772   3.122  18.714  0.00  0.00    +0.000 A 
ATOM     36  C   UNL     1       2.023   4.343  19.031  0.00  0.00    +0.000 A 
ATOM     37  C   UNL     1       0.922   3.949  20.032  0.00  0.00    +0.000 C 
ATOM     38  C   UNL     1       2.518   5.627  18.458  0.00  0.00    +0.000 A 
ATOM     39  H   UNL     1       3.455   6.848  16.070  0.00  0.00    +0.000 HD
ENDBRANCH  28  29
ENDBRANCH  27  28
ENDBRANCH   6  27
TORSDOF 9
ENDMDL
MODEL 7
REMARK VINA RESULT:      -7.0      4.573      7.324
REMARK  Name = 
REMARK  11 active torsions:
REMARK  status: ('A' for Active; 'I' for Inactive)
REMARK    1  A    between atoms: C_1  and  O_2
REMARK    2  A    between atoms: O_2  and  C_3
REMARK    3  A    between atoms: C_3  and  C_5
REMARK    4  A    between atoms: C_8  and  C_9
REMARK    5  A    between atoms: C_10  and  C_11
REMARK    6  A    between atoms: C_11  and  C_13
REMARK    7  A    between atoms: C_19  and  O_20
REMARK    8  A    between atoms: N_23  and  C_24
REMARK    9  A    between atoms: C_24  and  C_25
REMARK   10  A    between atoms: C_25  and  C_26
REMARK   11  A    between atoms: C_33  and  C_34
REMARK                            x       y       z     vdW  Elec       q    Type
REMARK                         _______ _______ _______ _____ _____    ______ ____
ROOT
ATOM      1  C   UNL     1       0.420  10.833  20.311  0.00  0.00    +0.000 C 
ATOM      2  C   UNL     1      -0.166  10.926  21.698  0.00  0.00    +0.000 C 
ATOM      3  C   UNL     1       0.225   9.880  22.450  0.00  0.00    +0.000 C 
ATOM      4  C   UNL     1       1.182   9.052  21.636  0.00  0.00    +0.000 C 
ATOM      5  O   UNL     1       1.840   8.138  22.077  0.00  0.00    +0.000 OA
ATOM      6  N   UNL     1       1.143   9.515  20.321  0.00  0.00    +0.000 N 
ENDROOT
BRANCH   1  10
ATOM      7  C   UNL     1      -2.620  11.094  17.226  0.00  0.00    +0.000 A 
ATOM      8  C   UNL     1      -2.433   9.905  17.957  0.00  0.00    +0.000 A 
ATOM      9  C   UNL     1      -1.444   9.817  18.941  0.00  0.00    +0.000 A 
ATOM     10  C   UNL     1      -0.632  10.922  19.227  0.00  0.00    +0.000 A 
ATOM     11  C   UNL     1      -0.816  12.104  18.487  0.00  0.00    +0.000 A 
ATOM     12  C   UNL     1      -1.787  12.183  17.488  0.00  0.00    +0.000 A 
BRANCH   7  13
ATOM     13  C   UNL     1      -3.707  11.152  16.224  0.00  0.00    +0.000 C 
ATOM     14  O   UNL     1      -3.506  11.274  15.024  0.00  0.00    +0.000 OA
BRANCH  13  16
ATOM     15  C   UNL     1      -5.527  12.282  17.157  0.00  0.00    +0.000 C 
ATOM     16  O   UNL     1      -4.922  11.031  16.815  0.00  0.00    +0.000 OA
ENDBRANCH  13  16
ENDBRANCH   7  13
ENDBRANCH   1  10
BRANCH   2  17
ATOM     17  C   UNL     1      -1.287  11.813  22.245  0.00  0.00    +0.000 C 
ATOM     18  O   UNL     1      -2.082  11.332  23.061  0.00  0.00    +0.000 OA
BRANCH  17  19
ATOM     19  C   UNL     1      -1.485  13.232  21.860  0.00  0.00    +0.000 A 
ATOM     20  C   UNL     1      -2.698  13.662  21.299  0.00  0.00    +0.000 A 
ATOM     21  C   UNL     1      -2.874  15.006  20.946  0.00  0.00    +0.000 A 
ATOM     22  C   UNL     1      -1.831  15.883  21.203  0.00  0.00    +0.000 A 
ATOM     23  N   UNL     1      -0.679  15.512  21.804  0.00  0.00    +0.000 NA
ATOM     24  C   UNL     1      -0.542  14.202  22.137  0.00  0.00    +0.000 A 
ENDBRANCH  17  19
ENDBRANCH   2  17
BRANCH   3  25
ATOM     25  O   UNL     1      -0.174   9.541  23.703  0.00  0.00    +0.000 OA
ATOM     26  H   UNL     1       0.643   9.399  24.237  0.00  0.00    +0.000 HD
ENDBRANCH   3  25
BRANCH   6  27
ATOM     27  C   UNL     1       2.147   9.052  19.261  0.00  0.00    +0.000 C 
BRANCH  27  28
ATOM     28  C   UNL     1       1.859   7.907  18.009  0.00  0.00    +0.000 C 
BRANCH  28  29
ATOM     29  C   UNL     1       2.563   6.525  18.132  0.00  0.00    +0.000 A 
ATOM     30  C   UNL     1       3.919   6.626  17.852  0.00  0.00    +0.000 A 
ATOM     31  N   UNL     1       4.000   5.600  16.947  0.00  0.00    +0.000 N 
ATOM     32  C   UNL     1       3.593   4.528  17.719  0.00  0.00    +0.000 A 
ATOM     33  C   UNL     1       4.144   3.247  17.651  0.00  0.00    +0.000 A 
ATOM     34  C   UNL     1       3.667   2.283  18.492  0.00  0.00    +0.000 A 
ATOM     35  C   UNL     1       2.575   2.590  19.274  0.00  0.00    +0.000 A 
ATOM     36  C   UNL     1       1.913   3.898  19.320  0.00  0.00    +0.000 A 
ATOM     37  C   UNL     1       0.753   3.781  20.324  0.00  0.00    +0.000 C 
ATOM     38  C   UNL     1       2.525   5.011  18.538  0.00  0.00    +0.000 A 
ATOM     39  H   UNL     1       3.631   5.682  16.009  0.00  0.00    +0.000 HD
ENDBRANCH  28  29
ENDBRANCH  27  28
ENDBRANCH   6  27
TORSDOF 9
ENDMDL
MODEL 8
REMARK VINA RESULT:      -7.0      4.539      7.460
REMARK  Name = 
REMARK  11 active torsions:
REMARK  status: ('A' for Active; 'I' for Inactive)
REMARK    1  A    between atoms: C_1  and  O_2
REMARK    2  A    between atoms: O_2  and  C_3
REMARK    3  A    between atoms: C_3  and  C_5
REMARK    4  A    between atoms: C_8  and  C_9
REMARK    5  A    between atoms: C_10  and  C_11
REMARK    6  A    between atoms: C_11  and  C_13
REMARK    7  A    between atoms: C_19  and  O_20
REMARK    8  A    between atoms: N_23  and  C_24
REMARK    9  A    between atoms: C_24  and  C_25
REMARK   10  A    between atoms: C_25  and  C_26
REMARK   11  A    between atoms: C_33  and  C_34
REMARK                            x       y       z     vdW  Elec       q    Type
REMARK                         _______ _______ _______ _____ _____    ______ ____
ROOT
ATOM      1  C   UNL     1       0.118  11.040  20.367  0.00  0.00    +0.000 C 
ATOM      2  C   UNL     1      -0.139  11.061  21.853  0.00  0.00    +0.000 C 
ATOM      3  C   UNL     1       0.422   9.992  22.448  0.00  0.00    +0.000 C 
ATOM      4  C   UNL     1       1.178   9.219  21.401  0.00  0.00    +0.000 C 
ATOM      5  O   UNL     1       1.927   8.300  21.638  0.00  0.00    +0.000 OA
ATOM      6  N   UNL     1       0.838   9.738  20.151  0.00  0.00    +0.000 N 
ENDROOT
BRANCH   1  10
ATOM      7  C   UNL     1      -3.512  11.393  18.015  0.00  0.00    +0.000 A 
ATOM      8  C   UNL     1      -3.190  12.352  18.995  0.00  0.00    +0.000 A 
ATOM      9  C   UNL     1      -2.027  12.230  19.762  0.00  0.00    +0.000 A 
ATOM     10  C   UNL     1      -1.153  11.155  19.554  0.00  0.00    +0.000 A 
ATOM     11  C   UNL     1      -1.485  10.195  18.581  0.00  0.00    +0.000 A 
ATOM     12  C   UNL     1      -2.657  10.304  17.833  0.00  0.00    +0.000 A 
BRANCH   7  13
ATOM     13  C   UNL     1      -4.731  11.588  17.200  0.00  0.00    +0.000 C 
ATOM     14  O   UNL     1      -4.839  11.188  16.050  0.00  0.00    +0.000 OA
BRANCH  13  16
ATOM     15  C   UNL     1      -6.828  11.428  18.218  0.00  0.00    +0.000 C 
ATOM     16  O   UNL     1      -5.690  12.238  17.906  0.00  0.00    +0.000 OA
ENDBRANCH  13  16
ENDBRANCH   7  13
ENDBRANCH   1  10
BRANCH   2  17
ATOM     17  C   UNL     1      -1.117  11.900  22.680  0.00  0.00    +0.000 C 
ATOM     18  O   UNL     1      -2.097  11.345  23.187  0.00  0.00    +0.000 OA
BRANCH  17  19
ATOM     19  C   UNL     1      -0.961  13.356  22.921  0.00  0.00    +0.000 A 
ATOM     20  C   UNL     1      -1.678  13.996  23.945  0.00  0.00    +0.000 A 
ATOM     21  C   UNL     1      -1.516  15.369  24.167  0.00  0.00    +0.000 A 
ATOM     22  C   UNL     1      -0.608  16.050  23.369  0.00  0.00    +0.000 A 
ATOM     23  N   UNL     1       0.146  15.448  22.423  0.00  0.00    +0.000 NA
ATOM     24  C   UNL     1      -0.032  14.114  22.236  0.00  0.00    +0.000 A 
ENDBRANCH  17  19
ENDBRANCH   2  17
BRANCH   3  25
ATOM     25  O   UNL     1       0.320   9.591  23.741  0.00  0.00    +0.000 OA
ATOM     26  H   UNL     1      -0.593   9.812  24.039  0.00  0.00    +0.000 HD
ENDBRANCH   3  25
BRANCH   6  27
ATOM     27  C   UNL     1       1.580   9.342  18.871  0.00  0.00    +0.000 C 
BRANCH  27  28
ATOM     28  C   UNL     1       1.458   7.840  18.040  0.00  0.00    +0.000 C 
BRANCH  28  29
ATOM     29  C   UNL     1       2.620   6.823  18.230  0.00  0.00    +0.000 A 
ATOM     30  C   UNL     1       2.289   5.854  19.169  0.00  0.00    +0.000 A 
ATOM     31  N   UNL     1       3.417   5.947  19.939  0.00  0.00    +0.000 N 
ATOM     32  C   UNL     1       4.399   5.627  19.020  0.00  0.00    +0.000 A 
ATOM     33  C   UNL     1       5.529   4.857  19.301  0.00  0.00    +0.000 A 
ATOM     34  C   UNL     1       6.408   4.591  18.291  0.00  0.00    +0.000 A 
ATOM     35  C   UNL     1       6.203   5.207  17.076  0.00  0.00    +0.000 A 
ATOM     36  C   UNL     1       5.074   6.088  16.759  0.00  0.00    +0.000 A 
ATOM     37  C   UNL     1       5.252   6.541  15.298  0.00  0.00    +0.000 C 
ATOM     38  C   UNL     1       4.013   6.253  17.793  0.00  0.00    +0.000 A 
ATOM     39  H   UNL     1       3.580   6.729  20.561  0.00  0.00    +0.000 HD
ENDBRANCH  28  29
ENDBRANCH  27  28
ENDBRANCH   6  27
TORSDOF 9
ENDMDL
MODEL 9
REMARK VINA RESULT:      -7.0      2.408      6.962
REMARK  Name = 
REMARK  11 active torsions:
REMARK  status: ('A' for Active; 'I' for Inactive)
REMARK    1  A    between atoms: C_1  and  O_2
REMARK    2  A    between atoms: O_2  and  C_3
REMARK    3  A    between atoms: C_3  and  C_5
REMARK    4  A    between atoms: C_8  and  C_9
REMARK    5  A    between atoms: C_10  and  C_11
REMARK    6  A    between atoms: C_11  and  C_13
REMARK    7  A    between atoms: C_19  and  O_20
REMARK    8  A    between atoms: N_23  and  C_24
REMARK    9  A    between atoms: C_24  and  C_25
REMARK   10  A    between atoms: C_25  and  C_26
REMARK   11  A    between atoms: C_33  and  C_34
REMARK                            x       y       z     vdW  Elec       q    Type
REMARK                         _______ _______ _______ _____ _____    ______ ____
ROOT
ATOM      1  C   UNL     1      -0.988  12.604  20.695  0.00  0.00    +0.000 C 
ATOM      2  C   UNL     1      -0.869  11.205  20.145  0.00  0.00    +0.000 C 
ATOM      3  C   UNL     1      -0.627  10.324  21.134  0.00  0.00    +0.000 C 
ATOM      4  C   UNL     1      -0.656  11.070  22.440  0.00  0.00    +0.000 C 
ATOM      5  O   UNL     1      -0.639  10.543  23.529  0.00  0.00    +0.000 OA
ATOM      6  N   UNL     1      -0.682  12.436  22.157  0.00  0.00    +0.000 N 
ENDROOT
BRANCH   1  10
ATOM      7  C   UNL     1       1.660  15.432  18.742  0.00  0.00    +0.000 A 
ATOM      8  C   UNL     1       0.262  15.591  18.682  0.00  0.00    +0.000 A 
ATOM      9  C   UNL     1      -0.591  14.672  19.300  0.00  0.00    +0.000 A 
ATOM     10  C   UNL     1      -0.064  13.583  20.005  0.00  0.00    +0.000 A 
ATOM     11  C   UNL     1       1.333  13.423  20.054  0.00  0.00    +0.000 A 
ATOM     12  C   UNL     1       2.183  14.326  19.416  0.00  0.00    +0.000 A 
BRANCH   7  13
ATOM     13  C   UNL     1       2.523  16.453  18.108  0.00  0.00    +0.000 C 
ATOM     14  O   UNL     1       2.158  17.601  17.898  0.00  0.00    +0.000 OA
BRANCH  13  16
ATOM     15  C   UNL     1       4.815  16.574  18.544  0.00  0.00    +0.000 C 
ATOM     16  O   UNL     1       3.749  15.947  17.824  0.00  0.00    +0.000 OA
ENDBRANCH  13  16
ENDBRANCH   7  13
ENDBRANCH   1  10
BRANCH   2  17
ATOM     17  C   UNL     1      -0.706  10.715  18.704  0.00  0.00    +0.000 C 
ATOM     18  O   UNL     1       0.395  10.285  18.342  0.00  0.00    +0.000 OA
BRANCH  17  19
ATOM     19  C   UNL     1      -1.798  10.717  17.699  0.00  0.00    +0.000 A 
ATOM     20  C   UNL     1      -1.803   9.793  16.642  0.00  0.00    +0.000 A 
ATOM     21  C   UNL     1      -2.844   9.802  15.704  0.00  0.00    +0.000 A 
ATOM     22  C   UNL     1      -3.866  10.722  15.882  0.00  0.00    +0.000 A 
ATOM     23  N   UNL     1      -3.923  11.576  16.927  0.00  0.00    +0.000 NA
ATOM     24  C   UNL     1      -2.900  11.540  17.821  0.00  0.00    +0.000 A 
ENDBRANCH  17  19
ENDBRANCH   2  17
BRANCH   3  25
ATOM     25  O   UNL     1      -0.344   8.999  21.039  0.00  0.00    +0.000 OA
ATOM     26  H   UNL     1       0.366   8.905  20.361  0.00  0.00    +0.000 HD
ENDBRANCH   3  25
BRANCH   6  27
ATOM     27  C   UNL     1      -0.935  13.491  23.239  0.00  0.00    +0.000 C 
BRANCH  27  28
ATOM     28  C   UNL     1      -2.174  14.685  23.233  0.00  0.00    +0.000 C 
BRANCH  28  29
ATOM     29  C   UNL     1      -3.646  14.186  23.283  0.00  0.00    +0.000 A 
ATOM     30  C   UNL     1      -4.267  14.574  24.464  0.00  0.00    +0.000 A 
ATOM     31  N   UNL     1      -4.765  13.350  24.824  0.00  0.00    +0.000 N 
ATOM     32  C   UNL     1      -5.582  13.064  23.746  0.00  0.00    +0.000 A 
ATOM     33  C   UNL     1      -6.826  12.437  23.837  0.00  0.00    +0.000 A 
ATOM     34  C   UNL     1      -7.545  12.239  22.693  0.00  0.00    +0.000 A 
ATOM     35  C   UNL     1      -6.947  12.550  21.492  0.00  0.00    +0.000 A 
ATOM     36  C   UNL     1      -5.611  13.134  21.343  0.00  0.00    +0.000 A 
ATOM     37  C   UNL     1      -5.361  13.310  19.834  0.00  0.00    +0.000 C 
ATOM     38  C   UNL     1      -4.880  13.517  22.585  0.00  0.00    +0.000 A 
ATOM     39  H   UNL     1      -4.172  12.614  25.184  0.00  0.00    +0.000 HD
ENDBRANCH  28  29
ENDBRANCH  27  28
ENDBRANCH   6  27
TORSDOF 9
ENDMDL
