MODEL 1
REMARK VINA RESULT:      -7.0      0.000      0.000
REMARK  Name = 
REMARK  7 active torsions:
REMARK  status: ('A' for Active; 'I' for Inactive)
REMARK    1  A    between atoms: C_2  and  C_3
REMARK    2  A    between atoms: C_3  and  O_4
REMARK    3  A    between atoms: O_4  and  C_5
REMARK    4  A    between atoms: N_7  and  C_8
REMARK    5  A    between atoms: C_8  and  C_9
REMARK    6  A    between atoms: C_8  and  C_13
REMARK    7  A    between atoms: C_9  and  N_10
REMARK                            x       y       z     vdW  Elec       q    Type
REMARK                         _______ _______ _______ _____ _____    ______ ____
ROOT
ATOM      1  C   UNL     1       5.536   4.833  16.275  0.00  0.00    +0.000 C 
ENDROOT
BRANCH   1   2
ATOM      2  C   UNL     1       4.192   4.789  16.998  0.00  0.00    +0.000 A 
ATOM      3  C   UNL     1       3.672   5.898  17.681  0.00  0.00    +0.000 A 
ATOM      4  C   UNL     1       2.461   5.807  18.376  0.00  0.00    +0.000 A 
ATOM      5  C   UNL     1       1.749   4.611  18.395  0.00  0.00    +0.000 A 
ATOM      6  C   UNL     1       2.231   3.510  17.697  0.00  0.00    +0.000 A 
ATOM      7  C   UNL     1       3.434   3.604  16.992  0.00  0.00    +0.000 A 
ENDBRANCH   1   2
BRANCH   1  10
ATOM      8  C   UNL     1       7.555   4.568  17.793  0.00  0.00    +0.000 C 
ATOM      9  O   UNL     1       8.662   4.043  17.814  0.00  0.00    +0.000 OA
ATOM     10  N   UNL     1       6.611   4.094  16.939  0.00  0.00    +0.000 N 
ATOM     11  H   UNL     1       6.908   3.231  16.498  0.00  0.00    +0.000 HD
BRANCH   8  12
ATOM     12  O   UNL     1       7.121   5.528  18.640  0.00  0.00    +0.000 OA
BRANCH  12  13
ATOM     13  C   UNL     1       8.013   6.648  18.720  0.00  0.00    +0.000 C 
BRANCH  13  15
ATOM     14  C   UNL     1       7.982   8.956  17.749  0.00  0.00    +0.000 C 
ATOM     15  C   UNL     1       7.676   7.655  17.667  0.00  0.00    +0.000 C 
ENDBRANCH  13  15
ENDBRANCH  12  13
ENDBRANCH   8  12
ENDBRANCH   1  10
BRANCH   1  16
ATOM     16  C   UNL     1       5.440   4.365  14.809  0.00  0.00    +0.000 C 
BRANCH  16  17
ATOM     17  N   UNL     1       6.719   4.688  14.086  0.00  0.00    +0.000 N 
ATOM     18  O   UNL     1       7.477   5.517  14.608  0.00  0.00    +0.000 OA
ATOM     19  O   UNL     1       6.899   4.140  12.990  0.00  0.00    +0.000 OA
ENDBRANCH  16  17
ENDBRANCH   1  16
TORSDOF 7
ENDMDL
MODEL 2
REMARK VINA RESULT:      -6.7      1.927      4.621
REMARK  Name = 
REMARK  7 active torsions:
REMARK  status: ('A' for Active; 'I' for Inactive)
REMARK    1  A    between atoms: C_2  and  C_3
REMARK    2  A    between atoms: C_3  and  O_4
REMARK    3  A    between atoms: O_4  and  C_5
REMARK    4  A    between atoms: N_7  and  C_8
REMARK    5  A    between atoms: C_8  and  C_9
REMARK    6  A    between atoms: C_8  and  C_13
REMARK    7  A    between atoms: C_9  and  N_10
REMARK                            x       y       z     vdW  Elec       q    Type
REMARK                         _______ _______ _______ _____ _____    ______ ____
ROOT
ATOM      1  C   UNL     1       6.152   4.733  16.704  0.00  0.00    +0.000 C 
ENDROOT
BRANCH   1   2
ATOM      2  C   UNL     1       4.908   5.331  17.356  0.00  0.00    +0.000 A 
ATOM      3  C   UNL     1       4.043   4.571  18.156  0.00  0.00    +0.000 A 
ATOM      4  C   UNL     1       2.884   5.138  18.697  0.00  0.00    +0.000 A 
ATOM      5  C   UNL     1       2.573   6.472  18.450  0.00  0.00    +0.000 A 
ATOM      6  C   UNL     1       3.434   7.251  17.687  0.00  0.00    +0.000 A 
ATOM      7  C   UNL     1       4.599   6.688  17.158  0.00  0.00    +0.000 A 
ENDBRANCH   1   2
BRANCH   1  10
ATOM      8  C   UNL     1       7.114   5.017  14.370  0.00  0.00    +0.000 C 
ATOM      9  O   UNL     1       7.998   5.625  13.778  0.00  0.00    +0.000 OA
ATOM     10  N   UNL     1       6.667   5.491  15.562  0.00  0.00    +0.000 N 
ATOM     11  H   UNL     1       7.041   6.413  15.760  0.00  0.00    +0.000 HD
BRANCH   8  12
ATOM     12  O   UNL     1       6.433   3.953  13.894  0.00  0.00    +0.000 OA
BRANCH  12  13
ATOM     13  C   UNL     1       6.599   3.770  12.481  0.00  0.00    +0.000 C 
BRANCH  13  15
ATOM     14  C   UNL     1       4.357   3.293  11.472  0.00  0.00    +0.000 C 
ATOM     15  C   UNL     1       5.534   2.865  11.947  0.00  0.00    +0.000 C 
ENDBRANCH  13  15
ENDBRANCH  12  13
ENDBRANCH   8  12
ENDBRANCH   1  10
BRANCH   1  16
ATOM     16  C   UNL     1       7.299   4.505  17.709  0.00  0.00    +0.000 C 
BRANCH  16  17
ATOM     17  N   UNL     1       7.431   5.700  18.613  0.00  0.00    +0.000 N 
ATOM     18  O   UNL     1       7.063   5.570  19.789  0.00  0.00    +0.000 OA
ATOM     19  O   UNL     1       7.849   6.748  18.103  0.00  0.00    +0.000 OA
ENDBRANCH  16  17
ENDBRANCH   1  16
TORSDOF 7
ENDMDL
MODEL 3
REMARK VINA RESULT:      -6.7      1.657      4.564
REMARK  Name = 
REMARK  7 active torsions:
REMARK  status: ('A' for Active; 'I' for Inactive)
REMARK    1  A    between atoms: C_2  and  C_3
REMARK    2  A    between atoms: C_3  and  O_4
REMARK    3  A    between atoms: O_4  and  C_5
REMARK    4  A    between atoms: N_7  and  C_8
REMARK    5  A    between atoms: C_8  and  C_9
REMARK    6  A    between atoms: C_8  and  C_13
REMARK    7  A    between atoms: C_9  and  N_10
REMARK                            x       y       z     vdW  Elec       q    Type
REMARK                         _______ _______ _______ _____ _____    ______ ____
ROOT
ATOM      1  C   UNL     1       6.251   5.097  16.634  0.00  0.00    +0.000 C 
ENDROOT
BRANCH   1   2
ATOM      2  C   UNL     1       4.795   4.941  17.066  0.00  0.00    +0.000 A 
ATOM      3  C   UNL     1       4.081   3.749  16.874  0.00  0.00    +0.000 A 
ATOM      4  C   UNL     1       2.732   3.657  17.235  0.00  0.00    +0.000 A 
ATOM      5  C   UNL     1       2.078   4.749  17.798  0.00  0.00    +0.000 A 
ATOM      6  C   UNL     1       2.778   5.928  18.028  0.00  0.00    +0.000 A 
ATOM      7  C   UNL     1       4.128   6.016  17.679  0.00  0.00    +0.000 A 
ENDBRANCH   1   2
BRANCH   1  10
ATOM      8  C   UNL     1       6.883   5.014  14.175  0.00  0.00    +0.000 C 
ATOM      9  O   UNL     1       7.510   5.651  13.337  0.00  0.00    +0.000 OA
ATOM     10  N   UNL     1       6.432   5.647  15.290  0.00  0.00    +0.000 N 
ATOM     11  H   UNL     1       6.556   6.651  15.223  0.00  0.00    +0.000 HD
BRANCH   8  12
ATOM     12  O   UNL     1       6.480   3.730  14.052  0.00  0.00    +0.000 OA
BRANCH  12  13
ATOM     13  C   UNL     1       6.215   3.356  12.693  0.00  0.00    +0.000 C 
BRANCH  13  15
ATOM     14  C   UNL     1       4.198   3.265  11.211  0.00  0.00    +0.000 C 
ATOM     15  C   UNL     1       4.742   3.373  12.430  0.00  0.00    +0.000 C 
ENDBRANCH  13  15
ENDBRANCH  12  13
ENDBRANCH   8  12
ENDBRANCH   1  10
BRANCH   1  16
ATOM     16  C   UNL     1       7.082   5.930  17.631  0.00  0.00    +0.000 C 
BRANCH  16  17
ATOM     17  N   UNL     1       7.913   5.016  18.490  0.00  0.00    +0.000 N 
ATOM     18  O   UNL     1       8.003   5.290  19.694  0.00  0.00    +0.000 OA
ATOM     19  O   UNL     1       8.494   4.083  17.920  0.00  0.00    +0.000 OA
ENDBRANCH  16  17
ENDBRANCH   1  16
TORSDOF 7
ENDMDL
MODEL 4
REMARK VINA RESULT:      -6.6      2.151      5.486
REMARK  Name = 
REMARK  7 active torsions:
REMARK  status: ('A' for Active; 'I' for Inactive)
REMARK    1  A    between atoms: C_2  and  C_3
REMARK    2  A    between atoms: C_3  and  O_4
REMARK    3  A    between atoms: O_4  and  C_5
REMARK    4  A    between atoms: N_7  and  C_8
REMARK    5  A    between atoms: C_8  and  C_9
REMARK    6  A    between atoms: C_8  and  C_13
REMARK    7  A    between atoms: C_9  and  N_10
REMARK                            x       y       z     vdW  Elec       q    Type
REMARK                         _______ _______ _______ _____ _____    ______ ____
ROOT
ATOM      1  C   UNL     1       5.717   4.925  16.069  0.00  0.00    +0.000 C 
ENDROOT
BRANCH   1   2
ATOM      2  C   UNL     1       6.156   4.628  14.637  0.00  0.00    +0.000 A 
ATOM      3  C   UNL     1       5.458   3.737  13.810  0.00  0.00    +0.000 A 
ATOM      4  C   UNL     1       5.916   3.450  12.519  0.00  0.00    +0.000 A 
ATOM      5  C   UNL     1       7.075   4.050  12.035  0.00  0.00    +0.000 A 
ATOM      6  C   UNL     1       7.763   4.961  12.828  0.00  0.00    +0.000 A 
ATOM      7  C   UNL     1       7.298   5.258  14.112  0.00  0.00    +0.000 A 
ENDBRANCH   1   2
BRANCH   1  10
ATOM      8  C   UNL     1       4.303   3.530  17.654  0.00  0.00    +0.000 C 
ATOM      9  O   UNL     1       4.414   2.824  18.649  0.00  0.00    +0.000 OA
ATOM     10  N   UNL     1       5.389   3.740  16.864  0.00  0.00    +0.000 N 
ATOM     11  H   UNL     1       6.165   3.144  17.133  0.00  0.00    +0.000 HD
BRANCH   8  12
ATOM     12  O   UNL     1       3.150   4.048  17.178  0.00  0.00    +0.000 OA
BRANCH  12  13
ATOM     13  C   UNL     1       2.273   4.507  18.216  0.00  0.00    +0.000 C 
BRANCH  13  15
ATOM     14  C   UNL     1       0.905   2.808  19.445  0.00  0.00    +0.000 C 
ATOM     15  C   UNL     1       1.115   3.573  18.366  0.00  0.00    +0.000 C 
ENDBRANCH  13  15
ENDBRANCH  12  13
ENDBRANCH   8  12
ENDBRANCH   1  10
BRANCH   1  16
ATOM     16  C   UNL     1       6.744   5.776  16.843  0.00  0.00    +0.000 C 
BRANCH  16  17
ATOM     17  N   UNL     1       7.473   4.915  17.838  0.00  0.00    +0.000 N 
ATOM     18  O   UNL     1       7.224   5.093  19.038  0.00  0.00    +0.000 OA
ATOM     19  O   UNL     1       8.313   4.124  17.389  0.00  0.00    +0.000 OA
ENDBRANCH  16  17
ENDBRANCH   1  16
TORSDOF 7
ENDMDL
MODEL 5
REMARK VINA RESULT:      -6.6      2.444      4.413
REMARK  Name = 
REMARK  7 active torsions:
REMARK  status: ('A' for Active; 'I' for Inactive)
REMARK    1  A    between atoms: C_2  and  C_3
REMARK    2  A    between atoms: C_3  and  O_4
REMARK    3  A    between atoms: O_4  and  C_5
REMARK    4  A    between atoms: N_7  and  C_8
REMARK    5  A    between atoms: C_8  and  C_9
REMARK    6  A    between atoms: C_8  and  C_13
REMARK    7  A    between atoms: C_9  and  N_10
REMARK                            x       y       z     vdW  Elec       q    Type
REMARK                         _______ _______ _______ _____ _____    ______ ____
ROOT
ATOM      1  C   UNL     1       4.488   4.829  18.226  0.00  0.00    +0.000 C 
ENDROOT
BRANCH   1   2
ATOM      2  C   UNL     1       3.185   4.219  18.739  0.00  0.00    +0.000 A 
ATOM      3  C   UNL     1       2.503   3.214  18.039  0.00  0.00    +0.000 A 
ATOM      4  C   UNL     1       1.285   2.713  18.512  0.00  0.00    +0.000 A 
ATOM      5  C   UNL     1       0.733   3.204  19.692  0.00  0.00    +0.000 A 
ATOM      6  C   UNL     1       1.410   4.177  20.417  0.00  0.00    +0.000 A 
ATOM      7  C   UNL     1       2.633   4.668  19.952  0.00  0.00    +0.000 A 
ENDBRANCH   1   2
BRANCH   1  10
ATOM      8  C   UNL     1       4.999   5.810  15.939  0.00  0.00    +0.000 C 
ATOM      9  O   UNL     1       5.191   6.890  15.393  0.00  0.00    +0.000 OA
ATOM     10  N   UNL     1       4.324   5.772  17.118  0.00  0.00    +0.000 N 
ATOM     11  H   UNL     1       3.921   6.674  17.345  0.00  0.00    +0.000 HD
BRANCH   8  12
ATOM     12  O   UNL     1       5.297   4.599  15.419  0.00  0.00    +0.000 OA
BRANCH  12  13
ATOM     13  C   UNL     1       6.393   4.642  14.495  0.00  0.00    +0.000 C 
BRANCH  13  15
ATOM     14  C   UNL     1       6.536   3.738  12.164  0.00  0.00    +0.000 C 
ATOM     15  C   UNL     1       6.240   3.573  13.460  0.00  0.00    +0.000 C 
ENDBRANCH  13  15
ENDBRANCH  12  13
ENDBRANCH   8  12
ENDBRANCH   1  10
BRANCH   1  16
ATOM     16  C   UNL     1       5.308   5.507  19.341  0.00  0.00    +0.000 C 
BRANCH  16  17
ATOM     17  N   UNL     1       6.754   5.109  19.225  0.00  0.00    +0.000 N 
ATOM     18  O   UNL     1       7.081   4.426  18.245  0.00  0.00    +0.000 OA
ATOM     19  O   UNL     1       7.507   5.450  20.147  0.00  0.00    +0.000 OA
ENDBRANCH  16  17
ENDBRANCH   1  16
TORSDOF 7
ENDMDL
MODEL 6
REMARK VINA RESULT:      -6.6      2.307      4.044
REMARK  Name = 
REMARK  7 active torsions:
REMARK  status: ('A' for Active; 'I' for Inactive)
REMARK    1  A    between atoms: C_2  and  C_3
REMARK    2  A    between atoms: C_3  and  O_4
REMARK    3  A    between atoms: O_4  and  C_5
REMARK    4  A    between atoms: N_7  and  C_8
REMARK    5  A    between atoms: C_8  and  C_9
REMARK    6  A    between atoms: C_8  and  C_13
REMARK    7  A    between atoms: C_9  and  N_10
REMARK                            x       y       z     vdW  Elec       q    Type
REMARK                         _______ _______ _______ _____ _____    ______ ____
ROOT
ATOM      1  C   UNL     1       4.680   4.816  18.199  0.00  0.00    +0.000 C 
ENDROOT
BRANCH   1   2
ATOM      2  C   UNL     1       3.341   4.508  18.865  0.00  0.00    +0.000 A 
ATOM      3  C   UNL     1       2.971   5.070  20.095  0.00  0.00    +0.000 A 
ATOM      4  C   UNL     1       1.757   4.727  20.702  0.00  0.00    +0.000 A 
ATOM      5  C   UNL     1       0.895   3.823  20.088  0.00  0.00    +0.000 A 
ATOM      6  C   UNL     1       1.229   3.281  18.853  0.00  0.00    +0.000 A 
ATOM      7  C   UNL     1       2.435   3.633  18.241  0.00  0.00    +0.000 A 
ENDBRANCH   1   2
BRANCH   1  10
ATOM      8  C   UNL     1       5.179   5.794  15.908  0.00  0.00    +0.000 C 
ATOM      9  O   UNL     1       5.540   6.841  15.383  0.00  0.00    +0.000 OA
ATOM     10  N   UNL     1       4.617   5.830  17.144  0.00  0.00    +0.000 N 
ATOM     11  H   UNL     1       4.430   6.782  17.440  0.00  0.00    +0.000 HD
BRANCH   8  12
ATOM     12  O   UNL     1       5.174   4.577  15.320  0.00  0.00    +0.000 OA
BRANCH  12  13
ATOM     13  C   UNL     1       6.359   4.323  14.552  0.00  0.00    +0.000 C 
BRANCH  13  15
ATOM     14  C   UNL     1       6.737   3.748  12.144  0.00  0.00    +0.000 C 
ATOM     15  C   UNL     1       6.005   3.654  13.262  0.00  0.00    +0.000 C 
ENDBRANCH  13  15
ENDBRANCH  12  13
ENDBRANCH   8  12
ENDBRANCH   1  10
BRANCH   1  16
ATOM     16  C   UNL     1       5.772   5.216  19.211  0.00  0.00    +0.000 C 
BRANCH  16  17
ATOM     17  N   UNL     1       7.089   5.377  18.503  0.00  0.00    +0.000 N 
ATOM     18  O   UNL     1       7.540   6.525  18.390  0.00  0.00    +0.000 OA
ATOM     19  O   UNL     1       7.605   4.353  18.035  0.00  0.00    +0.000 OA
ENDBRANCH  16  17
ENDBRANCH   1  16
TORSDOF 7
ENDMDL
MODEL 7
REMARK VINA RESULT:      -6.6      2.168      5.009
REMARK  Name = 
REMARK  7 active torsions:
REMARK  status: ('A' for Active; 'I' for Inactive)
REMARK    1  A    between atoms: C_2  and  C_3
REMARK    2  A    between atoms: C_3  and  O_4
REMARK    3  A    between atoms: O_4  and  C_5
REMARK    4  A    between atoms: N_7  and  C_8
REMARK    5  A    between atoms: C_8  and  C_9
REMARK    6  A    between atoms: C_8  and  C_13
REMARK    7  A    between atoms: C_9  and  N_10
REMARK                            x       y       z     vdW  Elec       q    Type
REMARK                         _______ _______ _______ _____ _____    ______ ____
ROOT
ATOM      1  C   UNL     1       5.505   4.759  16.026  0.00  0.00    +0.000 C 
ENDROOT
BRANCH   1   2
ATOM      2  C   UNL     1       6.088   4.531  14.634  0.00  0.00    +0.000 A 
ATOM      3  C   UNL     1       7.231   5.205  14.181  0.00  0.00    +0.000 A 
ATOM      4  C   UNL     1       7.709   5.010  12.880  0.00  0.00    +0.000 A 
ATOM      5  C   UNL     1       7.056   4.137  12.015  0.00  0.00    +0.000 A 
ATOM      6  C   UNL     1       5.941   3.434  12.456  0.00  0.00    +0.000 A 
ATOM      7  C   UNL     1       5.471   3.619  13.759  0.00  0.00    +0.000 A 
ENDBRANCH   1   2
BRANCH   1  10
ATOM      8  C   UNL     1       4.041   3.264  17.466  0.00  0.00    +0.000 C 
ATOM      9  O   UNL     1       4.113   2.520  18.438  0.00  0.00    +0.000 OA
ATOM     10  N   UNL     1       5.165   3.534  16.753  0.00  0.00    +0.000 N 
ATOM     11  H   UNL     1       5.940   2.949  17.044  0.00  0.00    +0.000 HD
BRANCH   8  12
ATOM     12  O   UNL     1       2.903   3.770  16.942  0.00  0.00    +0.000 OA
BRANCH  12  13
ATOM     13  C   UNL     1       2.067   4.399  17.923  0.00  0.00    +0.000 C 
BRANCH  13  15
ATOM     14  C   UNL     1       2.777   6.798  18.026  0.00  0.00    +0.000 C 
ATOM     15  C   UNL     1       2.779   5.562  18.540  0.00  0.00    +0.000 C 
ENDBRANCH  13  15
ENDBRANCH  12  13
ENDBRANCH   8  12
ENDBRANCH   1  10
BRANCH   1  16
ATOM     16  C   UNL     1       6.412   5.632  16.916  0.00  0.00    +0.000 C 
BRANCH  16  17
ATOM     17  N   UNL     1       7.206   4.757  17.848  0.00  0.00    +0.000 N 
ATOM     18  O   UNL     1       8.189   4.167  17.378  0.00  0.00    +0.000 OA
ATOM     19  O   UNL     1       6.789   4.646  19.008  0.00  0.00    +0.000 OA
ENDBRANCH  16  17
ENDBRANCH   1  16
TORSDOF 7
ENDMDL
MODEL 8
REMARK VINA RESULT:      -6.5      2.196      5.373
REMARK  Name = 
REMARK  7 active torsions:
REMARK  status: ('A' for Active; 'I' for Inactive)
REMARK    1  A    between atoms: C_2  and  C_3
REMARK    2  A    between atoms: C_3  and  O_4
REMARK    3  A    between atoms: O_4  and  C_5
REMARK    4  A    between atoms: N_7  and  C_8
REMARK    5  A    between atoms: C_8  and  C_9
REMARK    6  A    between atoms: C_8  and  C_13
REMARK    7  A    between atoms: C_9  and  N_10
REMARK                            x       y       z     vdW  Elec       q    Type
REMARK                         _______ _______ _______ _____ _____    ______ ____
ROOT
ATOM      1  C   UNL     1       5.831   4.982  16.153  0.00  0.00    +0.000 C 
ENDROOT
BRANCH   1   2
ATOM      2  C   UNL     1       6.289   4.674  14.729  0.00  0.00    +0.000 A 
ATOM      3  C   UNL     1       7.417   5.281  14.158  0.00  0.00    +0.000 A 
ATOM      4  C   UNL     1       7.779   5.013  12.833  0.00  0.00    +0.000 A 
ATOM      5  C   UNL     1       7.025   4.134  12.061  0.00  0.00    +0.000 A 
ATOM      6  C   UNL     1       5.923   3.497  12.620  0.00  0.00    +0.000 A 
ATOM      7  C   UNL     1       5.568   3.754  13.947  0.00  0.00    +0.000 A 
ENDBRANCH   1   2
BRANCH   1  10
ATOM      8  C   UNL     1       4.395   3.673  17.789  0.00  0.00    +0.000 C 
ATOM      9  O   UNL     1       4.502   2.928  18.756  0.00  0.00    +0.000 OA
ATOM     10  N   UNL     1       5.445   3.808  16.936  0.00  0.00    +0.000 N 
ATOM     11  H   UNL     1       6.177   3.136  17.139  0.00  0.00    +0.000 HD
BRANCH   8  12
ATOM     12  O   UNL     1       3.267   4.307  17.401  0.00  0.00    +0.000 OA
BRANCH  12  13
ATOM     13  C   UNL     1       2.075   3.597  17.763  0.00  0.00    +0.000 C 
BRANCH  13  15
ATOM     14  C   UNL     1       0.889   3.460  19.964  0.00  0.00    +0.000 C 
ATOM     15  C   UNL     1       1.479   4.183  19.003  0.00  0.00    +0.000 C 
ENDBRANCH  13  15
ENDBRANCH  12  13
ENDBRANCH   8  12
ENDBRANCH   1  10
BRANCH   1  16
ATOM     16  C   UNL     1       6.870   5.795  16.950  0.00  0.00    +0.000 C 
BRANCH  16  17
ATOM     17  N   UNL     1       7.498   4.924  18.004  0.00  0.00    +0.000 N 
ATOM     18  O   UNL     1       7.189   5.142  19.184  0.00  0.00    +0.000 OA
ATOM     19  O   UNL     1       8.323   4.084  17.621  0.00  0.00    +0.000 OA
ENDBRANCH  16  17
ENDBRANCH   1  16
TORSDOF 7
ENDMDL
MODEL 9
REMARK VINA RESULT:      -6.5      0.906      1.237
REMARK  Name = 
REMARK  7 active torsions:
REMARK  status: ('A' for Active; 'I' for Inactive)
REMARK    1  A    between atoms: C_2  and  C_3
REMARK    2  A    between atoms: C_3  and  O_4
REMARK    3  A    between atoms: O_4  and  C_5
REMARK    4  A    between atoms: N_7  and  C_8
REMARK    5  A    between atoms: C_8  and  C_9
REMARK    6  A    between atoms: C_8  and  C_13
REMARK    7  A    between atoms: C_9  and  N_10
REMARK                            x       y       z     vdW  Elec       q    Type
REMARK                         _______ _______ _______ _____ _____    ______ ____
ROOT
ATOM      1  C   UNL     1       4.922   4.838  17.086  0.00  0.00    +0.000 C 
ENDROOT
BRANCH   1   2
ATOM      2  C   UNL     1       3.672   4.233  17.720  0.00  0.00    +0.000 A 
ATOM      3  C   UNL     1       2.884   4.937  18.642  0.00  0.00    +0.000 A 
ATOM      4  C   UNL     1       1.773   4.333  19.241  0.00  0.00    +0.000 A 
ATOM      5  C   UNL     1       1.430   3.021  18.927  0.00  0.00    +0.000 A 
ATOM      6  C   UNL     1       2.179   2.318  17.991  0.00  0.00    +0.000 A 
ATOM      7  C   UNL     1       3.281   2.925  17.382  0.00  0.00    +0.000 A 
ENDBRANCH   1   2
BRANCH   1  10
ATOM      8  C   UNL     1       7.296   4.512  17.931  0.00  0.00    +0.000 C 
ATOM      9  O   UNL     1       8.371   4.042  17.576  0.00  0.00    +0.000 OA
ATOM     10  N   UNL     1       6.154   4.086  17.329  0.00  0.00    +0.000 N 
ATOM     11  H   UNL     1       6.327   3.290  16.724  0.00  0.00    +0.000 HD
BRANCH   8  12
ATOM     12  O   UNL     1       7.107   5.353  18.971  0.00  0.00    +0.000 OA
BRANCH  12  13
ATOM     13  C   UNL     1       7.966   6.500  18.924  0.00  0.00    +0.000 C 
BRANCH  13  15
ATOM     14  C   UNL     1       7.991   8.664  17.664  0.00  0.00    +0.000 C 
ATOM     15  C   UNL     1       7.567   7.401  17.799  0.00  0.00    +0.000 C 
ENDBRANCH  13  15
ENDBRANCH  12  13
ENDBRANCH   8  12
ENDBRANCH   1  10
BRANCH   1  16
ATOM     16  C   UNL     1       4.769   5.070  15.570  0.00  0.00    +0.000 C 
BRANCH  16  17
ATOM     17  N   UNL     1       6.073   4.782  14.876  0.00  0.00    +0.000 N 
ATOM     18  O   UNL     1       6.250   3.634  14.447  0.00  0.00    +0.000 OA
ATOM     19  O   UNL     1       6.901   5.702  14.831  0.00  0.00    +0.000 OA
ENDBRANCH  16  17
ENDBRANCH   1  16
TORSDOF 7
ENDMDL
