MODEL 1
REMARK VINA RESULT:      -6.9      0.000      0.000
REMARK  Name = 
REMARK  11 active torsions:
REMARK  status: ('A' for Active; 'I' for Inactive)
REMARK    1  A    between atoms: C_1  and  O_2
REMARK    2  A    between atoms: O_2  and  C_3
REMARK    3  A    between atoms: C_5  and  C_6
REMARK    4  A    between atoms: C_13  and  O_14
REMARK    5  A    between atoms: C_15  and  O_16
REMARK    6  A    between atoms: O_16  and  C_17
REMARK    7  A    between atoms: C_19  and  O_20
REMARK    8  A    between atoms: O_20  and  C_21
REMARK    9  A    between atoms: C_22  and  O_23
REMARK   10  A    between atoms: C_24  and  O_25
REMARK   11  A    between atoms: O_25  and  C_26
REMARK                            x       y       z     vdW  Elec       q    Type
REMARK                         _______ _______ _______ _____ _____    ______ ____
ROOT
ATOM      1  C   UNL     1       5.270   6.173  16.985  0.00  0.00    +0.000 A 
ATOM      2  C   UNL     1       4.334   7.016  17.578  0.00  0.00    +0.000 A 
ATOM      3  C   UNL     1       3.097   6.528  18.054  0.00  0.00    +0.000 A 
ATOM      4  C   UNL     1       2.799   5.146  17.954  0.00  0.00    +0.000 A 
ATOM      5  C   UNL     1       3.727   4.299  17.312  0.00  0.00    +0.000 A 
ATOM      6  C   UNL     1       4.962   4.810  16.870  0.00  0.00    +0.000 A 
ENDROOT
BRANCH   3   7
ATOM      7  C   UNL     1       2.049   7.502  18.591  0.00  0.00    +0.000 C 
ATOM      8  C   UNL     1       2.012   7.665  20.132  0.00  0.00    +0.000 C 
ATOM      9  O   UNL     1       1.823   9.023  20.617  0.00  0.00    +0.000 OA
ATOM     10  C   UNL     1       0.862   9.707  19.909  0.00  0.00    +0.000 A 
ATOM     11  C   UNL     1       0.909   9.607  18.510  0.00  0.00    +0.000 A 
ATOM     12  C   UNL     1      -0.130  10.085  17.717  0.00  0.00    +0.000 A 
ATOM     13  C   UNL     1      -1.199  10.724  18.325  0.00  0.00    +0.000 A 
ATOM     14  C   UNL     1      -1.183  10.937  19.707  0.00  0.00    +0.000 A 
ATOM     15  C   UNL     1      -0.141  10.462  20.525  0.00  0.00    +0.000 A 
ATOM     16  C   UNL     1       2.084   8.879  17.932  0.00  0.00    +0.000 C 
BRANCH  14  17
ATOM     17  O   UNL     1      -2.231  11.620  20.280  0.00  0.00    +0.000 OA
ATOM     18  H   UNL     1      -2.046  12.564  20.239  0.00  0.00    +0.000 HD
ENDBRANCH  14  17
BRANCH  15  19
ATOM     19  O   UNL     1      -0.266  10.756  21.857  0.00  0.00    +0.000 OA
ATOM     20  C   UNL     1      -0.551   9.694  22.754  0.00  0.00    +0.000 C 
ENDBRANCH  15  19
ENDBRANCH   3   7
BRANCH   1  22
ATOM     21  C   UNL     1       7.452   7.023  17.463  0.00  0.00    +0.000 C 
ATOM     22  O   UNL     1       6.492   6.575  16.515  0.00  0.00    +0.000 OA
ENDBRANCH   1  22
BRANCH   4  23
ATOM     23  O   UNL     1       1.623   4.796  18.547  0.00  0.00    +0.000 OA
ATOM     24  C   UNL     1       1.581   3.993  19.714  0.00  0.00    +0.000 C 
ENDBRANCH   4  23
BRANCH   5  25
ATOM     25  O   UNL     1       3.512   2.968  17.076  0.00  0.00    +0.000 OA
ATOM     26  H   UNL     1       3.736   2.470  17.869  0.00  0.00    +0.000 HD
ENDBRANCH   5  25
BRANCH   6  27
ATOM     27  O   UNL     1       5.857   3.936  16.293  0.00  0.00    +0.000 OA
ATOM     28  C   UNL     1       5.845   4.039  14.869  0.00  0.00    +0.000 C 
ENDBRANCH   6  27
TORSDOF 7
ENDMDL
MODEL 2
REMARK VINA RESULT:      -6.6      1.679      7.804
REMARK  Name = 
REMARK  11 active torsions:
REMARK  status: ('A' for Active; 'I' for Inactive)
REMARK    1  A    between atoms: C_1  and  O_2
REMARK    2  A    between atoms: O_2  and  C_3
REMARK    3  A    between atoms: C_5  and  C_6
REMARK    4  A    between atoms: C_13  and  O_14
REMARK    5  A    between atoms: C_15  and  O_16
REMARK    6  A    between atoms: O_16  and  C_17
REMARK    7  A    between atoms: C_19  and  O_20
REMARK    8  A    between atoms: O_20  and  C_21
REMARK    9  A    between atoms: C_22  and  O_23
REMARK   10  A    between atoms: C_24  and  O_25
REMARK   11  A    between atoms: O_25  and  C_26
REMARK                            x       y       z     vdW  Elec       q    Type
REMARK                         _______ _______ _______ _____ _____    ______ ____
ROOT
ATOM      1  C   UNL     1      -0.765  11.082  18.580  0.00  0.00    +0.000 A 
ATOM      2  C   UNL     1       0.071   9.970  18.539  0.00  0.00    +0.000 A 
ATOM      3  C   UNL     1       0.862   9.597  19.649  0.00  0.00    +0.000 A 
ATOM      4  C   UNL     1       0.794  10.352  20.846  0.00  0.00    +0.000 A 
ATOM      5  C   UNL     1      -0.018  11.505  20.874  0.00  0.00    +0.000 A 
ATOM      6  C   UNL     1      -0.814  11.836  19.762  0.00  0.00    +0.000 A 
ENDROOT
BRANCH   3   7
ATOM      7  C   UNL     1       1.853   8.441  19.524  0.00  0.00    +0.000 C 
ATOM      8  C   UNL     1       1.615   7.247  20.483  0.00  0.00    +0.000 C 
ATOM      9  O   UNL     1       1.799   5.927  19.903  0.00  0.00    +0.000 OA
ATOM     10  C   UNL     1       2.918   5.853  19.105  0.00  0.00    +0.000 A 
ATOM     11  C   UNL     1       3.123   6.904  18.198  0.00  0.00    +0.000 A 
ATOM     12  C   UNL     1       4.320   7.029  17.497  0.00  0.00    +0.000 A 
ATOM     13  C   UNL     1       5.297   6.060  17.662  0.00  0.00    +0.000 A 
ATOM     14  C   UNL     1       5.040   4.946  18.466  0.00  0.00    +0.000 A 
ATOM     15  C   UNL     1       3.836   4.801  19.180  0.00  0.00    +0.000 A 
ATOM     16  C   UNL     1       2.031   7.924  18.098  0.00  0.00    +0.000 C 
BRANCH  14  17
ATOM     17  O   UNL     1       6.007   3.972  18.571  0.00  0.00    +0.000 OA
ATOM     18  H   UNL     1       5.577   3.126  18.736  0.00  0.00    +0.000 HD
ENDBRANCH  14  17
BRANCH  15  19
ATOM     19  O   UNL     1       3.732   3.653  19.919  0.00  0.00    +0.000 OA
ATOM     20  C   UNL     1       2.894   2.615  19.432  0.00  0.00    +0.000 C 
ENDBRANCH  15  19
ENDBRANCH   3   7
BRANCH   1  22
ATOM     21  C   UNL     1      -2.318  10.500  16.858  0.00  0.00    +0.000 C 
ATOM     22  O   UNL     1      -1.568  11.491  17.549  0.00  0.00    +0.000 OA
ENDBRANCH   1  22
BRANCH   4  23
ATOM     23  O   UNL     1       1.525   9.822  21.867  0.00  0.00    +0.000 OA
ATOM     24  C   UNL     1       0.918   9.356  23.060  0.00  0.00    +0.000 C 
ENDBRANCH   4  23
BRANCH   5  25
ATOM     25  O   UNL     1      -0.095  12.361  21.940  0.00  0.00    +0.000 OA
ATOM     26  H   UNL     1       0.308  11.941  22.707  0.00  0.00    +0.000 HD
ENDBRANCH   5  25
BRANCH   6  27
ATOM     27  O   UNL     1      -1.627  12.944  19.851  0.00  0.00    +0.000 OA
ATOM     28  C   UNL     1      -2.941  12.595  20.287  0.00  0.00    +0.000 C 
ENDBRANCH   6  27
TORSDOF 7
ENDMDL
MODEL 3
REMARK VINA RESULT:      -6.3      2.490      7.675
REMARK  Name = 
REMARK  11 active torsions:
REMARK  status: ('A' for Active; 'I' for Inactive)
REMARK    1  A    between atoms: C_1  and  O_2
REMARK    2  A    between atoms: O_2  and  C_3
REMARK    3  A    between atoms: C_5  and  C_6
REMARK    4  A    between atoms: C_13  and  O_14
REMARK    5  A    between atoms: C_15  and  O_16
REMARK    6  A    between atoms: O_16  and  C_17
REMARK    7  A    between atoms: C_19  and  O_20
REMARK    8  A    between atoms: O_20  and  C_21
REMARK    9  A    between atoms: C_22  and  O_23
REMARK   10  A    between atoms: C_24  and  O_25
REMARK   11  A    between atoms: O_25  and  C_26
REMARK                            x       y       z     vdW  Elec       q    Type
REMARK                         _______ _______ _______ _____ _____    ______ ____
ROOT
ATOM      1  C   UNL     1       1.450  13.029  18.722  0.00  0.00    +0.000 A 
ATOM      2  C   UNL     1       1.792  11.680  18.682  0.00  0.00    +0.000 A 
ATOM      3  C   UNL     1       0.806  10.669  18.632  0.00  0.00    +0.000 A 
ATOM      4  C   UNL     1      -0.566  11.025  18.597  0.00  0.00    +0.000 A 
ATOM      5  C   UNL     1      -0.913  12.389  18.684  0.00  0.00    +0.000 A 
ATOM      6  C   UNL     1       0.092  13.374  18.707  0.00  0.00    +0.000 A 
ENDROOT
BRANCH   3   7
ATOM      7  C   UNL     1       1.217   9.200  18.708  0.00  0.00    +0.000 C 
ATOM      8  C   UNL     1       2.155   8.706  17.577  0.00  0.00    +0.000 C 
ATOM      9  O   UNL     1       3.227   7.816  17.991  0.00  0.00    +0.000 OA
ATOM     10  C   UNL     1       2.804   6.863  18.890  0.00  0.00    +0.000 A 
ATOM     11  C   UNL     1       1.991   7.302  19.947  0.00  0.00    +0.000 A 
ATOM     12  C   UNL     1       1.346   6.397  20.785  0.00  0.00    +0.000 A 
ATOM     13  C   UNL     1       1.563   5.040  20.600  0.00  0.00    +0.000 A 
ATOM     14  C   UNL     1       2.473   4.609  19.630  0.00  0.00    +0.000 A 
ATOM     15  C   UNL     1       3.136   5.510  18.775  0.00  0.00    +0.000 A 
ATOM     16  C   UNL     1       1.786   8.781  20.062  0.00  0.00    +0.000 C 
BRANCH  14  17
ATOM     17  O   UNL     1       2.710   3.260  19.502  0.00  0.00    +0.000 OA
ATOM     18  H   UNL     1       2.535   2.833  20.348  0.00  0.00    +0.000 HD
ENDBRANCH  14  17
BRANCH  15  19
ATOM     19  O   UNL     1       4.000   4.935  17.882  0.00  0.00    +0.000 OA
ATOM     20  C   UNL     1       5.393   5.031  18.139  0.00  0.00    +0.000 C 
ENDBRANCH  15  19
ENDBRANCH   3   7
BRANCH   1  22
ATOM     21  C   UNL     1       3.136  14.216  19.931  0.00  0.00    +0.000 C 
ATOM     22  O   UNL     1       2.353  14.059  18.756  0.00  0.00    +0.000 OA
ENDBRANCH   1  22
BRANCH   4  23
ATOM     23  O   UNL     1      -1.402   9.959  18.443  0.00  0.00    +0.000 OA
ATOM     24  C   UNL     1      -2.265   9.840  17.325  0.00  0.00    +0.000 C 
ENDBRANCH   4  23
BRANCH   5  25
ATOM     25  O   UNL     1      -2.201  12.848  18.750  0.00  0.00    +0.000 OA
ATOM     26  H   UNL     1      -2.478  12.868  19.672  0.00  0.00    +0.000 HD
ENDBRANCH   5  25
BRANCH   6  27
ATOM     27  O   UNL     1      -0.295  14.696  18.743  0.00  0.00    +0.000 OA
ATOM     28  C   UNL     1      -0.486  15.149  20.083  0.00  0.00    +0.000 C 
ENDBRANCH   6  27
TORSDOF 7
ENDMDL
MODEL 4
REMARK VINA RESULT:      -6.1      1.750      3.748
REMARK  Name = 
REMARK  11 active torsions:
REMARK  status: ('A' for Active; 'I' for Inactive)
REMARK    1  A    between atoms: C_1  and  O_2
REMARK    2  A    between atoms: O_2  and  C_3
REMARK    3  A    between atoms: C_5  and  C_6
REMARK    4  A    between atoms: C_13  and  O_14
REMARK    5  A    between atoms: C_15  and  O_16
REMARK    6  A    between atoms: O_16  and  C_17
REMARK    7  A    between atoms: C_19  and  O_20
REMARK    8  A    between atoms: O_20  and  C_21
REMARK    9  A    between atoms: C_22  and  O_23
REMARK   10  A    between atoms: C_24  and  O_25
REMARK   11  A    between atoms: O_25  and  C_26
REMARK                            x       y       z     vdW  Elec       q    Type
REMARK                         _______ _______ _______ _____ _____    ______ ____
ROOT
ATOM      1  C   UNL     1       2.235   3.571  17.995  0.00  0.00    +0.000 A 
ATOM      2  C   UNL     1       1.896   4.878  18.334  0.00  0.00    +0.000 A 
ATOM      3  C   UNL     1       2.875   5.891  18.448  0.00  0.00    +0.000 A 
ATOM      4  C   UNL     1       4.235   5.587  18.190  0.00  0.00    +0.000 A 
ATOM      5  C   UNL     1       4.585   4.254  17.891  0.00  0.00    +0.000 A 
ATOM      6  C   UNL     1       3.585   3.272  17.760  0.00  0.00    +0.000 A 
ENDROOT
BRANCH   3   7
ATOM      7  C   UNL     1       2.478   7.283  18.936  0.00  0.00    +0.000 C 
ATOM      8  C   UNL     1       2.262   8.346  17.828  0.00  0.00    +0.000 C 
ATOM      9  O   UNL     1       1.127   9.234  18.020  0.00  0.00    +0.000 OA
ATOM     10  C   UNL     1       1.018   9.677  19.319  0.00  0.00    +0.000 A 
ATOM     11  C   UNL     1       1.165   8.718  20.333  0.00  0.00    +0.000 A 
ATOM     12  C   UNL     1       1.277   9.092  21.669  0.00  0.00    +0.000 A 
ATOM     13  C   UNL     1       1.182  10.435  21.999  0.00  0.00    +0.000 A 
ATOM     14  C   UNL     1       0.907  11.376  21.003  0.00  0.00    +0.000 A 
ATOM     15  C   UNL     1       0.787  11.016  19.647  0.00  0.00    +0.000 A 
ATOM     16  C   UNL     1       1.287   7.291  19.892  0.00  0.00    +0.000 C 
BRANCH  14  17
ATOM     17  O   UNL     1       0.765  12.696  21.364  0.00  0.00    +0.000 OA
ATOM     18  H   UNL     1       1.595  13.003  21.746  0.00  0.00    +0.000 HD
ENDBRANCH  14  17
BRANCH  15  19
ATOM     19  O   UNL     1       0.510  12.050  18.793  0.00  0.00    +0.000 OA
ATOM     20  C   UNL     1      -0.832  12.226  18.366  0.00  0.00    +0.000 C 
ENDBRANCH  15  19
ENDBRANCH   3   7
BRANCH   1  22
ATOM     21  C   UNL     1       0.544   2.198  18.980  0.00  0.00    +0.000 C 
ATOM     22  O   UNL     1       1.338   2.546  17.853  0.00  0.00    +0.000 OA
ENDBRANCH   1  22
BRANCH   4  23
ATOM     23  O   UNL     1       5.055   6.675  18.231  0.00  0.00    +0.000 OA
ATOM     24  C   UNL     1       5.900   7.018  17.146  0.00  0.00    +0.000 C 
ENDBRANCH   4  23
BRANCH   5  25
ATOM     25  O   UNL     1       5.872   3.822  17.712  0.00  0.00    +0.000 OA
ATOM     26  H   UNL     1       5.932   3.361  16.869  0.00  0.00    +0.000 HD
ENDBRANCH   5  25
BRANCH   6  27
ATOM     27  O   UNL     1       3.969   1.993  17.420  0.00  0.00    +0.000 OA
ATOM     28  C   UNL     1       4.022   1.141  18.563  0.00  0.00    +0.000 C 
ENDBRANCH   6  27
TORSDOF 7
ENDMDL
MODEL 5
REMARK VINA RESULT:      -6.1      1.974      3.909
REMARK  Name = 
REMARK  11 active torsions:
REMARK  status: ('A' for Active; 'I' for Inactive)
REMARK    1  A    between atoms: C_1  and  O_2
REMARK    2  A    between atoms: O_2  and  C_3
REMARK    3  A    between atoms: C_5  and  C_6
REMARK    4  A    between atoms: C_13  and  O_14
REMARK    5  A    between atoms: C_15  and  O_16
REMARK    6  A    between atoms: O_16  and  C_17
REMARK    7  A    between atoms: C_19  and  O_20
REMARK    8  A    between atoms: O_20  and  C_21
REMARK    9  A    between atoms: C_22  and  O_23
REMARK   10  A    between atoms: C_24  and  O_25
REMARK   11  A    between atoms: O_25  and  C_26
REMARK                            x       y       z     vdW  Elec       q    Type
REMARK                         _______ _______ _______ _____ _____    ______ ____
ROOT
ATOM      1  C   UNL     1       2.427   3.612  19.978  0.00  0.00    +0.000 A 
ATOM      2  C   UNL     1       1.979   4.931  19.955  0.00  0.00    +0.000 A 
ATOM      3  C   UNL     1       2.783   5.975  19.446  0.00  0.00    +0.000 A 
ATOM      4  C   UNL     1       4.067   5.684  18.922  0.00  0.00    +0.000 A 
ATOM      5  C   UNL     1       4.539   4.357  18.987  0.00  0.00    +0.000 A 
ATOM      6  C   UNL     1       3.706   3.333  19.476  0.00  0.00    +0.000 A 
ENDROOT
BRANCH   3   7
ATOM      7  C   UNL     1       2.303   7.422  19.546  0.00  0.00    +0.000 C 
ATOM      8  C   UNL     1       1.958   8.109  18.200  0.00  0.00    +0.000 C 
ATOM      9  O   UNL     1       0.769   8.945  18.207  0.00  0.00    +0.000 OA
ATOM     10  C   UNL     1       0.685   9.734  19.331  0.00  0.00    +0.000 A 
ATOM     11  C   UNL     1       0.950   9.116  20.563  0.00  0.00    +0.000 A 
ATOM     12  C   UNL     1       1.094   9.863  21.729  0.00  0.00    +0.000 A 
ATOM     13  C   UNL     1       0.912  11.236  21.673  0.00  0.00    +0.000 A 
ATOM     14  C   UNL     1       0.521  11.834  20.471  0.00  0.00    +0.000 A 
ATOM     15  C   UNL     1       0.369  11.095  19.283  0.00  0.00    +0.000 A 
ATOM     16  C   UNL     1       1.160   7.633  20.536  0.00  0.00    +0.000 C 
BRANCH  14  17
ATOM     17  O   UNL     1       0.296  13.191  20.454  0.00  0.00    +0.000 OA
ATOM     18  H   UNL     1      -0.564  13.368  20.849  0.00  0.00    +0.000 HD
ENDBRANCH  14  17
BRANCH  15  19
ATOM     19  O   UNL     1      -0.024  11.823  18.191  0.00  0.00    +0.000 OA
ATOM     20  C   UNL     1      -1.404  11.842  17.859  0.00  0.00    +0.000 C 
ENDBRANCH  15  19
ENDBRANCH   3   7
BRANCH   1  22
ATOM     21  C   UNL     1       1.487   2.452  21.845  0.00  0.00    +0.000 C 
ATOM     22  O   UNL     1       1.696   2.551  20.442  0.00  0.00    +0.000 OA
ENDBRANCH   1  22
BRANCH   4  23
ATOM     23  O   UNL     1       4.688   6.764  18.369  0.00  0.00    +0.000 OA
ATOM     24  C   UNL     1       5.112   6.774  17.017  0.00  0.00    +0.000 C 
ENDBRANCH   4  23
BRANCH   5  25
ATOM     25  O   UNL     1       5.793   3.970  18.597  0.00  0.00    +0.000 OA
ATOM     26  H   UNL     1       6.407   4.694  18.760  0.00  0.00    +0.000 HD
ENDBRANCH   5  25
BRANCH   6  27
ATOM     27  O   UNL     1       4.191   2.044  19.476  0.00  0.00    +0.000 OA
ATOM     28  C   UNL     1       3.726   1.310  18.344  0.00  0.00    +0.000 C 
ENDBRANCH   6  27
TORSDOF 7
ENDMDL
MODEL 6
REMARK VINA RESULT:      -6.1      1.471      1.716
REMARK  Name = 
REMARK  11 active torsions:
REMARK  status: ('A' for Active; 'I' for Inactive)
REMARK    1  A    between atoms: C_1  and  O_2
REMARK    2  A    between atoms: O_2  and  C_3
REMARK    3  A    between atoms: C_5  and  C_6
REMARK    4  A    between atoms: C_13  and  O_14
REMARK    5  A    between atoms: C_15  and  O_16
REMARK    6  A    between atoms: O_16  and  C_17
REMARK    7  A    between atoms: C_19  and  O_20
REMARK    8  A    between atoms: O_20  and  C_21
REMARK    9  A    between atoms: C_22  and  O_23
REMARK   10  A    between atoms: C_24  and  O_25
REMARK   11  A    between atoms: O_25  and  C_26
REMARK                            x       y       z     vdW  Elec       q    Type
REMARK                         _______ _______ _______ _____ _____    ______ ____
ROOT
ATOM      1  C   UNL     1       4.772   6.487  17.238  0.00  0.00    +0.000 A 
ATOM      2  C   UNL     1       3.756   7.376  17.577  0.00  0.00    +0.000 A 
ATOM      3  C   UNL     1       2.842   7.093  18.616  0.00  0.00    +0.000 A 
ATOM      4  C   UNL     1       2.966   5.889  19.354  0.00  0.00    +0.000 A 
ATOM      5  C   UNL     1       3.967   4.968  18.981  0.00  0.00    +0.000 A 
ATOM      6  C   UNL     1       4.878   5.289  17.958  0.00  0.00    +0.000 A 
ENDROOT
BRANCH   3   7
ATOM      7  C   UNL     1       1.671   8.038  18.880  0.00  0.00    +0.000 C 
ATOM      8  C   UNL     1       1.640   8.693  20.285  0.00  0.00    +0.000 C 
ATOM      9  O   UNL     1       1.260  10.096  20.318  0.00  0.00    +0.000 OA
ATOM     10  C   UNL     1       0.192  10.372  19.494  0.00  0.00    +0.000 A 
ATOM     11  C   UNL     1       0.226   9.824  18.202  0.00  0.00    +0.000 A 
ATOM     12  C   UNL     1      -0.888   9.870  17.369  0.00  0.00    +0.000 A 
ATOM     13  C   UNL     1      -2.029  10.522  17.811  0.00  0.00    +0.000 A 
ATOM     14  C   UNL     1      -2.018  11.178  19.045  0.00  0.00    +0.000 A 
ATOM     15  C   UNL     1      -0.900  11.145  19.900  0.00  0.00    +0.000 A 
ATOM     16  C   UNL     1       1.485   9.113  17.811  0.00  0.00    +0.000 C 
BRANCH  14  17
ATOM     17  O   UNL     1      -3.145  11.862  19.437  0.00  0.00    +0.000 OA
ATOM     18  H   UNL     1      -3.365  11.606  20.340  0.00  0.00    +0.000 HD
ENDBRANCH  14  17
BRANCH  15  19
ATOM     19  O   UNL     1      -1.041  11.840  21.071  0.00  0.00    +0.000 OA
ATOM     20  C   UNL     1      -0.389  13.096  21.189  0.00  0.00    +0.000 C 
ENDBRANCH  15  19
ENDBRANCH   3   7
BRANCH   1  22
ATOM     21  C   UNL     1       5.592   5.941  15.060  0.00  0.00    +0.000 C 
ATOM     22  O   UNL     1       5.700   6.704  16.254  0.00  0.00    +0.000 OA
ENDBRANCH   1  22
BRANCH   4  23
ATOM     23  O   UNL     1       2.089   5.792  20.393  0.00  0.00    +0.000 OA
ATOM     24  C   UNL     1       1.110   4.769  20.454  0.00  0.00    +0.000 C 
ENDBRANCH   4  23
BRANCH   5  25
ATOM     25  O   UNL     1       4.126   3.736  19.558  0.00  0.00    +0.000 OA
ATOM     26  H   UNL     1       3.723   3.071  18.990  0.00  0.00    +0.000 HD
ENDBRANCH   5  25
BRANCH   6  27
ATOM     27  O   UNL     1       5.869   4.379  17.660  0.00  0.00    +0.000 OA
ATOM     28  C   UNL     1       7.111   4.741  18.262  0.00  0.00    +0.000 C 
ENDBRANCH   6  27
TORSDOF 7
ENDMDL
MODEL 7
REMARK VINA RESULT:      -5.9      3.436      6.263
REMARK  Name = 
REMARK  11 active torsions:
REMARK  status: ('A' for Active; 'I' for Inactive)
REMARK    1  A    between atoms: C_1  and  O_2
REMARK    2  A    between atoms: O_2  and  C_3
REMARK    3  A    between atoms: C_5  and  C_6
REMARK    4  A    between atoms: C_13  and  O_14
REMARK    5  A    between atoms: C_15  and  O_16
REMARK    6  A    between atoms: O_16  and  C_17
REMARK    7  A    between atoms: C_19  and  O_20
REMARK    8  A    between atoms: O_20  and  C_21
REMARK    9  A    between atoms: C_22  and  O_23
REMARK   10  A    between atoms: C_24  and  O_25
REMARK   11  A    between atoms: O_25  and  C_26
REMARK                            x       y       z     vdW  Elec       q    Type
REMARK                         _______ _______ _______ _____ _____    ______ ____
ROOT
ATOM      1  C   UNL     1       5.792   3.675  13.153  0.00  0.00    +0.000 A 
ATOM      2  C   UNL     1       5.111   3.682  14.367  0.00  0.00    +0.000 A 
ATOM      3  C   UNL     1       5.566   4.446  15.466  0.00  0.00    +0.000 A 
ATOM      4  C   UNL     1       6.728   5.245  15.334  0.00  0.00    +0.000 A 
ATOM      5  C   UNL     1       7.444   5.203  14.119  0.00  0.00    +0.000 A 
ATOM      6  C   UNL     1       6.952   4.453  13.035  0.00  0.00    +0.000 A 
ENDROOT
BRANCH   3   7
ATOM      7  C   UNL     1       4.858   4.336  16.815  0.00  0.00    +0.000 C 
ATOM      8  C   UNL     1       3.919   5.515  17.178  0.00  0.00    +0.000 C 
ATOM      9  O   UNL     1       2.661   5.148  17.808  0.00  0.00    +0.000 OA
ATOM     10  C   UNL     1       2.817   4.175  18.770  0.00  0.00    +0.000 A 
ATOM     11  C   UNL     1       3.627   3.078  18.440  0.00  0.00    +0.000 A 
ATOM     12  C   UNL     1       4.015   2.150  19.403  0.00  0.00    +0.000 A 
ATOM     13  C   UNL     1       3.538   2.290  20.697  0.00  0.00    +0.000 A 
ATOM     14  C   UNL     1       2.628   3.309  20.995  0.00  0.00    +0.000 A 
ATOM     15  C   UNL     1       2.224   4.254  20.033  0.00  0.00    +0.000 A 
ATOM     16  C   UNL     1       4.124   3.014  17.028  0.00  0.00    +0.000 C 
BRANCH  14  17
ATOM     17  O   UNL     1       2.129   3.394  22.274  0.00  0.00    +0.000 OA
ATOM     18  H   UNL     1       2.353   2.586  22.748  0.00  0.00    +0.000 HD
ENDBRANCH  14  17
BRANCH  15  19
ATOM     19  O   UNL     1       1.324   5.186  20.476  0.00  0.00    +0.000 OA
ATOM     20  C   UNL     1       1.787   6.507  20.712  0.00  0.00    +0.000 C 
ENDBRANCH  15  19
ENDBRANCH   3   7
BRANCH   1  22
ATOM     21  C   UNL     1       4.191   3.359  11.407  0.00  0.00    +0.000 C 
ATOM     22  O   UNL     1       5.400   2.971  12.045  0.00  0.00    +0.000 OA
ENDBRANCH   1  22
BRANCH   4  23
ATOM     23  O   UNL     1       6.993   6.009  16.431  0.00  0.00    +0.000 OA
ATOM     24  C   UNL     1       7.616   5.472  17.586  0.00  0.00    +0.000 C 
ENDBRANCH   4  23
BRANCH   5  25
ATOM     25  O   UNL     1       8.626   5.859  13.904  0.00  0.00    +0.000 OA
ATOM     26  H   UNL     1       8.757   5.964  12.956  0.00  0.00    +0.000 HD
ENDBRANCH   5  25
BRANCH   6  27
ATOM     27  O   UNL     1       7.659   4.479  11.852  0.00  0.00    +0.000 OA
ATOM     28  C   UNL     1       7.517   5.732  11.185  0.00  0.00    +0.000 C 
ENDBRANCH   6  27
TORSDOF 7
ENDMDL
MODEL 8
REMARK VINA RESULT:      -5.8      2.193      7.598
REMARK  Name = 
REMARK  11 active torsions:
REMARK  status: ('A' for Active; 'I' for Inactive)
REMARK    1  A    between atoms: C_1  and  O_2
REMARK    2  A    between atoms: O_2  and  C_3
REMARK    3  A    between atoms: C_5  and  C_6
REMARK    4  A    between atoms: C_13  and  O_14
REMARK    5  A    between atoms: C_15  and  O_16
REMARK    6  A    between atoms: O_16  and  C_17
REMARK    7  A    between atoms: C_19  and  O_20
REMARK    8  A    between atoms: O_20  and  C_21
REMARK    9  A    between atoms: C_22  and  O_23
REMARK   10  A    between atoms: C_24  and  O_25
REMARK   11  A    between atoms: O_25  and  C_26
REMARK                            x       y       z     vdW  Elec       q    Type
REMARK                         _______ _______ _______ _____ _____    ______ ____
ROOT
ATOM      1  C   UNL     1       1.465  12.401  18.842  0.00  0.00    +0.000 A 
ATOM      2  C   UNL     1       1.641  11.047  18.572  0.00  0.00    +0.000 A 
ATOM      3  C   UNL     1       1.043  10.049  19.373  0.00  0.00    +0.000 A 
ATOM      4  C   UNL     1       0.223  10.422  20.467  0.00  0.00    +0.000 A 
ATOM      5  C   UNL     1       0.081  11.792  20.769  0.00  0.00    +0.000 A 
ATOM      6  C   UNL     1       0.668  12.764  19.938  0.00  0.00    +0.000 A 
ENDROOT
BRANCH   3   7
ATOM      7  C   UNL     1       1.356   8.576  19.115  0.00  0.00    +0.000 C 
ATOM      8  C   UNL     1       2.083   8.269  17.780  0.00  0.00    +0.000 C 
ATOM      9  O   UNL     1       3.138   7.271  17.852  0.00  0.00    +0.000 OA
ATOM     10  C   UNL     1       2.784   6.183  18.617  0.00  0.00    +0.000 A 
ATOM     11  C   UNL     1       2.166   6.445  19.850  0.00  0.00    +0.000 A 
ATOM     12  C   UNL     1       1.587   5.425  20.598  0.00  0.00    +0.000 A 
ATOM     13  C   UNL     1       1.678   4.121  20.137  0.00  0.00    +0.000 A 
ATOM     14  C   UNL     1       2.405   3.845  18.975  0.00  0.00    +0.000 A 
ATOM     15  C   UNL     1       2.999   4.864  18.206  0.00  0.00    +0.000 A 
ATOM     16  C   UNL     1       2.085   7.883  20.264  0.00  0.00    +0.000 C 
BRANCH  14  17
ATOM     17  O   UNL     1       2.525   2.537  18.567  0.00  0.00    +0.000 OA
ATOM     18  H   UNL     1       1.986   1.983  19.142  0.00  0.00    +0.000 HD
ENDBRANCH  14  17
BRANCH  15  19
ATOM     19  O   UNL     1       3.682   4.435  17.100  0.00  0.00    +0.000 OA
ATOM     20  C   UNL     1       5.101   4.434  17.145  0.00  0.00    +0.000 C 
ENDBRANCH  15  19
ENDBRANCH   3   7
BRANCH   1  22
ATOM     21  C   UNL     1       3.319  13.849  18.416  0.00  0.00    +0.000 C 
ATOM     22  O   UNL     1       2.001  13.420  18.100  0.00  0.00    +0.000 OA
ENDBRANCH   1  22
BRANCH   4  23
ATOM     23  O   UNL     1      -0.373   9.365  21.087  0.00  0.00    +0.000 OA
ATOM     24  C   UNL     1      -0.357   9.216  22.497  0.00  0.00    +0.000 C 
ENDBRANCH   4  23
BRANCH   5  25
ATOM     25  O   UNL     1      -0.609  12.270  21.851  0.00  0.00    +0.000 OA
ATOM     26  H   UNL     1      -0.967  11.526  22.346  0.00  0.00    +0.000 HD
ENDBRANCH   5  25
BRANCH   6  27
ATOM     27  O   UNL     1       0.463  14.092  20.244  0.00  0.00    +0.000 OA
ATOM     28  C   UNL     1      -0.665  14.621  19.547  0.00  0.00    +0.000 C 
ENDBRANCH   6  27
TORSDOF 7
ENDMDL
MODEL 9
REMARK VINA RESULT:      -5.7      2.757      7.599
REMARK  Name = 
REMARK  11 active torsions:
REMARK  status: ('A' for Active; 'I' for Inactive)
REMARK    1  A    between atoms: C_1  and  O_2
REMARK    2  A    between atoms: O_2  and  C_3
REMARK    3  A    between atoms: C_5  and  C_6
REMARK    4  A    between atoms: C_13  and  O_14
REMARK    5  A    between atoms: C_15  and  O_16
REMARK    6  A    between atoms: O_16  and  C_17
REMARK    7  A    between atoms: C_19  and  O_20
REMARK    8  A    between atoms: O_20  and  C_21
REMARK    9  A    between atoms: C_22  and  O_23
REMARK   10  A    between atoms: C_24  and  O_25
REMARK   11  A    between atoms: O_25  and  C_26
REMARK                            x       y       z     vdW  Elec       q    Type
REMARK                         _______ _______ _______ _____ _____    ______ ____
ROOT
ATOM      1  C   UNL     1       1.637  13.624  18.456  0.00  0.00    +0.000 A 
ATOM      2  C   UNL     1       2.155  12.336  18.566  0.00  0.00    +0.000 A 
ATOM      3  C   UNL     1       1.315  11.214  18.744  0.00  0.00    +0.000 A 
ATOM      4  C   UNL     1      -0.091  11.388  18.790  0.00  0.00    +0.000 A 
ATOM      5  C   UNL     1      -0.613  12.696  18.725  0.00  0.00    +0.000 A 
ATOM      6  C   UNL     1       0.247  13.791  18.522  0.00  0.00    +0.000 A 
ENDROOT
BRANCH   3   7
ATOM      7  C   UNL     1       1.927   9.834  18.978  0.00  0.00    +0.000 C 
ATOM      8  C   UNL     1       1.453   9.097  20.257  0.00  0.00    +0.000 C 
ATOM      9  O   UNL     1       1.205   7.672  20.108  0.00  0.00    +0.000 OA
ATOM     10  C   UNL     1       2.180   7.042  19.370  0.00  0.00    +0.000 A 
ATOM     11  C   UNL     1       2.589   7.673  18.184  0.00  0.00    +0.000 A 
ATOM     12  C   UNL     1       3.703   7.230  17.478  0.00  0.00    +0.000 A 
ATOM     13  C   UNL     1       4.381   6.108  17.930  0.00  0.00    +0.000 A 
ATOM     14  C   UNL     1       3.896   5.405  19.037  0.00  0.00    +0.000 A 
ATOM     15  C   UNL     1       2.770   5.837  19.762  0.00  0.00    +0.000 A 
ATOM     16  C   UNL     1       1.822   8.894  17.779  0.00  0.00    +0.000 C 
BRANCH  14  17
ATOM     17  O   UNL     1       4.557   4.265  19.433  0.00  0.00    +0.000 OA
ATOM     18  H   UNL     1       4.941   3.843  18.656  0.00  0.00    +0.000 HD
ENDBRANCH  14  17
BRANCH  15  19
ATOM     19  O   UNL     1       2.416   5.038  20.817  0.00  0.00    +0.000 OA
ATOM     20  C   UNL     1       1.308   4.166  20.656  0.00  0.00    +0.000 C 
ENDBRANCH  15  19
ENDBRANCH   3   7
BRANCH   1  22
ATOM     21  C   UNL     1       3.222  15.181  19.338  0.00  0.00    +0.000 C 
ATOM     22  O   UNL     1       2.391  14.752  18.268  0.00  0.00    +0.000 OA
ENDBRANCH   1  22
BRANCH   4  23
ATOM     23  O   UNL     1      -0.783  10.216  18.859  0.00  0.00    +0.000 OA
ATOM     24  C   UNL     1      -1.738   9.851  17.876  0.00  0.00    +0.000 C 
ENDBRANCH   4  23
BRANCH   5  25
ATOM     25  O   UNL     1      -1.943  12.996  18.850  0.00  0.00    +0.000 OA
ATOM     26  H   UNL     1      -2.306  13.171  17.975  0.00  0.00    +0.000 HD
ENDBRANCH   5  25
BRANCH   6  27
ATOM     27  O   UNL     1      -0.312  15.046  18.417  0.00  0.00    +0.000 OA
ATOM     28  C   UNL     1      -0.464  15.660  19.696  0.00  0.00    +0.000 C 
ENDBRANCH   6  27
TORSDOF 7
ENDMDL
