MODEL 1
REMARK VINA RESULT:      -7.9      0.000      0.000
REMARK  Name = 
REMARK  3 active torsions:
REMARK  status: ('A' for Active; 'I' for Inactive)
REMARK    1  A    between atoms: C_4  and  C_5
REMARK    2  A    between atoms: C_5  and  N_6
REMARK    3  A    between atoms: C_10  and  C_11
REMARK                            x       y       z     vdW  Elec       q    Type
REMARK                         _______ _______ _______ _____ _____    ______ ____
ROOT
ATOM      1  N   UNL     1       4.228   5.993  19.739  0.00  0.00    +0.000 N 
ATOM      2  C   UNL     1       5.140   5.424  18.930  0.00  0.00    +0.000 A 
ATOM      3  N   UNL     1       6.236   4.783  19.264  0.00  0.00    +0.000 NA
ATOM      4  N   UNL     1       6.852   4.417  18.088  0.00  0.00    +0.000 NA
ATOM      5  C   UNL     1       6.097   4.870  17.104  0.00  0.00    +0.000 A 
ATOM      6  O   UNL     1       4.974   5.513  17.576  0.00  0.00    +0.000 OA
ATOM      7  H   UNL     1       4.329   5.751  20.719  0.00  0.00    +0.000 HD
ENDROOT
BRANCH   5   8
ATOM      8  C   UNL     1       6.421   4.715  15.716  0.00  0.00    +0.000 A 
ATOM      9  C   UNL     1       5.812   3.887  14.782  0.00  0.00    +0.000 A 
ATOM     10  C   UNL     1       6.484   4.070  13.550  0.00  0.00    +0.000 A 
ATOM     11  C   UNL     1       7.466   5.000  13.794  0.00  0.00    +0.000 A 
ATOM     12  O   UNL     1       7.437   5.397  15.092  0.00  0.00    +0.000 OA
ENDBRANCH   5   8
BRANCH   1  13
ATOM     13  C   UNL     1       2.853   6.120  19.305  0.00  0.00    +0.000 C 
BRANCH  13  17
ATOM     14  C   UNL     1       0.794   2.348  19.791  0.00  0.00    +0.000 A 
ATOM     15  C   UNL     1       1.206   3.069  20.910  0.00  0.00    +0.000 A 
ATOM     16  C   UNL     1       1.874   4.286  20.750  0.00  0.00    +0.000 A 
ATOM     17  C   UNL     1       2.141   4.795  19.469  0.00  0.00    +0.000 A 
ATOM     18  C   UNL     1       1.722   4.057  18.352  0.00  0.00    +0.000 A 
ATOM     19  C   UNL     1       1.052   2.842  18.512  0.00  0.00    +0.000 A 
ENDBRANCH  13  17
ENDBRANCH   1  13
TORSDOF 3
ENDMDL
MODEL 2
REMARK VINA RESULT:      -7.8      5.025      7.314
REMARK  Name = 
REMARK  3 active torsions:
REMARK  status: ('A' for Active; 'I' for Inactive)
REMARK    1  A    between atoms: C_4  and  C_5
REMARK    2  A    between atoms: C_5  and  N_6
REMARK    3  A    between atoms: C_10  and  C_11
REMARK                            x       y       z     vdW  Elec       q    Type
REMARK                         _______ _______ _______ _____ _____    ______ ____
ROOT
ATOM      1  N   UNL     1       8.603   8.200  18.824  0.00  0.00    +0.000 N 
ATOM      2  C   UNL     1       8.019   7.093  18.332  0.00  0.00    +0.000 A 
ATOM      3  N   UNL     1       7.653   6.011  18.979  0.00  0.00    +0.000 NA
ATOM      4  N   UNL     1       7.135   5.147  18.040  0.00  0.00    +0.000 NA
ATOM      5  C   UNL     1       7.229   5.752  16.870  0.00  0.00    +0.000 A 
ATOM      6  O   UNL     1       7.775   7.012  16.990  0.00  0.00    +0.000 OA
ATOM      7  H   UNL     1       8.605   8.257  19.837  0.00  0.00    +0.000 HD
ENDROOT
BRANCH   5   8
ATOM      8  C   UNL     1       6.820   5.158  15.631  0.00  0.00    +0.000 A 
ATOM      9  C   UNL     1       5.658   4.445  15.366  0.00  0.00    +0.000 A 
ATOM     10  C   UNL     1       5.704   4.050  14.008  0.00  0.00    +0.000 A 
ATOM     11  C   UNL     1       6.887   4.543  13.514  0.00  0.00    +0.000 A 
ATOM     12  O   UNL     1       7.566   5.213  14.479  0.00  0.00    +0.000 OA
ENDBRANCH   5   8
BRANCH   1  13
ATOM     13  C   UNL     1       8.408   9.476  18.167  0.00  0.00    +0.000 C 
BRANCH  13  17
ATOM     14  C   UNL     1      11.220  12.348  19.762  0.00  0.00    +0.000 A 
ATOM     15  C   UNL     1      10.337  11.686  20.613  0.00  0.00    +0.000 A 
ATOM     16  C   UNL     1       9.427  10.762  20.095  0.00  0.00    +0.000 A 
ATOM     17  C   UNL     1       9.388  10.489  18.719  0.00  0.00    +0.000 A 
ATOM     18  C   UNL     1      10.281  11.164  17.873  0.00  0.00    +0.000 A 
ATOM     19  C   UNL     1      11.192  12.087  18.393  0.00  0.00    +0.000 A 
ENDBRANCH  13  17
ENDBRANCH   1  13
TORSDOF 3
ENDMDL
MODEL 3
REMARK VINA RESULT:      -7.8      0.203      1.154
REMARK  Name = 
REMARK  3 active torsions:
REMARK  status: ('A' for Active; 'I' for Inactive)
REMARK    1  A    between atoms: C_4  and  C_5
REMARK    2  A    between atoms: C_5  and  N_6
REMARK    3  A    between atoms: C_10  and  C_11
REMARK                            x       y       z     vdW  Elec       q    Type
REMARK                         _______ _______ _______ _____ _____    ______ ____
ROOT
ATOM      1  N   UNL     1       4.404   6.018  19.651  0.00  0.00    +0.000 N 
ATOM      2  C   UNL     1       5.280   5.414  18.827  0.00  0.00    +0.000 A 
ATOM      3  N   UNL     1       6.336   4.701  19.145  0.00  0.00    +0.000 NA
ATOM      4  N   UNL     1       6.929   4.327  17.960  0.00  0.00    +0.000 NA
ATOM      5  C   UNL     1       6.204   4.849  16.987  0.00  0.00    +0.000 A 
ATOM      6  O   UNL     1       5.121   5.547  17.477  0.00  0.00    +0.000 OA
ATOM      7  H   UNL     1       4.489   5.745  20.624  0.00  0.00    +0.000 HD
ENDROOT
BRANCH   5   8
ATOM      8  C   UNL     1       6.519   4.708  15.596  0.00  0.00    +0.000 A 
ATOM      9  C   UNL     1       5.900   3.896  14.656  0.00  0.00    +0.000 A 
ATOM     10  C   UNL     1       6.566   4.089  13.423  0.00  0.00    +0.000 A 
ATOM     11  C   UNL     1       7.554   5.011  13.672  0.00  0.00    +0.000 A 
ATOM     12  O   UNL     1       7.535   5.392  14.974  0.00  0.00    +0.000 OA
ENDBRANCH   5   8
BRANCH   1  13
ATOM     13  C   UNL     1       3.039   6.238  19.221  0.00  0.00    +0.000 C 
BRANCH  13  17
ATOM     14  C   UNL     1       0.792   2.565  19.629  0.00  0.00    +0.000 A 
ATOM     15  C   UNL     1       1.156   3.026  18.366  0.00  0.00    +0.000 A 
ATOM     16  C   UNL     1       1.878   4.215  18.236  0.00  0.00    +0.000 A 
ATOM     17  C   UNL     1       2.244   4.958  19.369  0.00  0.00    +0.000 A 
ATOM     18  C   UNL     1       1.870   4.483  20.635  0.00  0.00    +0.000 A 
ATOM     19  C   UNL     1       1.149   3.293  20.764  0.00  0.00    +0.000 A 
ENDBRANCH  13  17
ENDBRANCH   1  13
TORSDOF 3
ENDMDL
MODEL 4
REMARK VINA RESULT:      -7.8      0.969      1.590
REMARK  Name = 
REMARK  3 active torsions:
REMARK  status: ('A' for Active; 'I' for Inactive)
REMARK    1  A    between atoms: C_4  and  C_5
REMARK    2  A    between atoms: C_5  and  N_6
REMARK    3  A    between atoms: C_10  and  C_11
REMARK                            x       y       z     vdW  Elec       q    Type
REMARK                         _______ _______ _______ _____ _____    ______ ____
ROOT
ATOM      1  N   UNL     1       4.503   5.802  18.495  0.00  0.00    +0.000 N 
ATOM      2  C   UNL     1       5.494   5.383  17.688  0.00  0.00    +0.000 A 
ATOM      3  N   UNL     1       6.702   4.989  18.021  0.00  0.00    +0.000 NA
ATOM      4  N   UNL     1       7.357   4.692  16.847  0.00  0.00    +0.000 NA
ATOM      5  C   UNL     1       6.510   4.936  15.864  0.00  0.00    +0.000 A 
ATOM      6  O   UNL     1       5.290   5.368  16.337  0.00  0.00    +0.000 OA
ATOM      7  H   UNL     1       4.668   5.634  19.482  0.00  0.00    +0.000 HD
ENDROOT
BRANCH   5   8
ATOM      8  C   UNL     1       6.832   4.777  14.476  0.00  0.00    +0.000 A 
ATOM      9  C   UNL     1       6.256   3.911  13.557  0.00  0.00    +0.000 A 
ATOM     10  C   UNL     1       6.913   4.107  12.319  0.00  0.00    +0.000 A 
ATOM     11  C   UNL     1       7.853   5.083  12.545  0.00  0.00    +0.000 A 
ATOM     12  O   UNL     1       7.814   5.496  13.837  0.00  0.00    +0.000 OA
ENDBRANCH   5   8
BRANCH   1  13
ATOM     13  C   UNL     1       3.122   5.632  18.094  0.00  0.00    +0.000 C 
BRANCH  13  17
ATOM     14  C   UNL     1       1.130   2.948  20.839  0.00  0.00    +0.000 A 
ATOM     15  C   UNL     1       0.840   2.898  19.477  0.00  0.00    +0.000 A 
ATOM     16  C   UNL     1       1.482   3.769  18.592  0.00  0.00    +0.000 A 
ATOM     17  C   UNL     1       2.420   4.702  19.061  0.00  0.00    +0.000 A 
ATOM     18  C   UNL     1       2.701   4.742  20.434  0.00  0.00    +0.000 A 
ATOM     19  C   UNL     1       2.060   3.870  21.317  0.00  0.00    +0.000 A 
ENDBRANCH  13  17
ENDBRANCH   1  13
TORSDOF 3
ENDMDL
MODEL 5
REMARK VINA RESULT:      -7.7      4.941      7.292
REMARK  Name = 
REMARK  3 active torsions:
REMARK  status: ('A' for Active; 'I' for Inactive)
REMARK    1  A    between atoms: C_4  and  C_5
REMARK    2  A    between atoms: C_5  and  N_6
REMARK    3  A    between atoms: C_10  and  C_11
REMARK                            x       y       z     vdW  Elec       q    Type
REMARK                         _______ _______ _______ _____ _____    ______ ____
ROOT
ATOM      1  N   UNL     1       8.544   8.114  18.790  0.00  0.00    +0.000 N 
ATOM      2  C   UNL     1       7.962   7.007  18.295  0.00  0.00    +0.000 A 
ATOM      3  N   UNL     1       7.569   5.935  18.944  0.00  0.00    +0.000 NA
ATOM      4  N   UNL     1       7.067   5.066  18.002  0.00  0.00    +0.000 NA
ATOM      5  C   UNL     1       7.197   5.657  16.828  0.00  0.00    +0.000 A 
ATOM      6  O   UNL     1       7.751   6.913  16.948  0.00  0.00    +0.000 OA
ATOM      7  H   UNL     1       8.521   8.182  19.802  0.00  0.00    +0.000 HD
ENDROOT
BRANCH   5   8
ATOM      8  C   UNL     1       6.814   5.054  15.585  0.00  0.00    +0.000 A 
ATOM      9  C   UNL     1       5.797   4.136  15.356  0.00  0.00    +0.000 A 
ATOM     10  C   UNL     1       5.810   3.824  13.977  0.00  0.00    +0.000 A 
ATOM     11  C   UNL     1       6.831   4.566  13.434  0.00  0.00    +0.000 A 
ATOM     12  O   UNL     1       7.441   5.312  14.390  0.00  0.00    +0.000 OA
ENDBRANCH   5   8
BRANCH   1  13
ATOM     13  C   UNL     1       8.378   9.384  18.114  0.00  0.00    +0.000 C 
BRANCH  13  17
ATOM     14  C   UNL     1      10.950  12.369  19.898  0.00  0.00    +0.000 A 
ATOM     15  C   UNL     1      10.918  12.210  18.514  0.00  0.00    +0.000 A 
ATOM     16  C   UNL     1      10.090  11.242  17.940  0.00  0.00    +0.000 A 
ATOM     17  C   UNL     1       9.284  10.420  18.744  0.00  0.00    +0.000 A 
ATOM     18  C   UNL     1       9.327  10.590  20.136  0.00  0.00    +0.000 A 
ATOM     19  C   UNL     1      10.154  11.560  20.709  0.00  0.00    +0.000 A 
ENDBRANCH  13  17
ENDBRANCH   1  13
TORSDOF 3
ENDMDL
MODEL 6
REMARK VINA RESULT:      -7.7      1.395      1.940
REMARK  Name = 
REMARK  3 active torsions:
REMARK  status: ('A' for Active; 'I' for Inactive)
REMARK    1  A    between atoms: C_4  and  C_5
REMARK    2  A    between atoms: C_5  and  N_6
REMARK    3  A    between atoms: C_10  and  C_11
REMARK                            x       y       z     vdW  Elec       q    Type
REMARK                         _______ _______ _______ _____ _____    ______ ____
ROOT
ATOM      1  N   UNL     1       5.481   5.091  18.967  0.00  0.00    +0.000 N 
ATOM      2  C   UNL     1       6.160   5.356  17.836  0.00  0.00    +0.000 A 
ATOM      3  N   UNL     1       7.071   6.280  17.633  0.00  0.00    +0.000 NA
ATOM      4  N   UNL     1       7.445   6.178  16.311  0.00  0.00    +0.000 NA
ATOM      5  C   UNL     1       6.727   5.204  15.784  0.00  0.00    +0.000 A 
ATOM      6  O   UNL     1       5.892   4.624  16.714  0.00  0.00    +0.000 OA
ATOM      7  H   UNL     1       5.843   5.560  19.792  0.00  0.00    +0.000 HD
ENDROOT
BRANCH   5   8
ATOM      8  C   UNL     1       6.806   4.811  14.407  0.00  0.00    +0.000 A 
ATOM      9  C   UNL     1       6.072   3.831  13.753  0.00  0.00    +0.000 A 
ATOM     10  C   UNL     1       6.510   3.799  12.408  0.00  0.00    +0.000 A 
ATOM     11  C   UNL     1       7.485   4.762  12.309  0.00  0.00    +0.000 A 
ATOM     12  O   UNL     1       7.671   5.379  13.504  0.00  0.00    +0.000 OA
ENDBRANCH   5   8
BRANCH   1  13
ATOM     13  C   UNL     1       4.991   3.753  19.222  0.00  0.00    +0.000 C 
BRANCH  13  17
ATOM     14  C   UNL     1       0.834   3.897  20.409  0.00  0.00    +0.000 A 
ATOM     15  C   UNL     1       1.385   2.709  19.932  0.00  0.00    +0.000 A 
ATOM     16  C   UNL     1       2.727   2.666  19.545  0.00  0.00    +0.000 A 
ATOM     17  C   UNL     1       3.534   3.812  19.629  0.00  0.00    +0.000 A 
ATOM     18  C   UNL     1       2.966   5.001  20.110  0.00  0.00    +0.000 A 
ATOM     19  C   UNL     1       1.625   5.042  20.498  0.00  0.00    +0.000 A 
ENDBRANCH  13  17
ENDBRANCH   1  13
TORSDOF 3
ENDMDL
MODEL 7
REMARK VINA RESULT:      -7.7      1.135      1.291
REMARK  Name = 
REMARK  3 active torsions:
REMARK  status: ('A' for Active; 'I' for Inactive)
REMARK    1  A    between atoms: C_4  and  C_5
REMARK    2  A    between atoms: C_5  and  N_6
REMARK    3  A    between atoms: C_10  and  C_11
REMARK                            x       y       z     vdW  Elec       q    Type
REMARK                         _______ _______ _______ _____ _____    ______ ____
ROOT
ATOM      1  N   UNL     1       5.304   5.627  18.996  0.00  0.00    +0.000 N 
ATOM      2  C   UNL     1       6.130   5.151  18.046  0.00  0.00    +0.000 A 
ATOM      3  N   UNL     1       7.270   4.519  18.203  0.00  0.00    +0.000 NA
ATOM      4  N   UNL     1       7.757   4.266  16.940  0.00  0.00    +0.000 NA
ATOM      5  C   UNL     1       6.887   4.774  16.086  0.00  0.00    +0.000 A 
ATOM      6  O   UNL     1       5.811   5.344  16.732  0.00  0.00    +0.000 OA
ATOM      7  H   UNL     1       5.520   5.310  19.935  0.00  0.00    +0.000 HD
ENDROOT
BRANCH   5   8
ATOM      8  C   UNL     1       7.055   4.740  14.663  0.00  0.00    +0.000 A 
ATOM      9  C   UNL     1       6.399   3.935  13.742  0.00  0.00    +0.000 A 
ATOM     10  C   UNL     1       6.907   4.253  12.461  0.00  0.00    +0.000 A 
ATOM     11  C   UNL     1       7.845   5.236  12.664  0.00  0.00    +0.000 A 
ATOM     12  O   UNL     1       7.942   5.540  13.983  0.00  0.00    +0.000 OA
ENDBRANCH   5   8
BRANCH   1  13
ATOM     13  C   UNL     1       3.886   5.747  18.729  0.00  0.00    +0.000 C 
BRANCH  13  17
ATOM     14  C   UNL     1       1.734   2.517  20.638  0.00  0.00    +0.000 A 
ATOM     15  C   UNL     1       1.759   3.783  21.221  0.00  0.00    +0.000 A 
ATOM     16  C   UNL     1       2.458   4.823  20.605  0.00  0.00    +0.000 A 
ATOM     17  C   UNL     1       3.143   4.611  19.398  0.00  0.00    +0.000 A 
ATOM     18  C   UNL     1       3.110   3.332  18.822  0.00  0.00    +0.000 A 
ATOM     19  C   UNL     1       2.409   2.292  19.439  0.00  0.00    +0.000 A 
ENDBRANCH  13  17
ENDBRANCH   1  13
TORSDOF 3
ENDMDL
MODEL 8
REMARK VINA RESULT:      -7.7      1.411      1.863
REMARK  Name = 
REMARK  3 active torsions:
REMARK  status: ('A' for Active; 'I' for Inactive)
REMARK    1  A    between atoms: C_4  and  C_5
REMARK    2  A    between atoms: C_5  and  N_6
REMARK    3  A    between atoms: C_10  and  C_11
REMARK                            x       y       z     vdW  Elec       q    Type
REMARK                         _______ _______ _______ _____ _____    ______ ____
ROOT
ATOM      1  N   UNL     1       5.507   5.145  18.982  0.00  0.00    +0.000 N 
ATOM      2  C   UNL     1       6.184   5.404  17.848  0.00  0.00    +0.000 A 
ATOM      3  N   UNL     1       7.089   6.331  17.636  0.00  0.00    +0.000 NA
ATOM      4  N   UNL     1       7.464   6.219  16.315  0.00  0.00    +0.000 NA
ATOM      5  C   UNL     1       6.751   5.236  15.797  0.00  0.00    +0.000 A 
ATOM      6  O   UNL     1       5.920   4.660  16.733  0.00  0.00    +0.000 OA
ATOM      7  H   UNL     1       5.866   5.623  19.802  0.00  0.00    +0.000 HD
ENDROOT
BRANCH   5   8
ATOM      8  C   UNL     1       6.833   4.831  14.424  0.00  0.00    +0.000 A 
ATOM      9  C   UNL     1       6.143   3.805  13.792  0.00  0.00    +0.000 A 
ATOM     10  C   UNL     1       6.563   3.780  12.441  0.00  0.00    +0.000 A 
ATOM     11  C   UNL     1       7.485   4.792  12.318  0.00  0.00    +0.000 A 
ATOM     12  O   UNL     1       7.654   5.432  13.502  0.00  0.00    +0.000 OA
ENDBRANCH   5   8
BRANCH   1  13
ATOM     13  C   UNL     1       5.025   3.806  19.249  0.00  0.00    +0.000 C 
BRANCH  13  17
ATOM     14  C   UNL     1       0.886   3.989  20.491  0.00  0.00    +0.000 A 
ATOM     15  C   UNL     1       1.657   5.150  20.450  0.00  0.00    +0.000 A 
ATOM     16  C   UNL     1       2.995   5.088  20.053  0.00  0.00    +0.000 A 
ATOM     17  C   UNL     1       3.579   3.863  19.692  0.00  0.00    +0.000 A 
ATOM     18  C   UNL     1       2.792   2.702  19.739  0.00  0.00    +0.000 A 
ATOM     19  C   UNL     1       1.454   2.766  20.135  0.00  0.00    +0.000 A 
ENDBRANCH  13  17
ENDBRANCH   1  13
TORSDOF 3
ENDMDL
MODEL 9
REMARK VINA RESULT:      -7.6      1.975      2.780
REMARK  Name = 
REMARK  3 active torsions:
REMARK  status: ('A' for Active; 'I' for Inactive)
REMARK    1  A    between atoms: C_4  and  C_5
REMARK    2  A    between atoms: C_5  and  N_6
REMARK    3  A    between atoms: C_10  and  C_11
REMARK                            x       y       z     vdW  Elec       q    Type
REMARK                         _______ _______ _______ _____ _____    ______ ____
ROOT
ATOM      1  N   UNL     1       5.233   5.231  19.216  0.00  0.00    +0.000 N 
ATOM      2  C   UNL     1       6.108   4.936  18.239  0.00  0.00    +0.000 A 
ATOM      3  N   UNL     1       7.375   4.609  18.354  0.00  0.00    +0.000 NA
ATOM      4  N   UNL     1       7.854   4.434  17.075  0.00  0.00    +0.000 NA
ATOM      5  C   UNL     1       6.849   4.679  16.253  0.00  0.00    +0.000 A 
ATOM      6  O   UNL     1       5.695   4.993  16.938  0.00  0.00    +0.000 OA
ATOM      7  H   UNL     1       5.560   5.014  20.152  0.00  0.00    +0.000 HD
ENDROOT
BRANCH   5   8
ATOM      8  C   UNL     1       6.959   4.632  14.825  0.00  0.00    +0.000 A 
ATOM      9  C   UNL     1       6.244   3.839  13.937  0.00  0.00    +0.000 A 
ATOM     10  C   UNL     1       6.708   4.135  12.634  0.00  0.00    +0.000 A 
ATOM     11  C   UNL     1       7.681   5.093  12.792  0.00  0.00    +0.000 A 
ATOM     12  O   UNL     1       7.839   5.402  14.104  0.00  0.00    +0.000 OA
ENDBRANCH   5   8
BRANCH   1  13
ATOM     13  C   UNL     1       3.819   4.990  19.020  0.00  0.00    +0.000 C 
BRANCH  13  17
ATOM     14  C   UNL     1       1.704   8.763  19.000  0.00  0.00    +0.000 A 
ATOM     15  C   UNL     1       1.658   7.940  20.125  0.00  0.00    +0.000 A 
ATOM     16  C   UNL     1       2.338   6.720  20.127  0.00  0.00    +0.000 A 
ATOM     17  C   UNL     1       3.072   6.306  19.004  0.00  0.00    +0.000 A 
ATOM     18  C   UNL     1       3.109   7.143  17.879  0.00  0.00    +0.000 A 
ATOM     19  C   UNL     1       2.430   8.364  17.878  0.00  0.00    +0.000 A 
ENDBRANCH  13  17
ENDBRANCH   1  13
TORSDOF 3
ENDMDL
