MODEL 1
REMARK VINA RESULT:      -7.7      0.000      0.000
REMARK  Name = 
REMARK  4 active torsions:
REMARK  status: ('A' for Active; 'I' for Inactive)
REMARK    1  A    between atoms: C_4  and  C_5
REMARK    2  A    between atoms: C_10  and  C_11
REMARK    3  A    between atoms: C_11  and  C_12
REMARK    4  A    between atoms: C_12  and  C_13
REMARK                            x       y       z     vdW  Elec       q    Type
REMARK                         _______ _______ _______ _____ _____    ______ ____
ROOT
ATOM      1  C   UNL     1       3.516   4.889  17.768  0.00  0.00    +0.000 A 
ATOM      2  C   UNL     1       4.288   4.063  16.902  0.00  0.00    +0.000 A 
ATOM      3  C   UNL     1       5.217   4.564  15.990  0.00  0.00    +0.000 A 
ATOM      4  C   UNL     1       5.384   5.927  15.876  0.00  0.00    +0.000 A 
ATOM      5  C   UNL     1       4.613   6.776  16.663  0.00  0.00    +0.000 A 
ATOM      6  C   UNL     1       3.672   6.301  17.614  0.00  0.00    +0.000 A 
ENDROOT
BRANCH   1  10
ATOM      7  C   UNL     1       1.091   2.975  20.835  0.00  0.00    +0.000 A 
ATOM      8  C   UNL     1       2.247   3.663  21.172  0.00  0.00    +0.000 A 
ATOM      9  C   UNL     1       3.009   4.276  20.169  0.00  0.00    +0.000 A 
ATOM     10  C   UNL     1       2.669   4.198  18.798  0.00  0.00    +0.000 A 
ATOM     11  C   UNL     1       1.531   3.435  18.496  0.00  0.00    +0.000 A 
ATOM     12  C   UNL     1       0.734   2.859  19.497  0.00  0.00    +0.000 A 
ENDBRANCH   1  10
BRANCH   6  13
ATOM     13  C   UNL     1       2.875   7.336  18.423  0.00  0.00    +0.000 C 
BRANCH  13  14
ATOM     14  C   UNL     1       2.202   8.440  17.596  0.00  0.00    +0.000 C 
BRANCH  14  15
ATOM     15  C   UNL     1       1.701   9.647  18.347  0.00  0.00    +0.000 C 
ATOM     16  N   UNL     1       0.989   9.578  19.438  0.00  0.00    +0.000 NA
ATOM     17  C   UNL     1       0.635  11.015  19.710  0.00  0.00    +0.000 C 
ATOM     18  C   UNL     1       1.558  11.864  18.831  0.00  0.00    +0.000 C 
ATOM     19  N   UNL     1       1.931  10.898  17.830  0.00  0.00    +0.000 N 
ATOM     20  H   UNL     1       2.778  11.054  17.296  0.00  0.00    +0.000 HD
ENDBRANCH  14  15
ENDBRANCH  13  14
ENDBRANCH   6  13
TORSDOF 4
ENDMDL
MODEL 2
REMARK VINA RESULT:      -7.6      0.534      1.221
REMARK  Name = 
REMARK  4 active torsions:
REMARK  status: ('A' for Active; 'I' for Inactive)
REMARK    1  A    between atoms: C_4  and  C_5
REMARK    2  A    between atoms: C_10  and  C_11
REMARK    3  A    between atoms: C_11  and  C_12
REMARK    4  A    between atoms: C_12  and  C_13
REMARK                            x       y       z     vdW  Elec       q    Type
REMARK                         _______ _______ _______ _____ _____    ______ ____
ROOT
ATOM      1  C   UNL     1       3.551   4.884  17.748  0.00  0.00    +0.000 A 
ATOM      2  C   UNL     1       4.170   3.965  16.853  0.00  0.00    +0.000 A 
ATOM      3  C   UNL     1       5.091   4.348  15.877  0.00  0.00    +0.000 A 
ATOM      4  C   UNL     1       5.402   5.682  15.727  0.00  0.00    +0.000 A 
ATOM      5  C   UNL     1       4.781   6.622  16.542  0.00  0.00    +0.000 A 
ATOM      6  C   UNL     1       3.854   6.267  17.558  0.00  0.00    +0.000 A 
ENDROOT
BRANCH   1  10
ATOM      7  C   UNL     1       1.052   3.108  20.838  0.00  0.00    +0.000 A 
ATOM      8  C   UNL     1       0.735   2.957  19.496  0.00  0.00    +0.000 A 
ATOM      9  C   UNL     1       1.556   3.533  18.519  0.00  0.00    +0.000 A 
ATOM     10  C   UNL     1       2.698   4.305  18.840  0.00  0.00    +0.000 A 
ATOM     11  C   UNL     1       2.943   4.488  20.209  0.00  0.00    +0.000 A 
ATOM     12  C   UNL     1       2.153   3.875  21.194  0.00  0.00    +0.000 A 
ENDBRANCH   1  10
BRANCH   6  13
ATOM     13  C   UNL     1       3.229   7.396  18.392  0.00  0.00    +0.000 C 
BRANCH  13  14
ATOM     14  C   UNL     1       2.192   8.259  17.661  0.00  0.00    +0.000 C 
BRANCH  14  15
ATOM     15  C   UNL     1       1.414   9.245  18.494  0.00  0.00    +0.000 C 
ATOM     16  N   UNL     1       1.188   9.097  19.770  0.00  0.00    +0.000 NA
ATOM     17  C   UNL     1       0.276  10.248  20.095  0.00  0.00    +0.000 C 
ATOM     18  C   UNL     1       0.356  11.214  18.909  0.00  0.00    +0.000 C 
ATOM     19  N   UNL     1       0.837  10.330  17.880  0.00  0.00    +0.000 N 
ATOM     20  H   UNL     1       1.296  10.729  17.071  0.00  0.00    +0.000 HD
ENDBRANCH  14  15
ENDBRANCH  13  14
ENDBRANCH   6  13
TORSDOF 4
ENDMDL
MODEL 3
REMARK VINA RESULT:      -7.6      2.916      5.268
REMARK  Name = 
REMARK  4 active torsions:
REMARK  status: ('A' for Active; 'I' for Inactive)
REMARK    1  A    between atoms: C_4  and  C_5
REMARK    2  A    between atoms: C_10  and  C_11
REMARK    3  A    between atoms: C_11  and  C_12
REMARK    4  A    between atoms: C_12  and  C_13
REMARK                            x       y       z     vdW  Elec       q    Type
REMARK                         _______ _______ _______ _____ _____    ______ ____
ROOT
ATOM      1  C   UNL     1       4.635   5.721  17.429  0.00  0.00    +0.000 A 
ATOM      2  C   UNL     1       5.918   6.314  17.247  0.00  0.00    +0.000 A 
ATOM      3  C   UNL     1       6.932   5.729  16.488  0.00  0.00    +0.000 A 
ATOM      4  C   UNL     1       6.718   4.497  15.909  0.00  0.00    +0.000 A 
ATOM      5  C   UNL     1       5.499   3.855  16.105  0.00  0.00    +0.000 A 
ATOM      6  C   UNL     1       4.439   4.428  16.855  0.00  0.00    +0.000 A 
ENDROOT
BRANCH   1  10
ATOM      7  C   UNL     1       1.685   8.058  19.617  0.00  0.00    +0.000 A 
ATOM      8  C   UNL     1       2.173   6.867  20.135  0.00  0.00    +0.000 A 
ATOM      9  C   UNL     1       3.125   6.134  19.416  0.00  0.00    +0.000 A 
ATOM     10  C   UNL     1       3.600   6.540  18.146  0.00  0.00    +0.000 A 
ATOM     11  C   UNL     1       3.030   7.713  17.631  0.00  0.00    +0.000 A 
ATOM     12  C   UNL     1       2.112   8.479  18.365  0.00  0.00    +0.000 A 
ENDBRANCH   1  10
BRANCH   6  13
ATOM     13  C   UNL     1       3.141   3.620  17.005  0.00  0.00    +0.000 C 
BRANCH  13  14
ATOM     14  C   UNL     1       3.224   2.409  17.944  0.00  0.00    +0.000 C 
BRANCH  14  15
ATOM     15  C   UNL     1       2.725   2.601  19.353  0.00  0.00    +0.000 C 
ATOM     16  N   UNL     1       3.495   2.574  20.405  0.00  0.00    +0.000 NA
ATOM     17  C   UNL     1       2.523   2.674  21.548  0.00  0.00    +0.000 C 
ATOM     18  C   UNL     1       1.188   3.124  20.945  0.00  0.00    +0.000 C 
ATOM     19  N   UNL     1       1.376   2.736  19.571  0.00  0.00    +0.000 N 
ATOM     20  H   UNL     1       0.812   3.184  18.858  0.00  0.00    +0.000 HD
ENDBRANCH  14  15
ENDBRANCH  13  14
ENDBRANCH   6  13
TORSDOF 4
ENDMDL
MODEL 4
REMARK VINA RESULT:      -7.5      1.819      3.903
REMARK  Name = 
REMARK  4 active torsions:
REMARK  status: ('A' for Active; 'I' for Inactive)
REMARK    1  A    between atoms: C_4  and  C_5
REMARK    2  A    between atoms: C_10  and  C_11
REMARK    3  A    between atoms: C_11  and  C_12
REMARK    4  A    between atoms: C_12  and  C_13
REMARK                            x       y       z     vdW  Elec       q    Type
REMARK                         _______ _______ _______ _____ _____    ______ ____
ROOT
ATOM      1  C   UNL     1       4.091   5.111  18.031  0.00  0.00    +0.000 A 
ATOM      2  C   UNL     1       4.017   3.747  17.626  0.00  0.00    +0.000 A 
ATOM      3  C   UNL     1       2.815   3.092  17.357  0.00  0.00    +0.000 A 
ATOM      4  C   UNL     1       1.625   3.767  17.524  0.00  0.00    +0.000 A 
ATOM      5  C   UNL     1       1.646   5.084  17.970  0.00  0.00    +0.000 A 
ATOM      6  C   UNL     1       2.850   5.788  18.236  0.00  0.00    +0.000 A 
ENDROOT
BRANCH   1  10
ATOM      7  C   UNL     1       8.014   6.979  18.298  0.00  0.00    +0.000 A 
ATOM      8  C   UNL     1       7.119   7.347  17.305  0.00  0.00    +0.000 A 
ATOM      9  C   UNL     1       5.861   6.737  17.241  0.00  0.00    +0.000 A 
ATOM     10  C   UNL     1       5.461   5.718  18.138  0.00  0.00    +0.000 A 
ATOM     11  C   UNL     1       6.422   5.329  19.083  0.00  0.00    +0.000 A 
ATOM     12  C   UNL     1       7.666   5.969  19.186  0.00  0.00    +0.000 A 
ENDBRANCH   1  10
BRANCH   6  13
ATOM     13  C   UNL     1       2.746   7.239  18.729  0.00  0.00    +0.000 C 
BRANCH  13  14
ATOM     14  C   UNL     1       2.045   8.211  17.772  0.00  0.00    +0.000 C 
BRANCH  14  15
ATOM     15  C   UNL     1       1.600   9.533  18.344  0.00  0.00    +0.000 C 
ATOM     16  N   UNL     1       0.720   9.650  19.299  0.00  0.00    +0.000 NA
ATOM     17  C   UNL     1       0.527  11.138  19.410  0.00  0.00    +0.000 C 
ATOM     18  C   UNL     1       1.688  11.784  18.648  0.00  0.00    +0.000 C 
ATOM     19  N   UNL     1       2.080  10.695  17.792  0.00  0.00    +0.000 N 
ATOM     20  H   UNL     1       3.015  10.696  17.401  0.00  0.00    +0.000 HD
ENDBRANCH  14  15
ENDBRANCH  13  14
ENDBRANCH   6  13
TORSDOF 4
ENDMDL
MODEL 5
REMARK VINA RESULT:      -7.5      2.890      5.300
REMARK  Name = 
REMARK  4 active torsions:
REMARK  status: ('A' for Active; 'I' for Inactive)
REMARK    1  A    between atoms: C_4  and  C_5
REMARK    2  A    between atoms: C_10  and  C_11
REMARK    3  A    between atoms: C_11  and  C_12
REMARK    4  A    between atoms: C_12  and  C_13
REMARK                            x       y       z     vdW  Elec       q    Type
REMARK                         _______ _______ _______ _____ _____    ______ ____
ROOT
ATOM      1  C   UNL     1       4.706   5.665  17.328  0.00  0.00    +0.000 A 
ATOM      2  C   UNL     1       5.972   6.270  17.081  0.00  0.00    +0.000 A 
ATOM      3  C   UNL     1       6.955   5.690  16.279  0.00  0.00    +0.000 A 
ATOM      4  C   UNL     1       6.727   4.451  15.720  0.00  0.00    +0.000 A 
ATOM      5  C   UNL     1       5.526   3.798  15.978  0.00  0.00    +0.000 A 
ATOM      6  C   UNL     1       4.497   4.366  16.774  0.00  0.00    +0.000 A 
ENDROOT
BRANCH   1  10
ATOM      7  C   UNL     1       1.733   8.060  19.420  0.00  0.00    +0.000 A 
ATOM      8  C   UNL     1       2.241   8.470  18.197  0.00  0.00    +0.000 A 
ATOM      9  C   UNL     1       3.193   7.682  17.539  0.00  0.00    +0.000 A 
ATOM     10  C   UNL     1       3.698   6.479  18.088  0.00  0.00    +0.000 A 
ATOM     11  C   UNL     1       3.207   6.137  19.357  0.00  0.00    +0.000 A 
ATOM     12  C   UNL     1       2.217   6.895  20.001  0.00  0.00    +0.000 A 
ENDBRANCH   1  10
BRANCH   6  13
ATOM     13  C   UNL     1       3.216   3.546  16.992  0.00  0.00    +0.000 C 
BRANCH  13  14
ATOM     14  C   UNL     1       3.337   2.392  17.996  0.00  0.00    +0.000 C 
BRANCH  14  15
ATOM     15  C   UNL     1       2.764   2.620  19.371  0.00  0.00    +0.000 C 
ATOM     16  N   UNL     1       3.465   2.554  20.469  0.00  0.00    +0.000 NA
ATOM     17  C   UNL     1       2.431   2.717  21.549  0.00  0.00    +0.000 C 
ATOM     18  C   UNL     1       1.166   3.240  20.865  0.00  0.00    +0.000 C 
ATOM     19  N   UNL     1       1.414   2.835  19.506  0.00  0.00    +0.000 N 
ATOM     20  H   UNL     1       0.922   3.311  18.758  0.00  0.00    +0.000 HD
ENDBRANCH  14  15
ENDBRANCH  13  14
ENDBRANCH   6  13
TORSDOF 4
ENDMDL
MODEL 6
REMARK VINA RESULT:      -7.5      1.335      4.025
REMARK  Name = 
REMARK  4 active torsions:
REMARK  status: ('A' for Active; 'I' for Inactive)
REMARK    1  A    between atoms: C_4  and  C_5
REMARK    2  A    between atoms: C_10  and  C_11
REMARK    3  A    between atoms: C_11  and  C_12
REMARK    4  A    between atoms: C_12  and  C_13
REMARK                            x       y       z     vdW  Elec       q    Type
REMARK                         _______ _______ _______ _____ _____    ______ ____
ROOT
ATOM      1  C   UNL     1       3.371   3.805  18.618  0.00  0.00    +0.000 A 
ATOM      2  C   UNL     1       2.915   2.456  18.642  0.00  0.00    +0.000 A 
ATOM      3  C   UNL     1       1.712   2.063  19.229  0.00  0.00    +0.000 A 
ATOM      4  C   UNL     1       0.928   3.006  19.858  0.00  0.00    +0.000 A 
ATOM      5  C   UNL     1       1.359   4.327  19.907  0.00  0.00    +0.000 A 
ATOM      6  C   UNL     1       2.568   4.765  19.305  0.00  0.00    +0.000 A 
ENDROOT
BRANCH   1  10
ATOM      7  C   UNL     1       7.032   4.596  16.399  0.00  0.00    +0.000 A 
ATOM      8  C   UNL     1       7.001   4.712  17.780  0.00  0.00    +0.000 A 
ATOM      9  C   UNL     1       5.814   4.448  18.474  0.00  0.00    +0.000 A 
ATOM     10  C   UNL     1       4.610   4.093  17.819  0.00  0.00    +0.000 A 
ATOM     11  C   UNL     1       4.669   4.054  16.418  0.00  0.00    +0.000 A 
ATOM     12  C   UNL     1       5.866   4.269  15.718  0.00  0.00    +0.000 A 
ENDBRANCH   1  10
BRANCH   6  13
ATOM     13  C   UNL     1       2.941   6.250  19.431  0.00  0.00    +0.000 C 
BRANCH  13  14
ATOM     14  C   UNL     1       2.615   7.117  18.207  0.00  0.00    +0.000 C 
BRANCH  14  15
ATOM     15  C   UNL     1       2.007   8.471  18.471  0.00  0.00    +0.000 C 
ATOM     16  N   UNL     1       2.028   9.454  17.615  0.00  0.00    +0.000 NA
ATOM     17  C   UNL     1       1.430  10.598  18.388  0.00  0.00    +0.000 C 
ATOM     18  C   UNL     1       0.765   9.986  19.624  0.00  0.00    +0.000 C 
ATOM     19  N   UNL     1       1.463   8.730  19.705  0.00  0.00    +0.000 N 
ATOM     20  H   UNL     1       1.034   7.967  20.216  0.00  0.00    +0.000 HD
ENDBRANCH  14  15
ENDBRANCH  13  14
ENDBRANCH   6  13
TORSDOF 4
ENDMDL
MODEL 7
REMARK VINA RESULT:      -7.5      1.323      4.175
REMARK  Name = 
REMARK  4 active torsions:
REMARK  status: ('A' for Active; 'I' for Inactive)
REMARK    1  A    between atoms: C_4  and  C_5
REMARK    2  A    between atoms: C_10  and  C_11
REMARK    3  A    between atoms: C_11  and  C_12
REMARK    4  A    between atoms: C_12  and  C_13
REMARK                            x       y       z     vdW  Elec       q    Type
REMARK                         _______ _______ _______ _____ _____    ______ ____
ROOT
ATOM      1  C   UNL     1       3.409   3.803  18.667  0.00  0.00    +0.000 A 
ATOM      2  C   UNL     1       2.946   2.457  18.713  0.00  0.00    +0.000 A 
ATOM      3  C   UNL     1       1.739   2.080  19.303  0.00  0.00    +0.000 A 
ATOM      4  C   UNL     1       0.957   3.037  19.912  0.00  0.00    +0.000 A 
ATOM      5  C   UNL     1       1.394   4.358  19.939  0.00  0.00    +0.000 A 
ATOM      6  C   UNL     1       2.607   4.779  19.334  0.00  0.00    +0.000 A 
ENDROOT
BRANCH   1  10
ATOM      7  C   UNL     1       6.940   4.624  16.258  0.00  0.00    +0.000 A 
ATOM      8  C   UNL     1       5.753   4.223  15.663  0.00  0.00    +0.000 A 
ATOM      9  C   UNL     1       4.628   3.970  16.457  0.00  0.00    +0.000 A 
ATOM     10  C   UNL     1       4.652   4.071  17.869  0.00  0.00    +0.000 A 
ATOM     11  C   UNL     1       5.890   4.413  18.433  0.00  0.00    +0.000 A 
ATOM     12  C   UNL     1       7.009   4.717  17.642  0.00  0.00    +0.000 A 
ENDBRANCH   1  10
BRANCH   6  13
ATOM     13  C   UNL     1       2.987   6.265  19.434  0.00  0.00    +0.000 C 
BRANCH  13  14
ATOM     14  C   UNL     1       2.639   7.117  18.207  0.00  0.00    +0.000 C 
BRANCH  14  15
ATOM     15  C   UNL     1       2.020   8.467  18.465  0.00  0.00    +0.000 C 
ATOM     16  N   UNL     1       2.036   9.448  17.606  0.00  0.00    +0.000 NA
ATOM     17  C   UNL     1       1.428  10.590  18.375  0.00  0.00    +0.000 C 
ATOM     18  C   UNL     1       0.763   9.976  19.610  0.00  0.00    +0.000 C 
ATOM     19  N   UNL     1       1.471   8.725  19.697  0.00  0.00    +0.000 N 
ATOM     20  H   UNL     1       1.046   7.961  20.208  0.00  0.00    +0.000 HD
ENDBRANCH  14  15
ENDBRANCH  13  14
ENDBRANCH   6  13
TORSDOF 4
ENDMDL
MODEL 8
REMARK VINA RESULT:      -7.5      0.891      1.074
REMARK  Name = 
REMARK  4 active torsions:
REMARK  status: ('A' for Active; 'I' for Inactive)
REMARK    1  A    between atoms: C_4  and  C_5
REMARK    2  A    between atoms: C_10  and  C_11
REMARK    3  A    between atoms: C_11  and  C_12
REMARK    4  A    between atoms: C_12  and  C_13
REMARK                            x       y       z     vdW  Elec       q    Type
REMARK                         _______ _______ _______ _____ _____    ______ ____
ROOT
ATOM      1  C   UNL     1       3.381   5.110  17.892  0.00  0.00    +0.000 A 
ATOM      2  C   UNL     1       4.225   4.364  17.020  0.00  0.00    +0.000 A 
ATOM      3  C   UNL     1       5.124   4.956  16.132  0.00  0.00    +0.000 A 
ATOM      4  C   UNL     1       5.186   6.330  16.049  0.00  0.00    +0.000 A 
ATOM      5  C   UNL     1       4.342   7.099  16.843  0.00  0.00    +0.000 A 
ATOM      6  C   UNL     1       3.429   6.532  17.770  0.00  0.00    +0.000 A 
ENDROOT
BRANCH   1  10
ATOM      7  C   UNL     1       1.077   2.945  20.885  0.00  0.00    +0.000 A 
ATOM      8  C   UNL     1       2.201   3.672  21.245  0.00  0.00    +0.000 A 
ATOM      9  C   UNL     1       2.924   4.365  20.267  0.00  0.00    +0.000 A 
ATOM     10  C   UNL     1       2.577   4.332  18.895  0.00  0.00    +0.000 A 
ATOM     11  C   UNL     1       1.474   3.530  18.566  0.00  0.00    +0.000 A 
ATOM     12  C   UNL     1       0.715   2.872  19.546  0.00  0.00    +0.000 A 
ENDBRANCH   1  10
BRANCH   6  13
ATOM     13  C   UNL     1       2.544   7.485  18.588  0.00  0.00    +0.000 C 
BRANCH  13  14
ATOM     14  C   UNL     1       2.085   8.751  17.854  0.00  0.00    +0.000 C 
BRANCH  14  15
ATOM     15  C   UNL     1       0.930   9.510  18.455  0.00  0.00    +0.000 C 
ATOM     16  N   UNL     1      -0.144   9.840  17.793  0.00  0.00    +0.000 NA
ATOM     17  C   UNL     1      -0.911  10.682  18.776  0.00  0.00    +0.000 C 
ATOM     18  C   UNL     1      -0.271  10.441  20.147  0.00  0.00    +0.000 C 
ATOM     19  N   UNL     1       1.025   9.955  19.751  0.00  0.00    +0.000 N 
ATOM     20  H   UNL     1       1.563   9.408  20.413  0.00  0.00    +0.000 HD
ENDBRANCH  14  15
ENDBRANCH  13  14
ENDBRANCH   6  13
TORSDOF 4
ENDMDL
MODEL 9
REMARK VINA RESULT:      -7.4      1.605      4.236
REMARK  Name = 
REMARK  4 active torsions:
REMARK  status: ('A' for Active; 'I' for Inactive)
REMARK    1  A    between atoms: C_4  and  C_5
REMARK    2  A    between atoms: C_10  and  C_11
REMARK    3  A    between atoms: C_11  and  C_12
REMARK    4  A    between atoms: C_12  and  C_13
REMARK                            x       y       z     vdW  Elec       q    Type
REMARK                         _______ _______ _______ _____ _____    ______ ____
ROOT
ATOM      1  C   UNL     1       3.574   3.958  19.113  0.00  0.00    +0.000 A 
ATOM      2  C   UNL     1       3.709   2.927  20.086  0.00  0.00    +0.000 A 
ATOM      3  C   UNL     1       2.688   2.564  20.965  0.00  0.00    +0.000 A 
ATOM      4  C   UNL     1       1.494   3.251  20.934  0.00  0.00    +0.000 A 
ATOM      5  C   UNL     1       1.336   4.303  20.038  0.00  0.00    +0.000 A 
ATOM      6  C   UNL     1       2.346   4.687  19.117  0.00  0.00    +0.000 A 
ENDROOT
BRANCH   1  10
ATOM      7  C   UNL     1       6.935   4.442  16.389  0.00  0.00    +0.000 A 
ATOM      8  C   UNL     1       7.030   4.848  17.712  0.00  0.00    +0.000 A 
ATOM      9  C   UNL     1       5.939   4.678  18.572  0.00  0.00    +0.000 A 
ATOM     10  C   UNL     1       4.706   4.132  18.141  0.00  0.00    +0.000 A 
ATOM     11  C   UNL     1       4.631   3.799  16.780  0.00  0.00    +0.000 A 
ATOM     12  C   UNL     1       5.736   3.920  15.923  0.00  0.00    +0.000 A 
ENDBRANCH   1  10
BRANCH   6  13
ATOM     13  C   UNL     1       2.056   5.868  18.178  0.00  0.00    +0.000 C 
BRANCH  13  14
ATOM     14  C   UNL     1       2.696   7.203  18.583  0.00  0.00    +0.000 C 
BRANCH  14  15
ATOM     15  C   UNL     1       1.906   8.084  19.517  0.00  0.00    +0.000 C 
ATOM     16  N   UNL     1       1.299   9.176  19.143  0.00  0.00    +0.000 NA
ATOM     17  C   UNL     1       0.787   9.747  20.437  0.00  0.00    +0.000 C 
ATOM     18  C   UNL     1       0.889   8.627  21.476  0.00  0.00    +0.000 C 
ATOM     19  N   UNL     1       1.874   7.780  20.856  0.00  0.00    +0.000 N 
ATOM     20  H   UNL     1       1.923   6.807  21.133  0.00  0.00    +0.000 HD
ENDBRANCH  14  15
ENDBRANCH  13  14
ENDBRANCH   6  13
TORSDOF 4
ENDMDL
