MODEL 1
REMARK VINA RESULT:      -6.7      0.000      0.000
REMARK  Name = 
REMARK  14 active torsions:
REMARK  status: ('A' for Active; 'I' for Inactive)
REMARK    1  A    between atoms: C_1  and  C_2
REMARK    2  A    between atoms: C_2  and  C_3
REMARK    3  A    between atoms: C_3  and  C_4
REMARK    4  A    between atoms: C_4  and  C_5
REMARK    5  A    between atoms: C_5  and  C_6
REMARK    6  A    between atoms: C_6  and  C_7
REMARK    7  A    between atoms: C_7  and  C_8
REMARK    8  A    between atoms: C_8  and  C_9
REMARK    9  A    between atoms: C_9  and  C_10
REMARK   10  A    between atoms: C_10  and  C_11
REMARK   11  A    between atoms: C_12  and  C_13
REMARK   12  A    between atoms: N_23  and  C_24
REMARK   13  A    between atoms: C_24  and  C_25
REMARK   14  A    between atoms: C_25  and  C_26
REMARK                            x       y       z     vdW  Elec       q    Type
REMARK                         _______ _______ _______ _____ _____    ______ ____
ROOT
ATOM      1  C   UNL     1       0.075  10.162  19.877  0.00  0.00    +0.000 A 
ATOM      2  C   UNL     1       0.471   9.849  21.131  0.00  0.00    +0.000 A 
ATOM      3  C   UNL     1      -0.194  10.448  22.293  0.00  0.00    +0.000 A 
ATOM      4  O   UNL     1       0.100  10.101  23.433  0.00  0.00    +0.000 OA
ATOM      5  C   UNL     1      -1.181  11.505  22.020  0.00  0.00    +0.000 A 
ATOM      6  C   UNL     1      -1.662  12.236  23.114  0.00  0.00    +0.000 A 
ATOM      7  C   UNL     1      -2.527  13.299  22.906  0.00  0.00    +0.000 A 
ATOM      8  C   UNL     1      -2.984  13.560  21.620  0.00  0.00    +0.000 A 
ATOM      9  C   UNL     1      -2.542  12.792  20.536  0.00  0.00    +0.000 A 
ATOM     10  C   UNL     1      -1.574  11.781  20.693  0.00  0.00    +0.000 A 
ATOM     11  N   UNL     1      -0.970  11.074  19.607  0.00  0.00    +0.000 N 
ENDROOT
BRANCH   1  13
ATOM     12  C   UNL     1       1.797   8.653  19.055  0.00  0.00    +0.000 C 
ATOM     13  C   UNL     1       0.799   9.514  18.816  0.00  0.00    +0.000 C 
BRANCH  12  14
ATOM     14  C   UNL     1       2.499   7.916  17.970  0.00  0.00    +0.000 C 
BRANCH  14  15
ATOM     15  C   UNL     1       2.679   6.452  18.327  0.00  0.00    +0.000 C 
BRANCH  15  16
ATOM     16  C   UNL     1       2.670   6.292  19.839  0.00  0.00    +0.000 C 
BRANCH  16  17
ATOM     17  C   UNL     1       1.559   5.340  20.244  0.00  0.00    +0.000 C 
BRANCH  17  18
ATOM     18  C   UNL     1       2.102   4.257  21.157  0.00  0.00    +0.000 C 
BRANCH  18  19
ATOM     19  C   UNL     1       1.302   2.979  20.976  0.00  0.00    +0.000 C 
BRANCH  19  20
ATOM     20  C   UNL     1       0.870   2.831  19.526  0.00  0.00    +0.000 C 
BRANCH  20  21
ATOM     21  C   UNL     1       1.906   2.036  18.746  0.00  0.00    +0.000 C 
BRANCH  21  23
ATOM     22  C   UNL     1       3.901   2.997  17.583  0.00  0.00    +0.000 C 
ATOM     23  C   UNL     1       2.394   2.827  17.539  0.00  0.00    +0.000 C 
ENDBRANCH  21  23
ENDBRANCH  20  21
ENDBRANCH  19  20
ENDBRANCH  18  19
ENDBRANCH  17  18
ENDBRANCH  16  17
ENDBRANCH  15  16
ENDBRANCH  14  15
ENDBRANCH  12  14
ENDBRANCH   1  13
BRANCH  11  24
ATOM     24  C   UNL     1      -1.376  11.454  18.232  0.00  0.00    +0.000 C 
BRANCH  24  25
ATOM     25  C   UNL     1      -2.085  10.332  17.461  0.00  0.00    +0.000 C 
ATOM     26  C   UNL     1      -3.564  10.165  17.766  0.00  0.00    +0.000 C 
ENDBRANCH  24  25
ENDBRANCH  11  24
TORSDOF 12
ENDMDL
MODEL 2
REMARK VINA RESULT:      -6.5      3.616      6.507
REMARK  Name = 
REMARK  14 active torsions:
REMARK  status: ('A' for Active; 'I' for Inactive)
REMARK    1  A    between atoms: C_1  and  C_2
REMARK    2  A    between atoms: C_2  and  C_3
REMARK    3  A    between atoms: C_3  and  C_4
REMARK    4  A    between atoms: C_4  and  C_5
REMARK    5  A    between atoms: C_5  and  C_6
REMARK    6  A    between atoms: C_6  and  C_7
REMARK    7  A    between atoms: C_7  and  C_8
REMARK    8  A    between atoms: C_8  and  C_9
REMARK    9  A    between atoms: C_9  and  C_10
REMARK   10  A    between atoms: C_10  and  C_11
REMARK   11  A    between atoms: C_12  and  C_13
REMARK   12  A    between atoms: N_23  and  C_24
REMARK   13  A    between atoms: C_24  and  C_25
REMARK   14  A    between atoms: C_25  and  C_26
REMARK                            x       y       z     vdW  Elec       q    Type
REMARK                         _______ _______ _______ _____ _____    ______ ____
ROOT
ATOM      1  C   UNL     1       2.605   6.540  18.820  0.00  0.00    +0.000 A 
ATOM      2  C   UNL     1       2.681   7.520  17.891  0.00  0.00    +0.000 A 
ATOM      3  C   UNL     1       2.109   8.844  18.157  0.00  0.00    +0.000 A 
ATOM      4  O   UNL     1       2.253   9.762  17.355  0.00  0.00    +0.000 OA
ATOM      5  C   UNL     1       1.324   8.991  19.393  0.00  0.00    +0.000 A 
ATOM      6  C   UNL     1       0.592  10.175  19.555  0.00  0.00    +0.000 A 
ATOM      7  C   UNL     1      -0.231  10.331  20.659  0.00  0.00    +0.000 A 
ATOM      8  C   UNL     1      -0.241   9.349  21.642  0.00  0.00    +0.000 A 
ATOM      9  C   UNL     1       0.534   8.191  21.501  0.00  0.00    +0.000 A 
ATOM     10  C   UNL     1       1.291   7.945  20.340  0.00  0.00    +0.000 A 
ATOM     11  N   UNL     1       1.973   6.717  20.072  0.00  0.00    +0.000 N 
ENDROOT
BRANCH   1  13
ATOM     12  C   UNL     1       3.477   4.973  17.179  0.00  0.00    +0.000 C 
ATOM     13  C   UNL     1       3.200   5.284  18.452  0.00  0.00    +0.000 C 
BRANCH  12  14
ATOM     14  C   UNL     1       4.166   3.712  16.792  0.00  0.00    +0.000 C 
BRANCH  14  15
ATOM     15  C   UNL     1       5.667   3.916  16.688  0.00  0.00    +0.000 C 
BRANCH  15  16
ATOM     16  C   UNL     1       5.966   4.959  15.623  0.00  0.00    +0.000 C 
BRANCH  16  17
ATOM     17  C   UNL     1       6.971   5.962  16.161  0.00  0.00    +0.000 C 
BRANCH  17  18
ATOM     18  C   UNL     1       7.363   5.601  17.581  0.00  0.00    +0.000 C 
BRANCH  18  19
ATOM     19  C   UNL     1       7.755   6.856  18.343  0.00  0.00    +0.000 C 
BRANCH  19  20
ATOM     20  C   UNL     1       8.082   7.979  17.373  0.00  0.00    +0.000 C 
BRANCH  20  21
ATOM     21  C   UNL     1       7.842   9.329  18.030  0.00  0.00    +0.000 C 
BRANCH  21  23
ATOM     22  C   UNL     1       9.658  11.031  18.273  0.00  0.00    +0.000 C 
ATOM     23  C   UNL     1       9.059   9.757  18.840  0.00  0.00    +0.000 C 
ENDBRANCH  21  23
ENDBRANCH  20  21
ENDBRANCH  19  20
ENDBRANCH  18  19
ENDBRANCH  17  18
ENDBRANCH  16  17
ENDBRANCH  15  16
ENDBRANCH  14  15
ENDBRANCH  12  14
ENDBRANCH   1  13
BRANCH  11  24
ATOM     24  C   UNL     1       1.847   5.631  21.076  0.00  0.00    +0.000 C 
BRANCH  24  25
ATOM     25  C   UNL     1       1.052   4.416  20.579  0.00  0.00    +0.000 C 
ATOM     26  C   UNL     1       1.446   3.084  21.194  0.00  0.00    +0.000 C 
ENDBRANCH  24  25
ENDBRANCH  11  24
TORSDOF 12
ENDMDL
MODEL 3
REMARK VINA RESULT:      -6.5      6.314     10.404
REMARK  Name = 
REMARK  14 active torsions:
REMARK  status: ('A' for Active; 'I' for Inactive)
REMARK    1  A    between atoms: C_1  and  C_2
REMARK    2  A    between atoms: C_2  and  C_3
REMARK    3  A    between atoms: C_3  and  C_4
REMARK    4  A    between atoms: C_4  and  C_5
REMARK    5  A    between atoms: C_5  and  C_6
REMARK    6  A    between atoms: C_6  and  C_7
REMARK    7  A    between atoms: C_7  and  C_8
REMARK    8  A    between atoms: C_8  and  C_9
REMARK    9  A    between atoms: C_9  and  C_10
REMARK   10  A    between atoms: C_10  and  C_11
REMARK   11  A    between atoms: C_12  and  C_13
REMARK   12  A    between atoms: N_23  and  C_24
REMARK   13  A    between atoms: C_24  and  C_25
REMARK   14  A    between atoms: C_25  and  C_26
REMARK                            x       y       z     vdW  Elec       q    Type
REMARK                         _______ _______ _______ _____ _____    ______ ____
ROOT
ATOM      1  C   UNL     1       4.826   6.179  17.666  0.00  0.00    +0.000 A 
ATOM      2  C   UNL     1       3.896   6.809  18.418  0.00  0.00    +0.000 A 
ATOM      3  C   UNL     1       2.783   6.059  19.008  0.00  0.00    +0.000 A 
ATOM      4  O   UNL     1       1.987   6.609  19.763  0.00  0.00    +0.000 OA
ATOM      5  C   UNL     1       2.647   4.650  18.608  0.00  0.00    +0.000 A 
ATOM      6  C   UNL     1       1.474   3.982  18.985  0.00  0.00    +0.000 A 
ATOM      7  C   UNL     1       1.256   2.680  18.564  0.00  0.00    +0.000 A 
ATOM      8  C   UNL     1       2.254   2.020  17.855  0.00  0.00    +0.000 A 
ATOM      9  C   UNL     1       3.448   2.674  17.528  0.00  0.00    +0.000 A 
ATOM     10  C   UNL     1       3.656   4.032  17.837  0.00  0.00    +0.000 A 
ATOM     11  N   UNL     1       4.781   4.793  17.392  0.00  0.00    +0.000 N 
ENDROOT
BRANCH   1  13
ATOM     12  C   UNL     1       6.926   7.387  17.878  0.00  0.00    +0.000 C 
ATOM     13  C   UNL     1       5.873   7.014  17.139  0.00  0.00    +0.000 C 
BRANCH  12  14
ATOM     14  C   UNL     1       8.054   8.182  17.322  0.00  0.00    +0.000 C 
BRANCH  14  15
ATOM     15  C   UNL     1       8.106   9.569  17.938  0.00  0.00    +0.000 C 
BRANCH  15  16
ATOM     16  C   UNL     1       9.183   9.609  19.011  0.00  0.00    +0.000 C 
BRANCH  16  17
ATOM     17  C   UNL     1       9.282  11.013  19.580  0.00  0.00    +0.000 C 
BRANCH  17  18
ATOM     18  C   UNL     1      10.675  11.571  19.360  0.00  0.00    +0.000 C 
BRANCH  18  19
ATOM     19  C   UNL     1      11.008  11.560  17.878  0.00  0.00    +0.000 C 
BRANCH  19  20
ATOM     20  C   UNL     1      11.936  12.715  17.540  0.00  0.00    +0.000 C 
BRANCH  20  21
ATOM     21  C   UNL     1      11.156  13.840  16.876  0.00  0.00    +0.000 C 
BRANCH  21  23
ATOM     22  C   UNL     1      10.829  16.318  16.795  0.00  0.00    +0.000 C 
ATOM     23  C   UNL     1      11.742  15.195  17.250  0.00  0.00    +0.000 C 
ENDBRANCH  21  23
ENDBRANCH  20  21
ENDBRANCH  19  20
ENDBRANCH  18  19
ENDBRANCH  17  18
ENDBRANCH  16  17
ENDBRANCH  15  16
ENDBRANCH  14  15
ENDBRANCH  12  14
ENDBRANCH   1  13
BRANCH  11  24
ATOM     24  C   UNL     1       5.774   4.106  16.530  0.00  0.00    +0.000 C 
BRANCH  24  25
ATOM     25  C   UNL     1       5.515   4.277  15.027  0.00  0.00    +0.000 C 
ATOM     26  C   UNL     1       6.727   4.662  14.196  0.00  0.00    +0.000 C 
ENDBRANCH  24  25
ENDBRANCH  11  24
TORSDOF 12
ENDMDL
MODEL 4
REMARK VINA RESULT:      -6.5      3.621      6.382
REMARK  Name = 
REMARK  14 active torsions:
REMARK  status: ('A' for Active; 'I' for Inactive)
REMARK    1  A    between atoms: C_1  and  C_2
REMARK    2  A    between atoms: C_2  and  C_3
REMARK    3  A    between atoms: C_3  and  C_4
REMARK    4  A    between atoms: C_4  and  C_5
REMARK    5  A    between atoms: C_5  and  C_6
REMARK    6  A    between atoms: C_6  and  C_7
REMARK    7  A    between atoms: C_7  and  C_8
REMARK    8  A    between atoms: C_8  and  C_9
REMARK    9  A    between atoms: C_9  and  C_10
REMARK   10  A    between atoms: C_10  and  C_11
REMARK   11  A    between atoms: C_12  and  C_13
REMARK   12  A    between atoms: N_23  and  C_24
REMARK   13  A    between atoms: C_24  and  C_25
REMARK   14  A    between atoms: C_25  and  C_26
REMARK                            x       y       z     vdW  Elec       q    Type
REMARK                         _______ _______ _______ _____ _____    ______ ____
ROOT
ATOM      1  C   UNL     1       2.913   6.538  18.845  0.00  0.00    +0.000 A 
ATOM      2  C   UNL     1       2.983   7.523  17.923  0.00  0.00    +0.000 A 
ATOM      3  C   UNL     1       2.301   8.802  18.147  0.00  0.00    +0.000 A 
ATOM      4  O   UNL     1       2.434   9.731  17.356  0.00  0.00    +0.000 OA
ATOM      5  C   UNL     1       1.424   8.888  19.325  0.00  0.00    +0.000 A 
ATOM      6  C   UNL     1       0.600  10.016  19.434  0.00  0.00    +0.000 A 
ATOM      7  C   UNL     1      -0.306  10.109  20.479  0.00  0.00    +0.000 A 
ATOM      8  C   UNL     1      -0.314   9.125  21.460  0.00  0.00    +0.000 A 
ATOM      9  C   UNL     1       0.550   8.026  21.375  0.00  0.00    +0.000 A 
ATOM     10  C   UNL     1       1.401   7.839  20.269  0.00  0.00    +0.000 A 
ATOM     11  N   UNL     1       2.186   6.664  20.050  0.00  0.00    +0.000 N 
ENDROOT
BRANCH   1  13
ATOM     12  C   UNL     1       3.225   4.514  17.533  0.00  0.00    +0.000 C 
ATOM     13  C   UNL     1       3.621   5.328  18.520  0.00  0.00    +0.000 C 
BRANCH  12  14
ATOM     14  C   UNL     1       3.993   3.303  17.134  0.00  0.00    +0.000 C 
BRANCH  14  15
ATOM     15  C   UNL     1       5.193   3.671  16.281  0.00  0.00    +0.000 C 
BRANCH  15  16
ATOM     16  C   UNL     1       5.135   5.150  15.930  0.00  0.00    +0.000 C 
BRANCH  16  17
ATOM     17  C   UNL     1       5.509   5.342  14.471  0.00  0.00    +0.000 C 
BRANCH  17  18
ATOM     18  C   UNL     1       6.825   4.651  14.171  0.00  0.00    +0.000 C 
BRANCH  18  19
ATOM     19  C   UNL     1       6.695   3.816  12.909  0.00  0.00    +0.000 C 
BRANCH  19  20
ATOM     20  C   UNL     1       5.237   3.471  12.656  0.00  0.00    +0.000 C 
BRANCH  20  21
ATOM     21  C   UNL     1       5.106   2.626  11.398  0.00  0.00    +0.000 C 
BRANCH  21  23
ATOM     22  C   UNL     1       6.077   0.333  11.167  0.00  0.00    +0.000 C 
ATOM     23  C   UNL     1       6.376   1.821  11.157  0.00  0.00    +0.000 C 
ENDBRANCH  21  23
ENDBRANCH  20  21
ENDBRANCH  19  20
ENDBRANCH  18  19
ENDBRANCH  17  18
ENDBRANCH  16  17
ENDBRANCH  15  16
ENDBRANCH  14  15
ENDBRANCH  12  14
ENDBRANCH   1  13
BRANCH  11  24
ATOM     24  C   UNL     1       2.069   5.568  21.044  0.00  0.00    +0.000 C 
BRANCH  24  25
ATOM     25  C   UNL     1       1.140   4.428  20.605  0.00  0.00    +0.000 C 
ATOM     26  C   UNL     1       1.541   3.041  21.078  0.00  0.00    +0.000 C 
ENDBRANCH  24  25
ENDBRANCH  11  24
TORSDOF 12
ENDMDL
MODEL 5
REMARK VINA RESULT:      -6.4      3.636      6.362
REMARK  Name = 
REMARK  14 active torsions:
REMARK  status: ('A' for Active; 'I' for Inactive)
REMARK    1  A    between atoms: C_1  and  C_2
REMARK    2  A    between atoms: C_2  and  C_3
REMARK    3  A    between atoms: C_3  and  C_4
REMARK    4  A    between atoms: C_4  and  C_5
REMARK    5  A    between atoms: C_5  and  C_6
REMARK    6  A    between atoms: C_6  and  C_7
REMARK    7  A    between atoms: C_7  and  C_8
REMARK    8  A    between atoms: C_8  and  C_9
REMARK    9  A    between atoms: C_9  and  C_10
REMARK   10  A    between atoms: C_10  and  C_11
REMARK   11  A    between atoms: C_12  and  C_13
REMARK   12  A    between atoms: N_23  and  C_24
REMARK   13  A    between atoms: C_24  and  C_25
REMARK   14  A    between atoms: C_25  and  C_26
REMARK                            x       y       z     vdW  Elec       q    Type
REMARK                         _______ _______ _______ _____ _____    ______ ____
ROOT
ATOM      1  C   UNL     1       2.255   6.519  18.592  0.00  0.00    +0.000 A 
ATOM      2  C   UNL     1       2.250   7.526  17.691  0.00  0.00    +0.000 A 
ATOM      3  C   UNL     1       1.960   8.901  18.113  0.00  0.00    +0.000 A 
ATOM      4  O   UNL     1       2.042   9.831  17.317  0.00  0.00    +0.000 OA
ATOM      5  C   UNL     1       1.524   9.089  19.505  0.00  0.00    +0.000 A 
ATOM      6  C   UNL     1       1.036  10.352  19.863  0.00  0.00    +0.000 A 
ATOM      7  C   UNL     1       0.533  10.561  21.138  0.00  0.00    +0.000 A 
ATOM      8  C   UNL     1       0.614   9.539  22.076  0.00  0.00    +0.000 A 
ATOM      9  C   UNL     1       1.153   8.294  21.728  0.00  0.00    +0.000 A 
ATOM     10  C   UNL     1       1.566   8.008  20.412  0.00  0.00    +0.000 A 
ATOM     11  N   UNL     1       1.975   6.714  19.964  0.00  0.00    +0.000 N 
ENDROOT
BRANCH   1  13
ATOM     12  C   UNL     1       3.810   4.771  17.926  0.00  0.00    +0.000 C 
ATOM     13  C   UNL     1       2.553   5.213  18.066  0.00  0.00    +0.000 C 
BRANCH  12  14
ATOM     14  C   UNL     1       4.129   3.394  17.460  0.00  0.00    +0.000 C 
BRANCH  14  15
ATOM     15  C   UNL     1       5.293   3.400  16.486  0.00  0.00    +0.000 C 
BRANCH  15  16
ATOM     16  C   UNL     1       5.260   4.676  15.659  0.00  0.00    +0.000 C 
BRANCH  16  17
ATOM     17  C   UNL     1       6.667   5.031  15.215  0.00  0.00    +0.000 C 
BRANCH  17  18
ATOM     18  C   UNL     1       6.799   4.868  13.712  0.00  0.00    +0.000 C 
BRANCH  18  19
ATOM     19  C   UNL     1       6.450   3.444  13.315  0.00  0.00    +0.000 C 
BRANCH  19  20
ATOM     20  C   UNL     1       5.913   3.413  11.893  0.00  0.00    +0.000 C 
BRANCH  20  21
ATOM     21  C   UNL     1       4.447   3.818  11.876  0.00  0.00    +0.000 C 
BRANCH  21  23
ATOM     22  C   UNL     1       3.014   3.940   9.830  0.00  0.00    +0.000 C 
ATOM     23  C   UNL     1       3.679   3.016  10.834  0.00  0.00    +0.000 C 
ENDBRANCH  21  23
ENDBRANCH  20  21
ENDBRANCH  19  20
ENDBRANCH  18  19
ENDBRANCH  17  18
ENDBRANCH  16  17
ENDBRANCH  15  16
ENDBRANCH  14  15
ENDBRANCH  12  14
ENDBRANCH   1  13
BRANCH  11  24
ATOM     24  C   UNL     1       1.934   5.603  20.947  0.00  0.00    +0.000 C 
BRANCH  24  25
ATOM     25  C   UNL     1       1.032   4.435  20.527  0.00  0.00    +0.000 C 
ATOM     26  C   UNL     1       1.440   3.072  21.061  0.00  0.00    +0.000 C 
ENDBRANCH  24  25
ENDBRANCH  11  24
TORSDOF 12
ENDMDL
MODEL 6
REMARK VINA RESULT:      -6.4      1.922      3.166
REMARK  Name = 
REMARK  14 active torsions:
REMARK  status: ('A' for Active; 'I' for Inactive)
REMARK    1  A    between atoms: C_1  and  C_2
REMARK    2  A    between atoms: C_2  and  C_3
REMARK    3  A    between atoms: C_3  and  C_4
REMARK    4  A    between atoms: C_4  and  C_5
REMARK    5  A    between atoms: C_5  and  C_6
REMARK    6  A    between atoms: C_6  and  C_7
REMARK    7  A    between atoms: C_7  and  C_8
REMARK    8  A    between atoms: C_8  and  C_9
REMARK    9  A    between atoms: C_9  and  C_10
REMARK   10  A    between atoms: C_10  and  C_11
REMARK   11  A    between atoms: C_12  and  C_13
REMARK   12  A    between atoms: N_23  and  C_24
REMARK   13  A    between atoms: C_24  and  C_25
REMARK   14  A    between atoms: C_25  and  C_26
REMARK                            x       y       z     vdW  Elec       q    Type
REMARK                         _______ _______ _______ _____ _____    ______ ____
ROOT
ATOM      1  C   UNL     1      -0.287  10.246  18.611  0.00  0.00    +0.000 A 
ATOM      2  C   UNL     1      -0.996   9.951  17.498  0.00  0.00    +0.000 A 
ATOM      3  C   UNL     1      -2.309  10.563  17.269  0.00  0.00    +0.000 A 
ATOM      4  O   UNL     1      -2.917  10.369  16.221  0.00  0.00    +0.000 OA
ATOM      5  C   UNL     1      -2.867  11.367  18.368  0.00  0.00    +0.000 A 
ATOM      6  C   UNL     1      -4.203  11.775  18.255  0.00  0.00    +0.000 A 
ATOM      7  C   UNL     1      -4.804  12.461  19.298  0.00  0.00    +0.000 A 
ATOM      8  C   UNL     1      -4.042  12.822  20.402  0.00  0.00    +0.000 A 
ATOM      9  C   UNL     1      -2.692  12.459  20.486  0.00  0.00    +0.000 A 
ATOM     10  C   UNL     1      -2.078  11.662  19.500  0.00  0.00    +0.000 A 
ATOM     11  N   UNL     1      -0.756  11.130  19.609  0.00  0.00    +0.000 N 
ENDROOT
BRANCH   1  13
ATOM     12  C   UNL     1       1.435   8.728  17.805  0.00  0.00    +0.000 C 
ATOM     13  C   UNL     1       0.987   9.587  18.731  0.00  0.00    +0.000 C 
BRANCH  12  14
ATOM     14  C   UNL     1       2.783   8.104  17.877  0.00  0.00    +0.000 C 
BRANCH  14  15
ATOM     15  C   UNL     1       2.684   6.607  18.112  0.00  0.00    +0.000 C 
BRANCH  15  16
ATOM     16  C   UNL     1       3.109   6.287  19.537  0.00  0.00    +0.000 C 
BRANCH  16  17
ATOM     17  C   UNL     1       1.879   6.052  20.395  0.00  0.00    +0.000 C 
BRANCH  17  18
ATOM     18  C   UNL     1       1.762   4.582  20.752  0.00  0.00    +0.000 C 
BRANCH  18  19
ATOM     19  C   UNL     1       1.053   3.834  19.636  0.00  0.00    +0.000 C 
BRANCH  19  20
ATOM     20  C   UNL     1       1.626   2.433  19.498  0.00  0.00    +0.000 C 
BRANCH  20  21
ATOM     21  C   UNL     1       2.346   2.289  18.165  0.00  0.00    +0.000 C 
BRANCH  21  23
ATOM     22  C   UNL     1       4.141   3.565  16.981  0.00  0.00    +0.000 C 
ATOM     23  C   UNL     1       3.764   2.838  18.258  0.00  0.00    +0.000 C 
ENDBRANCH  21  23
ENDBRANCH  20  21
ENDBRANCH  19  20
ENDBRANCH  18  19
ENDBRANCH  17  18
ENDBRANCH  16  17
ENDBRANCH  15  16
ENDBRANCH  14  15
ENDBRANCH  12  14
ENDBRANCH   1  13
BRANCH  11  24
ATOM     24  C   UNL     1      -0.000  11.420  20.852  0.00  0.00    +0.000 C 
BRANCH  24  25
ATOM     25  C   UNL     1      -0.342  10.484  22.019  0.00  0.00    +0.000 C 
ATOM     26  C   UNL     1       0.686   9.405  22.312  0.00  0.00    +0.000 C 
ENDBRANCH  24  25
ENDBRANCH  11  24
TORSDOF 12
ENDMDL
MODEL 7
REMARK VINA RESULT:      -6.4      1.000      2.016
REMARK  Name = 
REMARK  14 active torsions:
REMARK  status: ('A' for Active; 'I' for Inactive)
REMARK    1  A    between atoms: C_1  and  C_2
REMARK    2  A    between atoms: C_2  and  C_3
REMARK    3  A    between atoms: C_3  and  C_4
REMARK    4  A    between atoms: C_4  and  C_5
REMARK    5  A    between atoms: C_5  and  C_6
REMARK    6  A    between atoms: C_6  and  C_7
REMARK    7  A    between atoms: C_7  and  C_8
REMARK    8  A    between atoms: C_8  and  C_9
REMARK    9  A    between atoms: C_9  and  C_10
REMARK   10  A    between atoms: C_10  and  C_11
REMARK   11  A    between atoms: C_12  and  C_13
REMARK   12  A    between atoms: N_23  and  C_24
REMARK   13  A    between atoms: C_24  and  C_25
REMARK   14  A    between atoms: C_25  and  C_26
REMARK                            x       y       z     vdW  Elec       q    Type
REMARK                         _______ _______ _______ _____ _____    ______ ____
ROOT
ATOM      1  C   UNL     1       0.701   9.539  20.328  0.00  0.00    +0.000 A 
ATOM      2  C   UNL     1       0.739   9.173  21.628  0.00  0.00    +0.000 A 
ATOM      3  C   UNL     1      -0.049   9.898  22.630  0.00  0.00    +0.000 A 
ATOM      4  O   UNL     1      -0.088   9.516  23.795  0.00  0.00    +0.000 OA
ATOM      5  C   UNL     1      -0.737  11.117  22.176  0.00  0.00    +0.000 A 
ATOM      6  C   UNL     1      -1.310  11.938  23.156  0.00  0.00    +0.000 A 
ATOM      7  C   UNL     1      -1.896  13.140  22.793  0.00  0.00    +0.000 A 
ATOM      8  C   UNL     1      -1.995  13.467  21.445  0.00  0.00    +0.000 A 
ATOM      9  C   UNL     1      -1.469  12.617  20.465  0.00  0.00    +0.000 A 
ATOM     10  C   UNL     1      -0.764  11.445  20.803  0.00  0.00    +0.000 A 
ATOM     11  N   UNL     1      -0.071  10.626  19.859  0.00  0.00    +0.000 N 
ENDROOT
BRANCH   1  13
ATOM     12  C   UNL     1       2.054   7.587  19.804  0.00  0.00    +0.000 C 
ATOM     13  C   UNL     1       1.513   8.756  19.435  0.00  0.00    +0.000 C 
BRANCH  12  14
ATOM     14  C   UNL     1       2.828   6.729  18.867  0.00  0.00    +0.000 C 
BRANCH  14  15
ATOM     15  C   UNL     1       3.576   5.637  19.611  0.00  0.00    +0.000 C 
BRANCH  15  16
ATOM     16  C   UNL     1       4.274   4.728  18.612  0.00  0.00    +0.000 C 
BRANCH  16  17
ATOM     17  C   UNL     1       3.506   4.724  17.303  0.00  0.00    +0.000 C 
BRANCH  17  18
ATOM     18  C   UNL     1       2.508   3.583  17.283  0.00  0.00    +0.000 C 
BRANCH  18  19
ATOM     19  C   UNL     1       3.113   2.356  17.943  0.00  0.00    +0.000 C 
BRANCH  19  20
ATOM     20  C   UNL     1       2.247   1.905  19.108  0.00  0.00    +0.000 C 
BRANCH  20  21
ATOM     21  C   UNL     1       0.962   2.717  19.153  0.00  0.00    +0.000 C 
BRANCH  21  23
ATOM     22  C   UNL     1       1.702   2.811  21.540  0.00  0.00    +0.000 C 
ATOM     23  C   UNL     1       0.847   3.469  20.474  0.00  0.00    +0.000 C 
ENDBRANCH  21  23
ENDBRANCH  20  21
ENDBRANCH  19  20
ENDBRANCH  18  19
ENDBRANCH  17  18
ENDBRANCH  16  17
ENDBRANCH  15  16
ENDBRANCH  14  15
ENDBRANCH  12  14
ENDBRANCH   1  13
BRANCH  11  24
ATOM     24  C   UNL     1      -0.080  11.059  18.439  0.00  0.00    +0.000 C 
BRANCH  24  25
ATOM     25  C   UNL     1      -1.455  10.953  17.767  0.00  0.00    +0.000 C 
ATOM     26  C   UNL     1      -2.190   9.642  17.989  0.00  0.00    +0.000 C 
ENDBRANCH  24  25
ENDBRANCH  11  24
TORSDOF 12
ENDMDL
MODEL 8
REMARK VINA RESULT:      -6.3      1.937      3.500
REMARK  Name = 
REMARK  14 active torsions:
REMARK  status: ('A' for Active; 'I' for Inactive)
REMARK    1  A    between atoms: C_1  and  C_2
REMARK    2  A    between atoms: C_2  and  C_3
REMARK    3  A    between atoms: C_3  and  C_4
REMARK    4  A    between atoms: C_4  and  C_5
REMARK    5  A    between atoms: C_5  and  C_6
REMARK    6  A    between atoms: C_6  and  C_7
REMARK    7  A    between atoms: C_7  and  C_8
REMARK    8  A    between atoms: C_8  and  C_9
REMARK    9  A    between atoms: C_9  and  C_10
REMARK   10  A    between atoms: C_10  and  C_11
REMARK   11  A    between atoms: C_12  and  C_13
REMARK   12  A    between atoms: N_23  and  C_24
REMARK   13  A    between atoms: C_24  and  C_25
REMARK   14  A    between atoms: C_25  and  C_26
REMARK                            x       y       z     vdW  Elec       q    Type
REMARK                         _______ _______ _______ _____ _____    ______ ____
ROOT
ATOM      1  C   UNL     1       1.114   8.787  20.730  0.00  0.00    +0.000 A 
ATOM      2  C   UNL     1       1.087   8.789  22.082  0.00  0.00    +0.000 A 
ATOM      3  C   UNL     1       0.238   9.739  22.808  0.00  0.00    +0.000 A 
ATOM      4  O   UNL     1       0.141   9.686  24.031  0.00  0.00    +0.000 OA
ATOM      5  C   UNL     1      -0.437  10.772  22.007  0.00  0.00    +0.000 A 
ATOM      6  C   UNL     1      -1.071  11.812  22.698  0.00  0.00    +0.000 A 
ATOM      7  C   UNL     1      -1.650  12.856  21.993  0.00  0.00    +0.000 A 
ATOM      8  C   UNL     1      -1.680  12.803  20.605  0.00  0.00    +0.000 A 
ATOM      9  C   UNL     1      -1.092  11.733  19.919  0.00  0.00    +0.000 A 
ATOM     10  C   UNL     1      -0.394  10.714  20.597  0.00  0.00    +0.000 A 
ATOM     11  N   UNL     1       0.357   9.687  19.946  0.00  0.00    +0.000 N 
ENDROOT
BRANCH   1  13
ATOM     12  C   UNL     1       1.928   6.513  20.448  0.00  0.00    +0.000 C 
ATOM     13  C   UNL     1       1.982   7.812  20.125  0.00  0.00    +0.000 C 
BRANCH  12  14
ATOM     14  C   UNL     1       2.764   5.484  19.772  0.00  0.00    +0.000 C 
BRANCH  14  15
ATOM     15  C   UNL     1       1.912   4.338  19.256  0.00  0.00    +0.000 C 
BRANCH  15  16
ATOM     16  C   UNL     1       1.862   4.386  17.737  0.00  0.00    +0.000 C 
BRANCH  16  17
ATOM     17  C   UNL     1       2.565   3.167  17.166  0.00  0.00    +0.000 C 
BRANCH  17  18
ATOM     18  C   UNL     1       4.057   3.254  17.422  0.00  0.00    +0.000 C 
BRANCH  18  19
ATOM     19  C   UNL     1       4.636   4.458  16.700  0.00  0.00    +0.000 C 
BRANCH  19  20
ATOM     20  C   UNL     1       5.985   4.108  16.093  0.00  0.00    +0.000 C 
BRANCH  20  21
ATOM     21  C   UNL     1       7.100   4.826  16.838  0.00  0.00    +0.000 C 
BRANCH  21  23
ATOM     22  C   UNL     1       7.469   7.198  17.538  0.00  0.00    +0.000 C 
ATOM     23  C   UNL     1       6.545   5.998  17.636  0.00  0.00    +0.000 C 
ENDBRANCH  21  23
ENDBRANCH  20  21
ENDBRANCH  19  20
ENDBRANCH  18  19
ENDBRANCH  17  18
ENDBRANCH  16  17
ENDBRANCH  15  16
ENDBRANCH  14  15
ENDBRANCH  12  14
ENDBRANCH   1  13
BRANCH  11  24
ATOM     24  C   UNL     1       0.420   9.719  18.464  0.00  0.00    +0.000 C 
BRANCH  24  25
ATOM     25  C   UNL     1       1.786  10.144  17.909  0.00  0.00    +0.000 C 
ATOM     26  C   UNL     1       2.162  11.597  18.147  0.00  0.00    +0.000 C 
ENDBRANCH  24  25
ENDBRANCH  11  24
TORSDOF 12
ENDMDL
MODEL 9
REMARK VINA RESULT:      -6.3      1.475      2.960
REMARK  Name = 
REMARK  14 active torsions:
REMARK  status: ('A' for Active; 'I' for Inactive)
REMARK    1  A    between atoms: C_1  and  C_2
REMARK    2  A    between atoms: C_2  and  C_3
REMARK    3  A    between atoms: C_3  and  C_4
REMARK    4  A    between atoms: C_4  and  C_5
REMARK    5  A    between atoms: C_5  and  C_6
REMARK    6  A    between atoms: C_6  and  C_7
REMARK    7  A    between atoms: C_7  and  C_8
REMARK    8  A    between atoms: C_8  and  C_9
REMARK    9  A    between atoms: C_9  and  C_10
REMARK   10  A    between atoms: C_10  and  C_11
REMARK   11  A    between atoms: C_12  and  C_13
REMARK   12  A    between atoms: N_23  and  C_24
REMARK   13  A    between atoms: C_24  and  C_25
REMARK   14  A    between atoms: C_25  and  C_26
REMARK                            x       y       z     vdW  Elec       q    Type
REMARK                         _______ _______ _______ _____ _____    ______ ____
ROOT
ATOM      1  C   UNL     1       1.041   8.754  20.783  0.00  0.00    +0.000 A 
ATOM      2  C   UNL     1       0.958   8.805  22.131  0.00  0.00    +0.000 A 
ATOM      3  C   UNL     1       0.144   9.833  22.788  0.00  0.00    +0.000 A 
ATOM      4  O   UNL     1      -0.007   9.830  24.006  0.00  0.00    +0.000 OA
ATOM      5  C   UNL     1      -0.427  10.879  21.925  0.00  0.00    +0.000 A 
ATOM      6  C   UNL     1      -1.019  11.982  22.553  0.00  0.00    +0.000 A 
ATOM      7  C   UNL     1      -1.497  13.035  21.790  0.00  0.00    +0.000 A 
ATOM      8  C   UNL     1      -1.473  12.935  20.404  0.00  0.00    +0.000 A 
ATOM      9  C   UNL     1      -0.930  11.805  19.780  0.00  0.00    +0.000 A 
ATOM     10  C   UNL     1      -0.329  10.769  20.521  0.00  0.00    +0.000 A 
ATOM     11  N   UNL     1       0.379   9.672  19.938  0.00  0.00    +0.000 N 
ENDROOT
BRANCH   1  13
ATOM     12  C   UNL     1       1.767   6.436  20.669  0.00  0.00    +0.000 C 
ATOM     13  C   UNL     1       1.867   7.704  20.249  0.00  0.00    +0.000 C 
BRANCH  12  14
ATOM     14  C   UNL     1       2.558   5.327  20.068  0.00  0.00    +0.000 C 
BRANCH  14  15
ATOM     15  C   UNL     1       2.201   3.993  20.699  0.00  0.00    +0.000 C 
BRANCH  15  16
ATOM     16  C   UNL     1       0.821   3.561  20.229  0.00  0.00    +0.000 C 
BRANCH  16  17
ATOM     17  C   UNL     1       0.950   2.740  18.958  0.00  0.00    +0.000 C 
BRANCH  17  18
ATOM     18  C   UNL     1       2.378   2.262  18.786  0.00  0.00    +0.000 C 
BRANCH  18  19
ATOM     19  C   UNL     1       2.912   2.704  17.434  0.00  0.00    +0.000 C 
BRANCH  19  20
ATOM     20  C   UNL     1       4.229   3.443  17.606  0.00  0.00    +0.000 C 
BRANCH  20  21
ATOM     21  C   UNL     1       4.694   4.008  16.272  0.00  0.00    +0.000 C 
BRANCH  21  23
ATOM     22  C   UNL     1       4.363   6.313  17.181  0.00  0.00    +0.000 C 
ATOM     23  C   UNL     1       5.320   5.384  16.459  0.00  0.00    +0.000 C 
ENDBRANCH  21  23
ENDBRANCH  20  21
ENDBRANCH  19  20
ENDBRANCH  18  19
ENDBRANCH  17  18
ENDBRANCH  16  17
ENDBRANCH  15  16
ENDBRANCH  14  15
ENDBRANCH  12  14
ENDBRANCH   1  13
BRANCH  11  24
ATOM     24  C   UNL     1       0.505   9.647  18.459  0.00  0.00    +0.000 C 
BRANCH  24  25
ATOM     25  C   UNL     1       1.910   9.994  17.950  0.00  0.00    +0.000 C 
ATOM     26  C   UNL     1       2.288  11.463  18.027  0.00  0.00    +0.000 C 
ENDBRANCH  24  25
ENDBRANCH  11  24
TORSDOF 12
ENDMDL
