MODEL 1
REMARK VINA RESULT:      -8.0      0.000      0.000
REMARK  Name = 
REMARK  5 active torsions:
REMARK  status: ('A' for Active; 'I' for Inactive)
REMARK    1  A    between atoms: C_1  and  C_2
REMARK    2  A    between atoms: C_7  and  N_8
REMARK    3  A    between atoms: C_15  and  C_16
REMARK    4  A    between atoms: C_16  and  C_17
REMARK    5  A    between atoms: C_20  and  N_21
REMARK                            x       y       z     vdW  Elec       q    Type
REMARK                         _______ _______ _______ _____ _____    ______ ____
ROOT
ATOM      1  N   UNL     1       4.012   5.852  17.801  0.00  0.00    +0.000 N 
ATOM      2  C   UNL     1       3.763   5.479  19.102  0.00  0.00    +0.000 C 
ATOM      3  O   UNL     1       4.283   4.539  19.700  0.00  0.00    +0.000 OA
ATOM      4  N   UNL     1       2.890   6.264  19.811  0.00  0.00    +0.000 N 
ATOM      5  C   UNL     1       2.254   7.353  19.301  0.00  0.00    +0.000 A 
ATOM      6  N   UNL     1       2.161   7.705  18.041  0.00  0.00    +0.000 NA
ATOM      7  N   UNL     1       1.586   8.939  17.898  0.00  0.00    +0.000 NA
ATOM      8  C   UNL     1       1.278   9.474  19.063  0.00  0.00    +0.000 A 
ATOM      9  S   UNL     1       1.560   8.436  20.413  0.00  0.00    +0.000 S 
ATOM     10  H   UNL     1       3.373   6.534  17.411  0.00  0.00    +0.000 HD
ATOM     11  H   UNL     1       2.825   6.068  20.799  0.00  0.00    +0.000 HD
ENDROOT
BRANCH   1  18
ATOM     12  C   UNL     1       6.521   7.358  17.517  0.00  0.00    +0.000 C 
ATOM     13  C   UNL     1       6.213   6.086  16.770  0.00  0.00    +0.000 A 
ATOM     14  C   UNL     1       7.201   5.584  15.902  0.00  0.00    +0.000 A 
ATOM     15  C   UNL     1       7.002   4.398  15.197  0.00  0.00    +0.000 A 
ATOM     16  C   UNL     1       5.823   3.686  15.366  0.00  0.00    +0.000 A 
ATOM     17  C   UNL     1       4.836   4.163  16.227  0.00  0.00    +0.000 A 
ATOM     18  C   UNL     1       5.006   5.367  16.923  0.00  0.00    +0.000 A 
ENDBRANCH   1  18
BRANCH   8  19
ATOM     19  C   UNL     1       0.799  10.875  19.225  0.00  0.00    +0.000 C 
BRANCH  19  20
ATOM     20  C   UNL     1      -0.657  11.068  18.877  0.00  0.00    +0.000 A 
ATOM     21  C   UNL     1      -1.244  10.282  17.875  0.00  0.00    +0.000 A 
ATOM     22  C   UNL     1      -2.605  10.403  17.586  0.00  0.00    +0.000 A 
ATOM     23  C   UNL     1      -3.386  11.320  18.301  0.00  0.00    +0.000 A 
ATOM     24  C   UNL     1      -2.813  12.119  19.297  0.00  0.00    +0.000 A 
ATOM     25  C   UNL     1      -1.452  11.988  19.582  0.00  0.00    +0.000 A 
BRANCH  23  26
ATOM     26  N   UNL     1      -4.821  11.425  18.017  0.00  0.00    +0.000 N 
ATOM     27  O   UNL     1      -5.607  11.258  18.962  0.00  0.00    +0.000 OA
ATOM     28  O   UNL     1      -5.164  11.678  16.854  0.00  0.00    +0.000 OA
ENDBRANCH  23  26
ENDBRANCH  19  20
ENDBRANCH   8  19
TORSDOF 4
ENDMDL
MODEL 2
REMARK VINA RESULT:      -7.9      0.370      1.109
REMARK  Name = 
REMARK  5 active torsions:
REMARK  status: ('A' for Active; 'I' for Inactive)
REMARK    1  A    between atoms: C_1  and  C_2
REMARK    2  A    between atoms: C_7  and  N_8
REMARK    3  A    between atoms: C_15  and  C_16
REMARK    4  A    between atoms: C_16  and  C_17
REMARK    5  A    between atoms: C_20  and  N_21
REMARK                            x       y       z     vdW  Elec       q    Type
REMARK                         _______ _______ _______ _____ _____    ______ ____
ROOT
ATOM      1  N   UNL     1       3.991   5.901  17.787  0.00  0.00    +0.000 N 
ATOM      2  C   UNL     1       3.735   5.550  19.093  0.00  0.00    +0.000 C 
ATOM      3  O   UNL     1       4.247   4.616  19.707  0.00  0.00    +0.000 OA
ATOM      4  N   UNL     1       2.864   6.350  19.786  0.00  0.00    +0.000 N 
ATOM      5  C   UNL     1       2.235   7.434  19.257  0.00  0.00    +0.000 A 
ATOM      6  N   UNL     1       2.149   7.768  17.992  0.00  0.00    +0.000 NA
ATOM      7  N   UNL     1       1.582   9.002  17.828  0.00  0.00    +0.000 NA
ATOM      8  C   UNL     1       1.272   9.557  18.983  0.00  0.00    +0.000 A 
ATOM      9  S   UNL     1       1.544   8.539  20.350  0.00  0.00    +0.000 S 
ATOM     10  H   UNL     1       3.357   6.581  17.384  0.00  0.00    +0.000 HD
ATOM     11  H   UNL     1       2.794   6.169  20.777  0.00  0.00    +0.000 HD
ENDROOT
BRANCH   1  18
ATOM     12  C   UNL     1       6.519   7.375  17.510  0.00  0.00    +0.000 C 
ATOM     13  C   UNL     1       6.202   6.100  16.770  0.00  0.00    +0.000 A 
ATOM     14  C   UNL     1       7.190   5.580  15.914  0.00  0.00    +0.000 A 
ATOM     15  C   UNL     1       6.982   4.391  15.217  0.00  0.00    +0.000 A 
ATOM     16  C   UNL     1       5.793   3.694  15.383  0.00  0.00    +0.000 A 
ATOM     17  C   UNL     1       4.805   4.190  16.233  0.00  0.00    +0.000 A 
ATOM     18  C   UNL     1       4.985   5.397  16.920  0.00  0.00    +0.000 A 
ENDBRANCH   1  18
BRANCH   8  19
ATOM     19  C   UNL     1       0.800  10.963  19.121  0.00  0.00    +0.000 C 
BRANCH  19  20
ATOM     20  C   UNL     1      -0.689  11.130  18.940  0.00  0.00    +0.000 A 
ATOM     21  C   UNL     1      -1.389  12.048  19.736  0.00  0.00    +0.000 A 
ATOM     22  C   UNL     1      -2.755  12.262  19.536  0.00  0.00    +0.000 A 
ATOM     23  C   UNL     1      -3.428  11.549  18.536  0.00  0.00    +0.000 A 
ATOM     24  C   UNL     1      -2.746  10.621  17.740  0.00  0.00    +0.000 A 
ATOM     25  C   UNL     1      -1.379  10.418  17.944  0.00  0.00    +0.000 A 
BRANCH  23  26
ATOM     26  N   UNL     1      -4.856  11.796  18.308  0.00  0.00    +0.000 N 
ATOM     27  O   UNL     1      -5.432  11.090  17.466  0.00  0.00    +0.000 OA
ATOM     28  O   UNL     1      -5.402  12.689  18.969  0.00  0.00    +0.000 OA
ENDBRANCH  23  26
ENDBRANCH  19  20
ENDBRANCH   8  19
TORSDOF 4
ENDMDL
MODEL 3
REMARK VINA RESULT:      -7.9      0.574      1.538
REMARK  Name = 
REMARK  5 active torsions:
REMARK  status: ('A' for Active; 'I' for Inactive)
REMARK    1  A    between atoms: C_1  and  C_2
REMARK    2  A    between atoms: C_7  and  N_8
REMARK    3  A    between atoms: C_15  and  C_16
REMARK    4  A    between atoms: C_16  and  C_17
REMARK    5  A    between atoms: C_20  and  N_21
REMARK                            x       y       z     vdW  Elec       q    Type
REMARK                         _______ _______ _______ _____ _____    ______ ____
ROOT
ATOM      1  N   UNL     1       3.847   6.086  18.139  0.00  0.00    +0.000 N 
ATOM      2  C   UNL     1       3.545   5.767  19.442  0.00  0.00    +0.000 C 
ATOM      3  O   UNL     1       4.062   4.873  20.110  0.00  0.00    +0.000 OA
ATOM      4  N   UNL     1       2.615   6.555  20.069  0.00  0.00    +0.000 N 
ATOM      5  C   UNL     1       1.972   7.598  19.477  0.00  0.00    +0.000 A 
ATOM      6  N   UNL     1       1.931   7.888  18.198  0.00  0.00    +0.000 NA
ATOM      7  N   UNL     1       1.328   9.094  17.968  0.00  0.00    +0.000 NA
ATOM      8  C   UNL     1       0.947   9.673  19.089  0.00  0.00    +0.000 A 
ATOM      9  S   UNL     1       1.192   8.710  20.500  0.00  0.00    +0.000 S 
ATOM     10  H   UNL     1       3.208   6.728  17.685  0.00  0.00    +0.000 HD
ATOM     11  H   UNL     1       2.506   6.404  21.062  0.00  0.00    +0.000 HD
ENDROOT
BRANCH   1  18
ATOM     12  C   UNL     1       3.551   3.451  16.868  0.00  0.00    +0.000 C 
ATOM     13  C   UNL     1       4.772   4.323  16.724  0.00  0.00    +0.000 A 
ATOM     14  C   UNL     1       5.820   3.849  15.913  0.00  0.00    +0.000 A 
ATOM     15  C   UNL     1       6.970   4.611  15.709  0.00  0.00    +0.000 A 
ATOM     16  C   UNL     1       7.079   5.864  16.294  0.00  0.00    +0.000 A 
ATOM     17  C   UNL     1       6.049   6.354  17.095  0.00  0.00    +0.000 A 
ATOM     18  C   UNL     1       4.897   5.592  17.334  0.00  0.00    +0.000 A 
ENDBRANCH   1  18
BRANCH   8  19
ATOM     19  C   UNL     1       0.419  11.064  19.160  0.00  0.00    +0.000 C 
BRANCH  19  20
ATOM     20  C   UNL     1      -1.040  11.185  18.790  0.00  0.00    +0.000 A 
ATOM     21  C   UNL     1      -1.593  10.311  17.843  0.00  0.00    +0.000 A 
ATOM     22  C   UNL     1      -2.955  10.366  17.538  0.00  0.00    +0.000 A 
ATOM     23  C   UNL     1      -3.770  11.306  18.180  0.00  0.00    +0.000 A 
ATOM     24  C   UNL     1      -3.232  12.193  19.120  0.00  0.00    +0.000 A 
ATOM     25  C   UNL     1      -1.870  12.126  19.423  0.00  0.00    +0.000 A 
BRANCH  23  26
ATOM     26  N   UNL     1      -5.206  11.345  17.881  0.00  0.00    +0.000 N 
ATOM     27  O   UNL     1      -5.594  12.164  17.035  0.00  0.00    +0.000 OA
ATOM     28  O   UNL     1      -5.944  10.556  18.486  0.00  0.00    +0.000 OA
ENDBRANCH  23  26
ENDBRANCH  19  20
ENDBRANCH   8  19
TORSDOF 4
ENDMDL
MODEL 4
REMARK VINA RESULT:      -7.9      3.036      9.258
REMARK  Name = 
REMARK  5 active torsions:
REMARK  status: ('A' for Active; 'I' for Inactive)
REMARK    1  A    between atoms: C_1  and  C_2
REMARK    2  A    between atoms: C_7  and  N_8
REMARK    3  A    between atoms: C_15  and  C_16
REMARK    4  A    between atoms: C_16  and  C_17
REMARK    5  A    between atoms: C_20  and  N_21
REMARK                            x       y       z     vdW  Elec       q    Type
REMARK                         _______ _______ _______ _____ _____    ______ ____
ROOT
ATOM      1  N   UNL     1       1.021   9.162  19.287  0.00  0.00    +0.000 N 
ATOM      2  C   UNL     1       1.114   8.635  20.554  0.00  0.00    +0.000 C 
ATOM      3  O   UNL     1       0.532   9.047  21.556  0.00  0.00    +0.000 OA
ATOM      4  N   UNL     1       1.888   7.513  20.699  0.00  0.00    +0.000 N 
ATOM      5  C   UNL     1       2.574   6.920  19.684  0.00  0.00    +0.000 A 
ATOM      6  N   UNL     1       2.817   7.410  18.492  0.00  0.00    +0.000 NA
ATOM      7  N   UNL     1       3.395   6.484  17.668  0.00  0.00    +0.000 NA
ATOM      8  C   UNL     1       3.556   5.323  18.273  0.00  0.00    +0.000 A 
ATOM      9  S   UNL     1       3.120   5.331  19.942  0.00  0.00    +0.000 S 
ATOM     10  H   UNL     1       1.698   8.814  18.617  0.00  0.00    +0.000 HD
ATOM     11  H   UNL     1       1.835   7.054  21.597  0.00  0.00    +0.000 HD
ENDROOT
BRANCH   1  18
ATOM     12  C   UNL     1       1.632  11.980  19.862  0.00  0.00    +0.000 C 
ATOM     13  C   UNL     1       0.421  11.521  19.089  0.00  0.00    +0.000 A 
ATOM     14  C   UNL     1      -0.453  12.509  18.599  0.00  0.00    +0.000 A 
ATOM     15  C   UNL     1      -1.579  12.164  17.852  0.00  0.00    +0.000 A 
ATOM     16  C   UNL     1      -1.835  10.831  17.567  0.00  0.00    +0.000 A 
ATOM     17  C   UNL     1      -0.976   9.838  18.038  0.00  0.00    +0.000 A 
ATOM     18  C   UNL     1       0.145  10.162  18.812  0.00  0.00    +0.000 A 
ENDBRANCH   1  18
BRANCH   8  19
ATOM     19  C   UNL     1       4.001   4.086  17.574  0.00  0.00    +0.000 C 
BRANCH  19  20
ATOM     20  C   UNL     1       5.018   4.329  16.485  0.00  0.00    +0.000 A 
ATOM     21  C   UNL     1       4.706   4.007  15.156  0.00  0.00    +0.000 A 
ATOM     22  C   UNL     1       5.609   4.287  14.128  0.00  0.00    +0.000 A 
ATOM     23  C   UNL     1       6.836   4.889  14.430  0.00  0.00    +0.000 A 
ATOM     24  C   UNL     1       7.168   5.207  15.752  0.00  0.00    +0.000 A 
ATOM     25  C   UNL     1       6.256   4.929  16.774  0.00  0.00    +0.000 A 
BRANCH  23  26
ATOM     26  N   UNL     1       7.773   5.209  13.347  0.00  0.00    +0.000 N 
ATOM     27  O   UNL     1       8.739   5.936  13.620  0.00  0.00    +0.000 OA
ATOM     28  O   UNL     1       7.546   4.732  12.227  0.00  0.00    +0.000 OA
ENDBRANCH  23  26
ENDBRANCH  19  20
ENDBRANCH   8  19
TORSDOF 4
ENDMDL
MODEL 5
REMARK VINA RESULT:      -7.8      0.727      1.802
REMARK  Name = 
REMARK  5 active torsions:
REMARK  status: ('A' for Active; 'I' for Inactive)
REMARK    1  A    between atoms: C_1  and  C_2
REMARK    2  A    between atoms: C_7  and  N_8
REMARK    3  A    between atoms: C_15  and  C_16
REMARK    4  A    between atoms: C_16  and  C_17
REMARK    5  A    between atoms: C_20  and  N_21
REMARK                            x       y       z     vdW  Elec       q    Type
REMARK                         _______ _______ _______ _____ _____    ______ ____
ROOT
ATOM      1  N   UNL     1       3.847   6.206  18.104  0.00  0.00    +0.000 N 
ATOM      2  C   UNL     1       3.493   5.897  19.397  0.00  0.00    +0.000 C 
ATOM      3  O   UNL     1       3.970   4.995  20.084  0.00  0.00    +0.000 OA
ATOM      4  N   UNL     1       2.556   6.703  19.988  0.00  0.00    +0.000 N 
ATOM      5  C   UNL     1       1.953   7.756  19.372  0.00  0.00    +0.000 A 
ATOM      6  N   UNL     1       1.963   8.043  18.092  0.00  0.00    +0.000 NA
ATOM      7  N   UNL     1       1.391   9.259  17.838  0.00  0.00    +0.000 NA
ATOM      8  C   UNL     1       0.980   9.848  18.944  0.00  0.00    +0.000 A 
ATOM      9  S   UNL     1       1.158   8.884  20.364  0.00  0.00    +0.000 S 
ATOM     10  H   UNL     1       3.236   6.859  17.627  0.00  0.00    +0.000 HD
ATOM     11  H   UNL     1       2.409   6.556  20.977  0.00  0.00    +0.000 HD
ENDROOT
BRANCH   1  18
ATOM     12  C   UNL     1       3.525   3.604  16.774  0.00  0.00    +0.000 C 
ATOM     13  C   UNL     1       4.779   4.438  16.701  0.00  0.00    +0.000 A 
ATOM     14  C   UNL     1       5.846   3.943  15.929  0.00  0.00    +0.000 A 
ATOM     15  C   UNL     1       7.028   4.670  15.790  0.00  0.00    +0.000 A 
ATOM     16  C   UNL     1       7.151   5.909  16.402  0.00  0.00    +0.000 A 
ATOM     17  C   UNL     1       6.101   6.419  17.165  0.00  0.00    +0.000 A 
ATOM     18  C   UNL     1       4.917   5.692  17.338  0.00  0.00    +0.000 A 
ENDBRANCH   1  18
BRANCH   8  19
ATOM     19  C   UNL     1       0.475  11.248  18.992  0.00  0.00    +0.000 C 
BRANCH  19  20
ATOM     20  C   UNL     1      -1.028  11.361  18.908  0.00  0.00    +0.000 A 
ATOM     21  C   UNL     1      -1.709  12.239  19.763  0.00  0.00    +0.000 A 
ATOM     22  C   UNL     1      -3.092  12.404  19.654  0.00  0.00    +0.000 A 
ATOM     23  C   UNL     1      -3.801  11.681  18.686  0.00  0.00    +0.000 A 
ATOM     24  C   UNL     1      -3.137  10.792  17.832  0.00  0.00    +0.000 A 
ATOM     25  C   UNL     1      -1.753  10.638  17.945  0.00  0.00    +0.000 A 
BRANCH  23  26
ATOM     26  N   UNL     1      -5.249  11.876  18.553  0.00  0.00    +0.000 N 
ATOM     27  O   UNL     1      -5.933  10.892  18.234  0.00  0.00    +0.000 OA
ATOM     28  O   UNL     1      -5.702  13.008  18.768  0.00  0.00    +0.000 OA
ENDBRANCH  23  26
ENDBRANCH  19  20
ENDBRANCH   8  19
TORSDOF 4
ENDMDL
MODEL 6
REMARK VINA RESULT:      -7.7      2.286      3.067
REMARK  Name = 
REMARK  5 active torsions:
REMARK  status: ('A' for Active; 'I' for Inactive)
REMARK    1  A    between atoms: C_1  and  C_2
REMARK    2  A    between atoms: C_7  and  N_8
REMARK    3  A    between atoms: C_15  and  C_16
REMARK    4  A    between atoms: C_16  and  C_17
REMARK    5  A    between atoms: C_20  and  N_21
REMARK                            x       y       z     vdW  Elec       q    Type
REMARK                         _______ _______ _______ _____ _____    ______ ____
ROOT
ATOM      1  N   UNL     1       2.965   6.412  18.844  0.00  0.00    +0.000 N 
ATOM      2  C   UNL     1       2.627   5.938  20.090  0.00  0.00    +0.000 C 
ATOM      3  O   UNL     1       2.949   4.851  20.566  0.00  0.00    +0.000 OA
ATOM      4  N   UNL     1       1.905   6.782  20.894  0.00  0.00    +0.000 N 
ATOM      5  C   UNL     1       1.495   8.026  20.526  0.00  0.00    +0.000 A 
ATOM      6  N   UNL     1       1.492   8.540  19.319  0.00  0.00    +0.000 NA
ATOM      7  N   UNL     1       1.164   9.868  19.332  0.00  0.00    +0.000 NA
ATOM      8  C   UNL     1       0.941  10.306  20.555  0.00  0.00    +0.000 A 
ATOM      9  S   UNL     1       0.999   9.078  21.766  0.00  0.00    +0.000 S 
ATOM     10  H   UNL     1       2.473   7.246  18.543  0.00  0.00    +0.000 HD
ATOM     11  H   UNL     1       1.786   6.483  21.852  0.00  0.00    +0.000 HD
ENDROOT
BRANCH   1  18
ATOM     12  C   UNL     1       2.245   3.905  17.487  0.00  0.00    +0.000 C 
ATOM     13  C   UNL     1       3.536   4.649  17.254  0.00  0.00    +0.000 A 
ATOM     14  C   UNL     1       4.435   4.114  16.312  0.00  0.00    +0.000 A 
ATOM     15  C   UNL     1       5.637   4.759  16.022  0.00  0.00    +0.000 A 
ATOM     16  C   UNL     1       5.946   5.956  16.651  0.00  0.00    +0.000 A 
ATOM     17  C   UNL     1       5.064   6.505  17.582  0.00  0.00    +0.000 A 
ATOM     18  C   UNL     1       3.865   5.858  17.907  0.00  0.00    +0.000 A 
ENDBRANCH   1  18
BRANCH   8  19
ATOM     19  C   UNL     1       0.733  11.742  20.890  0.00  0.00    +0.000 C 
BRANCH  19  20
ATOM     20  C   UNL     1      -0.672  12.069  21.337  0.00  0.00    +0.000 A 
ATOM     21  C   UNL     1      -1.649  12.388  20.383  0.00  0.00    +0.000 A 
ATOM     22  C   UNL     1      -2.968  12.629  20.774  0.00  0.00    +0.000 A 
ATOM     23  C   UNL     1      -3.313  12.555  22.129  0.00  0.00    +0.000 A 
ATOM     24  C   UNL     1      -2.347  12.248  23.095  0.00  0.00    +0.000 A 
ATOM     25  C   UNL     1      -1.031  12.004  22.694  0.00  0.00    +0.000 A 
BRANCH  23  26
ATOM     26  N   UNL     1      -4.705  12.779  22.536  0.00  0.00    +0.000 N 
ATOM     27  O   UNL     1      -4.903  13.482  23.538  0.00  0.00    +0.000 OA
ATOM     28  O   UNL     1      -5.598  12.258  21.855  0.00  0.00    +0.000 OA
ENDBRANCH  23  26
ENDBRANCH  19  20
ENDBRANCH   8  19
TORSDOF 4
ENDMDL
MODEL 7
REMARK VINA RESULT:      -7.6      0.987      1.575
REMARK  Name = 
REMARK  5 active torsions:
REMARK  status: ('A' for Active; 'I' for Inactive)
REMARK    1  A    between atoms: C_1  and  C_2
REMARK    2  A    between atoms: C_7  and  N_8
REMARK    3  A    between atoms: C_15  and  C_16
REMARK    4  A    between atoms: C_16  and  C_17
REMARK    5  A    between atoms: C_20  and  N_21
REMARK                            x       y       z     vdW  Elec       q    Type
REMARK                         _______ _______ _______ _____ _____    ______ ____
ROOT
ATOM      1  N   UNL     1       4.065   5.890  18.809  0.00  0.00    +0.000 N 
ATOM      2  C   UNL     1       3.360   5.443  19.902  0.00  0.00    +0.000 C 
ATOM      3  O   UNL     1       3.617   4.445  20.574  0.00  0.00    +0.000 OA
ATOM      4  N   UNL     1       2.302   6.214  20.310  0.00  0.00    +0.000 N 
ATOM      5  C   UNL     1       1.906   7.359  19.690  0.00  0.00    +0.000 A 
ATOM      6  N   UNL     1       2.276   7.797  18.511  0.00  0.00    +0.000 NA
ATOM      7  N   UNL     1       1.809   9.059  18.266  0.00  0.00    +0.000 NA
ATOM      8  C   UNL     1       1.111   9.528  19.281  0.00  0.00    +0.000 A 
ATOM      9  S   UNL     1       0.875   8.394  20.560  0.00  0.00    +0.000 S 
ATOM     10  H   UNL     1       3.618   6.622  18.269  0.00  0.00    +0.000 HD
ATOM     11  H   UNL     1       1.883   5.956  21.192  0.00  0.00    +0.000 HD
ENDROOT
BRANCH   1  18
ATOM     12  C   UNL     1       4.087   4.236  16.378  0.00  0.00    +0.000 C 
ATOM     13  C   UNL     1       5.326   4.621  17.147  0.00  0.00    +0.000 A 
ATOM     14  C   UNL     1       6.565   4.175  16.651  0.00  0.00    +0.000 A 
ATOM     15  C   UNL     1       7.757   4.513  17.291  0.00  0.00    +0.000 A 
ATOM     16  C   UNL     1       7.728   5.318  18.420  0.00  0.00    +0.000 A 
ATOM     17  C   UNL     1       6.510   5.775  18.922  0.00  0.00    +0.000 A 
ATOM     18  C   UNL     1       5.301   5.424  18.309  0.00  0.00    +0.000 A 
ENDBRANCH   1  18
BRANCH   8  19
ATOM     19  C   UNL     1       0.625  10.934  19.367  0.00  0.00    +0.000 C 
BRANCH  19  20
ATOM     20  C   UNL     1      -0.813  11.112  18.944  0.00  0.00    +0.000 A 
ATOM     21  C   UNL     1      -1.334  10.329  17.904  0.00  0.00    +0.000 A 
ATOM     22  C   UNL     1      -2.680  10.434  17.544  0.00  0.00    +0.000 A 
ATOM     23  C   UNL     1      -3.510  11.334  18.224  0.00  0.00    +0.000 A 
ATOM     24  C   UNL     1      -3.002  12.130  19.257  0.00  0.00    +0.000 A 
ATOM     25  C   UNL     1      -1.657  12.014  19.614  0.00  0.00    +0.000 A 
BRANCH  23  26
ATOM     26  N   UNL     1      -4.930  11.424  17.865  0.00  0.00    +0.000 N 
ATOM     27  O   UNL     1      -5.716  10.655  18.437  0.00  0.00    +0.000 OA
ATOM     28  O   UNL     1      -5.259  12.262  17.016  0.00  0.00    +0.000 OA
ENDBRANCH  23  26
ENDBRANCH  19  20
ENDBRANCH   8  19
TORSDOF 4
ENDMDL
MODEL 8
REMARK VINA RESULT:      -7.5      2.148      2.982
REMARK  Name = 
REMARK  5 active torsions:
REMARK  status: ('A' for Active; 'I' for Inactive)
REMARK    1  A    between atoms: C_1  and  C_2
REMARK    2  A    between atoms: C_7  and  N_8
REMARK    3  A    between atoms: C_15  and  C_16
REMARK    4  A    between atoms: C_16  and  C_17
REMARK    5  A    between atoms: C_20  and  N_21
REMARK                            x       y       z     vdW  Elec       q    Type
REMARK                         _______ _______ _______ _____ _____    ______ ____
ROOT
ATOM      1  N   UNL     1       3.624   6.279  18.327  0.00  0.00    +0.000 N 
ATOM      2  C   UNL     1       3.165   5.883  19.562  0.00  0.00    +0.000 C 
ATOM      3  O   UNL     1       3.499   4.867  20.170  0.00  0.00    +0.000 OA
ATOM      4  N   UNL     1       2.291   6.729  20.194  0.00  0.00    +0.000 N 
ATOM      5  C   UNL     1       1.845   7.902  19.667  0.00  0.00    +0.000 A 
ATOM      6  N   UNL     1       1.959   8.313  18.427  0.00  0.00    +0.000 NA
ATOM      7  N   UNL     1       1.540   9.607  18.279  0.00  0.00    +0.000 NA
ATOM      8  C   UNL     1       1.135  10.125  19.422  0.00  0.00    +0.000 A 
ATOM      9  S   UNL     1       1.124   9.008  20.738  0.00  0.00    +0.000 S 
ATOM     10  H   UNL     1       3.117   7.043  17.895  0.00  0.00    +0.000 HD
ATOM     11  H   UNL     1       2.073   6.501  21.154  0.00  0.00    +0.000 HD
ENDROOT
BRANCH   1  18
ATOM     12  C   UNL     1       3.173   3.728  16.937  0.00  0.00    +0.000 C 
ATOM     13  C   UNL     1       4.471   4.493  16.893  0.00  0.00    +0.000 A 
ATOM     14  C   UNL     1       5.518   3.958  16.119  0.00  0.00    +0.000 A 
ATOM     15  C   UNL     1       6.739   4.622  16.007  0.00  0.00    +0.000 A 
ATOM     16  C   UNL     1       6.923   5.839  16.648  0.00  0.00    +0.000 A 
ATOM     17  C   UNL     1       5.895   6.388  17.412  0.00  0.00    +0.000 A 
ATOM     18  C   UNL     1       4.671   5.723  17.559  0.00  0.00    +0.000 A 
ENDBRANCH   1  18
BRANCH   8  19
ATOM     19  C   UNL     1       0.787  11.562  19.598  0.00  0.00    +0.000 C 
BRANCH  19  20
ATOM     20  C   UNL     1      -0.414  11.798  20.482  0.00  0.00    +0.000 A 
ATOM     21  C   UNL     1      -0.257  11.829  21.875  0.00  0.00    +0.000 A 
ATOM     22  C   UNL     1      -1.345  12.111  22.704  0.00  0.00    +0.000 A 
ATOM     23  C   UNL     1      -2.601  12.358  22.138  0.00  0.00    +0.000 A 
ATOM     24  C   UNL     1      -2.777  12.320  20.749  0.00  0.00    +0.000 A 
ATOM     25  C   UNL     1      -1.682  12.043  19.928  0.00  0.00    +0.000 A 
BRANCH  23  26
ATOM     26  N   UNL     1      -3.738  12.682  23.007  0.00  0.00    +0.000 N 
ATOM     27  O   UNL     1      -4.875  12.430  22.583  0.00  0.00    +0.000 OA
ATOM     28  O   UNL     1      -3.495  13.186  24.113  0.00  0.00    +0.000 OA
ENDBRANCH  23  26
ENDBRANCH  19  20
ENDBRANCH   8  19
TORSDOF 4
ENDMDL
MODEL 9
REMARK VINA RESULT:      -7.5      0.857      1.008
REMARK  Name = 
REMARK  5 active torsions:
REMARK  status: ('A' for Active; 'I' for Inactive)
REMARK    1  A    between atoms: C_1  and  C_2
REMARK    2  A    between atoms: C_7  and  N_8
REMARK    3  A    between atoms: C_15  and  C_16
REMARK    4  A    between atoms: C_16  and  C_17
REMARK    5  A    between atoms: C_20  and  N_21
REMARK                            x       y       z     vdW  Elec       q    Type
REMARK                         _______ _______ _______ _____ _____    ______ ____
ROOT
ATOM      1  N   UNL     1       3.823   6.091  17.788  0.00  0.00    +0.000 N 
ATOM      2  C   UNL     1       3.418   5.793  19.069  0.00  0.00    +0.000 C 
ATOM      3  O   UNL     1       3.774   4.822  19.735  0.00  0.00    +0.000 OA
ATOM      4  N   UNL     1       2.579   6.691  19.674  0.00  0.00    +0.000 N 
ATOM      5  C   UNL     1       2.117   7.826  19.082  0.00  0.00    +0.000 A 
ATOM      6  N   UNL     1       2.177   8.143  17.811  0.00  0.00    +0.000 NA
ATOM      7  N   UNL     1       1.759   9.427  17.586  0.00  0.00    +0.000 NA
ATOM      8  C   UNL     1       1.410  10.031  18.705  0.00  0.00    +0.000 A 
ATOM      9  S   UNL     1       1.452   9.016  20.099  0.00  0.00    +0.000 S 
ATOM     10  H   UNL     1       3.302   6.826  17.324  0.00  0.00    +0.000 HD
ATOM     11  H   UNL     1       2.404   6.537  20.657  0.00  0.00    +0.000 HD
ENDROOT
BRANCH   1  18
ATOM     12  C   UNL     1       6.419   7.438  17.489  0.00  0.00    +0.000 C 
ATOM     13  C   UNL     1       6.081   6.111  16.858  0.00  0.00    +0.000 A 
ATOM     14  C   UNL     1       7.081   5.476  16.099  0.00  0.00    +0.000 A 
ATOM     15  C   UNL     1       6.853   4.235  15.506  0.00  0.00    +0.000 A 
ATOM     16  C   UNL     1       5.631   3.602  15.683  0.00  0.00    +0.000 A 
ATOM     17  C   UNL     1       4.630   4.212  16.437  0.00  0.00    +0.000 A 
ATOM     18  C   UNL     1       4.831   5.471  17.017  0.00  0.00    +0.000 A 
ENDBRANCH   1  18
BRANCH   8  19
ATOM     19  C   UNL     1       1.079  11.481  18.788  0.00  0.00    +0.000 C 
BRANCH  19  20
ATOM     20  C   UNL     1      -0.391  11.763  18.992  0.00  0.00    +0.000 A 
ATOM     21  C   UNL     1      -1.338  11.153  18.157  0.00  0.00    +0.000 A 
ATOM     22  C   UNL     1      -2.704  11.351  18.373  0.00  0.00    +0.000 A 
ATOM     23  C   UNL     1      -3.126  12.169  19.428  0.00  0.00    +0.000 A 
ATOM     24  C   UNL     1      -2.193  12.793  20.264  0.00  0.00    +0.000 A 
ATOM     25  C   UNL     1      -0.829  12.585  20.044  0.00  0.00    +0.000 A 
BRANCH  23  26
ATOM     26  N   UNL     1      -4.561  12.353  19.672  0.00  0.00    +0.000 N 
ATOM     27  O   UNL     1      -4.894  13.130  20.580  0.00  0.00    +0.000 OA
ATOM     28  O   UNL     1      -5.355  11.727  18.957  0.00  0.00    +0.000 OA
ENDBRANCH  23  26
ENDBRANCH  19  20
ENDBRANCH   8  19
TORSDOF 4
ENDMDL
