MODEL 1
REMARK VINA RESULT:      -8.2      0.000      0.000
REMARK  Name = 
REMARK  3 active torsions:
REMARK  status: ('A' for Active; 'I' for Inactive)
REMARK    1  A    between atoms: C_5  and  C_6
REMARK    2  A    between atoms: C_9  and  N_10
REMARK    3  A    between atoms: C_12  and  C_13
REMARK                            x       y       z     vdW  Elec       q    Type
REMARK                         _______ _______ _______ _____ _____    ______ ____
ROOT
ATOM      1  C   UNL     1       1.840   8.073  19.914  0.00  0.00    +0.000 A 
ATOM      2  C   UNL     1       2.254   6.800  20.344  0.00  0.00    +0.000 A 
ATOM      3  C   UNL     1       3.016   5.961  19.525  0.00  0.00    +0.000 A 
ATOM      4  C   UNL     1       3.378   6.374  18.240  0.00  0.00    +0.000 A 
ATOM      5  C   UNL     1       2.967   7.630  17.785  0.00  0.00    +0.000 A 
ATOM      6  C   UNL     1       2.210   8.466  18.616  0.00  0.00    +0.000 A 
ENDROOT
BRANCH   1  11
ATOM      7  F   UNL     1      -1.071  11.373  23.346  0.00  0.00    +0.000 F 
ATOM      8  C   UNL     1      -0.377  10.584  22.514  0.00  0.00    +0.000 A 
ATOM      9  C   UNL     1      -0.621  10.684  21.158  0.00  0.00    +0.000 A 
ATOM     10  C   UNL     1       0.100   9.858  20.296  0.00  0.00    +0.000 A 
ATOM     11  C   UNL     1       1.051   8.957  20.798  0.00  0.00    +0.000 A 
ATOM     12  C   UNL     1       1.207   8.955  22.188  0.00  0.00    +0.000 A 
ATOM     13  N   UNL     1       0.518   9.739  23.054  0.00  0.00    +0.000 NA
ENDBRANCH   1  11
BRANCH   4  14
ATOM     14  N   UNL     1       4.149   5.537  17.398  0.00  0.00    +0.000 N 
ATOM     15  C   UNL     1       4.526   5.758  16.095  0.00  0.00    +0.000 A 
ATOM     16  C   UNL     1       5.300   4.672  15.763  0.00  0.00    +0.000 A 
ATOM     17  N   UNL     1       5.361   3.823  16.831  0.00  0.00    +0.000 NA
ATOM     18  N   UNL     1       4.649   4.350  17.819  0.00  0.00    +0.000 NA
BRANCH  16  19
ATOM     19  C   UNL     1       6.009   4.484  14.516  0.00  0.00    +0.000 A 
ATOM     20  C   UNL     1       7.181   5.211  14.273  0.00  0.00    +0.000 A 
ATOM     21  C   UNL     1       7.847   5.096  13.050  0.00  0.00    +0.000 A 
ATOM     22  C   UNL     1       7.350   4.247  12.063  0.00  0.00    +0.000 A 
ATOM     23  C   UNL     1       6.197   3.503  12.301  0.00  0.00    +0.000 A 
ATOM     24  C   UNL     1       5.530   3.619  13.522  0.00  0.00    +0.000 A 
ENDBRANCH  16  19
ENDBRANCH   4  14
TORSDOF 3
ENDMDL
MODEL 2
REMARK VINA RESULT:      -8.1      3.365     10.223
REMARK  Name = 
REMARK  3 active torsions:
REMARK  status: ('A' for Active; 'I' for Inactive)
REMARK    1  A    between atoms: C_5  and  C_6
REMARK    2  A    between atoms: C_9  and  N_10
REMARK    3  A    between atoms: C_12  and  C_13
REMARK                            x       y       z     vdW  Elec       q    Type
REMARK                         _______ _______ _______ _____ _____    ______ ____
ROOT
ATOM      1  C   UNL     1       2.908   6.961  18.392  0.00  0.00    +0.000 A 
ATOM      2  C   UNL     1       2.472   8.209  17.915  0.00  0.00    +0.000 A 
ATOM      3  C   UNL     1       1.747   9.092  18.722  0.00  0.00    +0.000 A 
ATOM      4  C   UNL     1       1.430   8.740  20.037  0.00  0.00    +0.000 A 
ATOM      5  C   UNL     1       1.841   7.498  20.530  0.00  0.00    +0.000 A 
ATOM      6  C   UNL     1       2.572   6.624  19.715  0.00  0.00    +0.000 A 
ENDROOT
BRANCH   1  11
ATOM      7  F   UNL     1       5.925   3.605  15.110  0.00  0.00    +0.000 F 
ATOM      8  C   UNL     1       5.196   4.403  15.901  0.00  0.00    +0.000 A 
ATOM      9  C   UNL     1       4.288   3.820  16.763  0.00  0.00    +0.000 A 
ATOM     10  C   UNL     1       3.527   4.654  17.583  0.00  0.00    +0.000 A 
ATOM     11  C   UNL     1       3.690   6.047  17.533  0.00  0.00    +0.000 A 
ATOM     12  C   UNL     1       4.644   6.511  16.621  0.00  0.00    +0.000 A 
ATOM     13  N   UNL     1       5.394   5.729  15.806  0.00  0.00    +0.000 NA
ENDBRANCH   1  11
BRANCH   4  14
ATOM     14  N   UNL     1       0.697   9.621  20.868  0.00  0.00    +0.000 N 
ATOM     15  C   UNL     1      -0.378  10.408  20.532  0.00  0.00    +0.000 A 
ATOM     16  C   UNL     1      -0.744  11.023  21.705  0.00  0.00    +0.000 A 
ATOM     17  N   UNL     1       0.104  10.629  22.701  0.00  0.00    +0.000 NA
ATOM     18  N   UNL     1       0.985   9.784  22.182  0.00  0.00    +0.000 NA
BRANCH  16  19
ATOM     19  C   UNL     1      -1.889  11.888  21.889  0.00  0.00    +0.000 A 
ATOM     20  C   UNL     1      -2.447  12.032  23.167  0.00  0.00    +0.000 A 
ATOM     21  C   UNL     1      -3.592  12.810  23.358  0.00  0.00    +0.000 A 
ATOM     22  C   UNL     1      -4.185  13.455  22.275  0.00  0.00    +0.000 A 
ATOM     23  C   UNL     1      -3.627  13.337  21.004  0.00  0.00    +0.000 A 
ATOM     24  C   UNL     1      -2.484  12.558  20.812  0.00  0.00    +0.000 A 
ENDBRANCH  16  19
ENDBRANCH   4  14
TORSDOF 3
ENDMDL
MODEL 3
REMARK VINA RESULT:      -8.1      3.331     10.211
REMARK  Name = 
REMARK  3 active torsions:
REMARK  status: ('A' for Active; 'I' for Inactive)
REMARK    1  A    between atoms: C_5  and  C_6
REMARK    2  A    between atoms: C_9  and  N_10
REMARK    3  A    between atoms: C_12  and  C_13
REMARK                            x       y       z     vdW  Elec       q    Type
REMARK                         _______ _______ _______ _____ _____    ______ ____
ROOT
ATOM      1  C   UNL     1       2.964   7.025  18.382  0.00  0.00    +0.000 A 
ATOM      2  C   UNL     1       2.527   8.282  17.929  0.00  0.00    +0.000 A 
ATOM      3  C   UNL     1       1.792   9.144  18.750  0.00  0.00    +0.000 A 
ATOM      4  C   UNL     1       1.464   8.761  20.053  0.00  0.00    +0.000 A 
ATOM      5  C   UNL     1       1.876   7.510  20.522  0.00  0.00    +0.000 A 
ATOM      6  C   UNL     1       2.618   6.658  19.694  0.00  0.00    +0.000 A 
ENDROOT
BRANCH   1  11
ATOM      7  F   UNL     1       5.894   3.566  15.129  0.00  0.00    +0.000 F 
ATOM      8  C   UNL     1       5.196   4.404  15.906  0.00  0.00    +0.000 A 
ATOM      9  C   UNL     1       5.427   5.760  15.784  0.00  0.00    +0.000 A 
ATOM     10  C   UNL     1       4.702   6.629  16.599  0.00  0.00    +0.000 A 
ATOM     11  C   UNL     1       3.757   6.134  17.510  0.00  0.00    +0.000 A 
ATOM     12  C   UNL     1       3.613   4.742  17.534  0.00  0.00    +0.000 A 
ATOM     13  N   UNL     1       4.307   3.869  16.762  0.00  0.00    +0.000 NA
ENDBRANCH   1  11
BRANCH   4  14
ATOM     14  N   UNL     1       0.720   9.620  20.897  0.00  0.00    +0.000 N 
ATOM     15  C   UNL     1      -0.340  10.429  20.564  0.00  0.00    +0.000 A 
ATOM     16  C   UNL     1      -0.727  11.007  21.749  0.00  0.00    +0.000 A 
ATOM     17  N   UNL     1       0.094  10.570  22.750  0.00  0.00    +0.000 NA
ATOM     18  N   UNL     1       0.979   9.735  22.223  0.00  0.00    +0.000 NA
BRANCH  16  19
ATOM     19  C   UNL     1      -1.868  11.877  21.937  0.00  0.00    +0.000 A 
ATOM     20  C   UNL     1      -2.376  12.594  20.845  0.00  0.00    +0.000 A 
ATOM     21  C   UNL     1      -3.435  13.489  21.015  0.00  0.00    +0.000 A 
ATOM     22  C   UNL     1      -3.999  13.671  22.276  0.00  0.00    +0.000 A 
ATOM     23  C   UNL     1      -3.517  12.948  23.365  0.00  0.00    +0.000 A 
ATOM     24  C   UNL     1      -2.457  12.054  23.196  0.00  0.00    +0.000 A 
ENDBRANCH  16  19
ENDBRANCH   4  14
TORSDOF 3
ENDMDL
MODEL 4
REMARK VINA RESULT:      -8.1      0.124      1.396
REMARK  Name = 
REMARK  3 active torsions:
REMARK  status: ('A' for Active; 'I' for Inactive)
REMARK    1  A    between atoms: C_5  and  C_6
REMARK    2  A    between atoms: C_9  and  N_10
REMARK    3  A    between atoms: C_12  and  C_13
REMARK                            x       y       z     vdW  Elec       q    Type
REMARK                         _______ _______ _______ _____ _____    ______ ____
ROOT
ATOM      1  C   UNL     1       1.831   8.026  19.988  0.00  0.00    +0.000 A 
ATOM      2  C   UNL     1       2.228   8.482  18.719  0.00  0.00    +0.000 A 
ATOM      3  C   UNL     1       2.981   7.681  17.854  0.00  0.00    +0.000 A 
ATOM      4  C   UNL     1       3.366   6.396  18.244  0.00  0.00    +0.000 A 
ATOM      5  C   UNL     1       2.994   5.926  19.507  0.00  0.00    +0.000 A 
ATOM      6  C   UNL     1       2.235   6.733  20.363  0.00  0.00    +0.000 A 
ENDROOT
BRANCH   1  11
ATOM      7  F   UNL     1      -1.164  11.205  23.462  0.00  0.00    +0.000 F 
ATOM      8  C   UNL     1      -0.451  10.444  22.620  0.00  0.00    +0.000 A 
ATOM      9  C   UNL     1      -0.756  10.490  21.274  0.00  0.00    +0.000 A 
ATOM     10  C   UNL     1      -0.014   9.694  20.401  0.00  0.00    +0.000 A 
ATOM     11  C   UNL     1       1.019   8.876  20.884  0.00  0.00    +0.000 A 
ATOM     12  C   UNL     1       1.231   8.923  22.266  0.00  0.00    +0.000 A 
ATOM     13  N   UNL     1       0.524   9.679  23.142  0.00  0.00    +0.000 NA
ENDBRANCH   1  11
BRANCH   4  14
ATOM     14  N   UNL     1       4.129   5.572  17.381  0.00  0.00    +0.000 N 
ATOM     15  C   UNL     1       4.495   5.816  16.079  0.00  0.00    +0.000 A 
ATOM     16  C   UNL     1       5.264   4.735  15.722  0.00  0.00    +0.000 A 
ATOM     17  N   UNL     1       5.332   3.866  16.774  0.00  0.00    +0.000 NA
ATOM     18  N   UNL     1       4.630   4.378  17.777  0.00  0.00    +0.000 NA
BRANCH  16  19
ATOM     19  C   UNL     1       5.962   4.567  14.466  0.00  0.00    +0.000 A 
ATOM     20  C   UNL     1       5.435   3.709  13.492  0.00  0.00    +0.000 A 
ATOM     21  C   UNL     1       6.124   3.480  12.299  0.00  0.00    +0.000 A 
ATOM     22  C   UNL     1       7.343   4.112  12.066  0.00  0.00    +0.000 A 
ATOM     23  C   UNL     1       7.868   4.985  13.017  0.00  0.00    +0.000 A 
ATOM     24  C   UNL     1       7.180   5.212  14.211  0.00  0.00    +0.000 A 
ENDBRANCH  16  19
ENDBRANCH   4  14
TORSDOF 3
ENDMDL
MODEL 5
REMARK VINA RESULT:      -8.0      3.362     10.341
REMARK  Name = 
REMARK  3 active torsions:
REMARK  status: ('A' for Active; 'I' for Inactive)
REMARK    1  A    between atoms: C_5  and  C_6
REMARK    2  A    between atoms: C_9  and  N_10
REMARK    3  A    between atoms: C_12  and  C_13
REMARK                            x       y       z     vdW  Elec       q    Type
REMARK                         _______ _______ _______ _____ _____    ______ ____
ROOT
ATOM      1  C   UNL     1       2.595   7.219  18.770  0.00  0.00    +0.000 A 
ATOM      2  C   UNL     1       2.261   6.851  20.085  0.00  0.00    +0.000 A 
ATOM      3  C   UNL     1       1.518   7.694  20.917  0.00  0.00    +0.000 A 
ATOM      4  C   UNL     1       1.094   8.942  20.453  0.00  0.00    +0.000 A 
ATOM      5  C   UNL     1       1.425   9.336  19.153  0.00  0.00    +0.000 A 
ATOM      6  C   UNL     1       2.163   8.481  18.326  0.00  0.00    +0.000 A 
ENDROOT
BRANCH   1  11
ATOM      7  F   UNL     1       5.426   3.693  15.501  0.00  0.00    +0.000 F 
ATOM      8  C   UNL     1       4.753   4.547  16.283  0.00  0.00    +0.000 A 
ATOM      9  C   UNL     1       5.083   5.887  16.230  0.00  0.00    +0.000 A 
ATOM     10  C   UNL     1       4.382   6.772  17.048  0.00  0.00    +0.000 A 
ATOM     11  C   UNL     1       3.364   6.309  17.896  0.00  0.00    +0.000 A 
ATOM     12  C   UNL     1       3.124   4.932  17.854  0.00  0.00    +0.000 A 
ATOM     13  N   UNL     1       3.791   4.043  17.076  0.00  0.00    +0.000 NA
ENDBRANCH   1  11
BRANCH   4  14
ATOM     14  N   UNL     1       0.340   9.808  21.282  0.00  0.00    +0.000 N 
ATOM     15  C   UNL     1      -0.649  10.687  20.914  0.00  0.00    +0.000 A 
ATOM     16  C   UNL     1      -1.085  11.240  22.095  0.00  0.00    +0.000 A 
ATOM     17  N   UNL     1      -0.360  10.719  23.128  0.00  0.00    +0.000 NA
ATOM     18  N   UNL     1       0.514   9.856  22.625  0.00  0.00    +0.000 NA
BRANCH  16  19
ATOM     19  C   UNL     1      -2.189  12.164  22.243  0.00  0.00    +0.000 A 
ATOM     20  C   UNL     1      -2.931  12.167  23.432  0.00  0.00    +0.000 A 
ATOM     21  C   UNL     1      -4.041  13.004  23.573  0.00  0.00    +0.000 A 
ATOM     22  C   UNL     1      -4.414  13.850  22.531  0.00  0.00    +0.000 A 
ATOM     23  C   UNL     1      -3.670  13.872  21.352  0.00  0.00    +0.000 A 
ATOM     24  C   UNL     1      -2.562  13.034  21.209  0.00  0.00    +0.000 A 
ENDBRANCH  16  19
ENDBRANCH   4  14
TORSDOF 3
ENDMDL
MODEL 6
REMARK VINA RESULT:      -8.0      3.373     10.186
REMARK  Name = 
REMARK  3 active torsions:
REMARK  status: ('A' for Active; 'I' for Inactive)
REMARK    1  A    between atoms: C_5  and  C_6
REMARK    2  A    between atoms: C_9  and  N_10
REMARK    3  A    between atoms: C_12  and  C_13
REMARK                            x       y       z     vdW  Elec       q    Type
REMARK                         _______ _______ _______ _____ _____    ______ ____
ROOT
ATOM      1  C   UNL     1       2.923   7.028  18.395  0.00  0.00    +0.000 A 
ATOM      2  C   UNL     1       2.560   6.666  19.704  0.00  0.00    +0.000 A 
ATOM      3  C   UNL     1       1.820   7.523  20.525  0.00  0.00    +0.000 A 
ATOM      4  C   UNL     1       1.428   8.779  20.055  0.00  0.00    +0.000 A 
ATOM      5  C   UNL     1       1.788   9.167  18.761  0.00  0.00    +0.000 A 
ATOM      6  C   UNL     1       2.523   8.299  17.945  0.00  0.00    +0.000 A 
ENDROOT
BRANCH   1  11
ATOM      7  F   UNL     1       5.879   3.633  15.098  0.00  0.00    +0.000 F 
ATOM      8  C   UNL     1       5.164   4.440  15.893  0.00  0.00    +0.000 A 
ATOM      9  C   UNL     1       4.251   3.870  16.758  0.00  0.00    +0.000 A 
ATOM     10  C   UNL     1       3.505   4.714  17.581  0.00  0.00    +0.000 A 
ATOM     11  C   UNL     1       3.688   6.104  17.532  0.00  0.00    +0.000 A 
ATOM     12  C   UNL     1       4.645   6.555  16.617  0.00  0.00    +0.000 A 
ATOM     13  N   UNL     1       5.381   5.764  15.798  0.00  0.00    +0.000 NA
ENDBRANCH   1  11
BRANCH   4  14
ATOM     14  N   UNL     1       0.679   9.659  20.873  0.00  0.00    +0.000 N 
ATOM     15  C   UNL     1      -0.413  10.417  20.526  0.00  0.00    +0.000 A 
ATOM     16  C   UNL     1      -0.789  11.045  21.689  0.00  0.00    +0.000 A 
ATOM     17  N   UNL     1       0.069  10.686  22.690  0.00  0.00    +0.000 NA
ATOM     18  N   UNL     1       0.966   9.850  22.183  0.00  0.00    +0.000 NA
BRANCH  16  19
ATOM     19  C   UNL     1      -1.951  11.890  21.861  0.00  0.00    +0.000 A 
ATOM     20  C   UNL     1      -2.465  12.589  20.761  0.00  0.00    +0.000 A 
ATOM     21  C   UNL     1      -3.546  13.460  20.915  0.00  0.00    +0.000 A 
ATOM     22  C   UNL     1      -4.126  13.636  22.169  0.00  0.00    +0.000 A 
ATOM     23  C   UNL     1      -3.638  12.930  23.267  0.00  0.00    +0.000 A 
ATOM     24  C   UNL     1      -2.557  12.060  23.114  0.00  0.00    +0.000 A 
ENDBRANCH  16  19
ENDBRANCH   4  14
TORSDOF 3
ENDMDL
MODEL 7
REMARK VINA RESULT:      -7.9      3.614     10.677
REMARK  Name = 
REMARK  3 active torsions:
REMARK  status: ('A' for Active; 'I' for Inactive)
REMARK    1  A    between atoms: C_5  and  C_6
REMARK    2  A    between atoms: C_9  and  N_10
REMARK    3  A    between atoms: C_12  and  C_13
REMARK                            x       y       z     vdW  Elec       q    Type
REMARK                         _______ _______ _______ _____ _____    ______ ____
ROOT
ATOM      1  C   UNL     1       2.196   7.478  18.983  0.00  0.00    +0.000 A 
ATOM      2  C   UNL     1       1.936   8.674  18.291  0.00  0.00    +0.000 A 
ATOM      3  C   UNL     1       1.394   9.791  18.934  0.00  0.00    +0.000 A 
ATOM      4  C   UNL     1       1.089   9.737  20.296  0.00  0.00    +0.000 A 
ATOM      5  C   UNL     1       1.327   8.555  21.003  0.00  0.00    +0.000 A 
ATOM      6  C   UNL     1       1.876   7.444  20.351  0.00  0.00    +0.000 A 
ENDROOT
BRANCH   1  11
ATOM      7  F   UNL     1       4.529   3.138  16.364  0.00  0.00    +0.000 F 
ATOM      8  C   UNL     1       3.961   4.174  16.994  0.00  0.00    +0.000 A 
ATOM      9  C   UNL     1       2.730   3.985  17.592  0.00  0.00    +0.000 A 
ATOM     10  C   UNL     1       2.139   5.068  18.244  0.00  0.00    +0.000 A 
ATOM     11  C   UNL     1       2.787   6.311  18.294  0.00  0.00    +0.000 A 
ATOM     12  C   UNL     1       4.030   6.371  17.654  0.00  0.00    +0.000 A 
ATOM     13  N   UNL     1       4.628   5.341  17.006  0.00  0.00    +0.000 NA
ENDBRANCH   1  11
BRANCH   4  14
ATOM     14  N   UNL     1       0.540  10.859  20.963  0.00  0.00    +0.000 N 
ATOM     15  C   UNL     1      -0.625  10.930  21.688  0.00  0.00    +0.000 A 
ATOM     16  C   UNL     1      -0.667  12.219  22.161  0.00  0.00    +0.000 A 
ATOM     17  N   UNL     1       0.431  12.897  21.712  0.00  0.00    +0.000 NA
ATOM     18  N   UNL     1       1.155  12.066  20.974  0.00  0.00    +0.000 NA
BRANCH  16  19
ATOM     19  C   UNL     1      -1.663  12.762  23.059  0.00  0.00    +0.000 A 
ATOM     20  C   UNL     1      -2.825  12.026  23.327  0.00  0.00    +0.000 A 
ATOM     21  C   UNL     1      -3.831  12.558  24.138  0.00  0.00    +0.000 A 
ATOM     22  C   UNL     1      -3.681  13.826  24.694  0.00  0.00    +0.000 A 
ATOM     23  C   UNL     1      -2.520  14.559  24.453  0.00  0.00    +0.000 A 
ATOM     24  C   UNL     1      -1.515  14.029  23.641  0.00  0.00    +0.000 A 
ENDBRANCH  16  19
ENDBRANCH   4  14
TORSDOF 3
ENDMDL
MODEL 8
REMARK VINA RESULT:      -7.9      3.506     10.387
REMARK  Name = 
REMARK  3 active torsions:
REMARK  status: ('A' for Active; 'I' for Inactive)
REMARK    1  A    between atoms: C_5  and  C_6
REMARK    2  A    between atoms: C_9  and  N_10
REMARK    3  A    between atoms: C_12  and  C_13
REMARK                            x       y       z     vdW  Elec       q    Type
REMARK                         _______ _______ _______ _____ _____    ______ ____
ROOT
ATOM      1  C   UNL     1       2.585   7.439  18.542  0.00  0.00    +0.000 A 
ATOM      2  C   UNL     1       2.189   7.284  19.882  0.00  0.00    +0.000 A 
ATOM      3  C   UNL     1       1.482   8.282  20.559  0.00  0.00    +0.000 A 
ATOM      4  C   UNL     1       1.158   9.475  19.908  0.00  0.00    +0.000 A 
ATOM      5  C   UNL     1       1.552   9.658  18.579  0.00  0.00    +0.000 A 
ATOM      6  C   UNL     1       2.253   8.649  17.909  0.00  0.00    +0.000 A 
ENDROOT
BRANCH   1  11
ATOM      7  F   UNL     1       5.428   3.469  15.840  0.00  0.00    +0.000 F 
ATOM      8  C   UNL     1       4.739   4.415  16.491  0.00  0.00    +0.000 A 
ATOM      9  C   UNL     1       3.601   4.043  17.179  0.00  0.00    +0.000 A 
ATOM     10  C   UNL     1       2.883   5.031  17.852  0.00  0.00    +0.000 A 
ATOM     11  C   UNL     1       3.315   6.366  17.833  0.00  0.00    +0.000 A 
ATOM     12  C   UNL     1       4.483   6.612  17.104  0.00  0.00    +0.000 A 
ATOM     13  N   UNL     1       5.200   5.677  16.433  0.00  0.00    +0.000 NA
ENDBRANCH   1  11
BRANCH   4  14
ATOM     14  N   UNL     1       0.442  10.497  20.579  0.00  0.00    +0.000 N 
ATOM     15  C   UNL     1      -0.919  10.648  20.689  0.00  0.00    +0.000 A 
ATOM     16  C   UNL     1      -1.086  11.762  21.477  0.00  0.00    +0.000 A 
ATOM     17  N   UNL     1       0.140  12.267  21.804  0.00  0.00    +0.000 NA
ATOM     18  N   UNL     1       1.065  11.499  21.245  0.00  0.00    +0.000 NA
BRANCH  16  19
ATOM     19  C   UNL     1      -2.349  12.280  21.958  0.00  0.00    +0.000 A 
ATOM     20  C   UNL     1      -2.644  12.217  23.326  0.00  0.00    +0.000 A 
ATOM     21  C   UNL     1      -3.883  12.651  23.806  0.00  0.00    +0.000 A 
ATOM     22  C   UNL     1      -4.834  13.156  22.922  0.00  0.00    +0.000 A 
ATOM     23  C   UNL     1      -4.545  13.243  21.562  0.00  0.00    +0.000 A 
ATOM     24  C   UNL     1      -3.308  12.808  21.082  0.00  0.00    +0.000 A 
ENDBRANCH  16  19
ENDBRANCH   4  14
TORSDOF 3
ENDMDL
MODEL 9
REMARK VINA RESULT:      -7.9      4.024     10.492
REMARK  Name = 
REMARK  3 active torsions:
REMARK  status: ('A' for Active; 'I' for Inactive)
REMARK    1  A    between atoms: C_5  and  C_6
REMARK    2  A    between atoms: C_9  and  N_10
REMARK    3  A    between atoms: C_12  and  C_13
REMARK                            x       y       z     vdW  Elec       q    Type
REMARK                         _______ _______ _______ _____ _____    ______ ____
ROOT
ATOM      1  C   UNL     1       2.154   6.817  19.405  0.00  0.00    +0.000 A 
ATOM      2  C   UNL     1       1.732   6.879  20.745  0.00  0.00    +0.000 A 
ATOM      3  C   UNL     1       1.225   8.057  21.301  0.00  0.00    +0.000 A 
ATOM      4  C   UNL     1       1.135   9.216  20.526  0.00  0.00    +0.000 A 
ATOM      5  C   UNL     1       1.561   9.183  19.194  0.00  0.00    +0.000 A 
ATOM      6  C   UNL     1       2.060   7.996  18.645  0.00  0.00    +0.000 A 
ENDROOT
BRANCH   1  11
ATOM      7  F   UNL     1       4.198   2.076  17.287  0.00  0.00    +0.000 F 
ATOM      8  C   UNL     1       3.699   3.213  17.790  0.00  0.00    +0.000 A 
ATOM      9  C   UNL     1       2.425   3.593  17.417  0.00  0.00    +0.000 A 
ATOM     10  C   UNL     1       1.911   4.780  17.939  0.00  0.00    +0.000 A 
ATOM     11  C   UNL     1       2.670   5.558  18.825  0.00  0.00    +0.000 A 
ATOM     12  C   UNL     1       3.943   5.063  19.127  0.00  0.00    +0.000 A 
ATOM     13  N   UNL     1       4.475   3.918  18.632  0.00  0.00    +0.000 NA
ENDBRANCH   1  11
BRANCH   4  14
ATOM     14  N   UNL     1       0.625  10.418  21.073  0.00  0.00    +0.000 N 
ATOM     15  C   UNL     1      -0.533  10.600  21.791  0.00  0.00    +0.000 A 
ATOM     16  C   UNL     1      -0.533  11.933  22.127  0.00  0.00    +0.000 A 
ATOM     17  N   UNL     1       0.581  12.526  21.604  0.00  0.00    +0.000 NA
ATOM     18  N   UNL     1       1.275  11.601  20.954  0.00  0.00    +0.000 NA
BRANCH  16  19
ATOM     19  C   UNL     1      -1.506  12.597  22.967  0.00  0.00    +0.000 A 
ATOM     20  C   UNL     1      -2.723  11.962  23.247  0.00  0.00    +0.000 A 
ATOM     21  C   UNL     1      -3.705  12.610  24.001  0.00  0.00    +0.000 A 
ATOM     22  C   UNL     1      -3.475  13.895  24.487  0.00  0.00    +0.000 A 
ATOM     23  C   UNL     1      -2.260  14.528  24.234  0.00  0.00    +0.000 A 
ATOM     24  C   UNL     1      -1.280  13.882  23.478  0.00  0.00    +0.000 A 
ENDBRANCH  16  19
ENDBRANCH   4  14
TORSDOF 3
ENDMDL
