MODEL 1
REMARK VINA RESULT:      -9.4      0.000      0.000
REMARK  Name = 
REMARK  10 active torsions:
REMARK  status: ('A' for Active; 'I' for Inactive)
REMARK    1  A    between atoms: C_1  and  O_2
REMARK    2  A    between atoms: O_2  and  C_3
REMARK    3  A    between atoms: C_11  and  C_12
REMARK    4  A    between atoms: C_12  and  C_13
REMARK    5  A    between atoms: C_13  and  C_14
REMARK    6  A    between atoms: C_14  and  O_15
REMARK    7  A    between atoms: C_19  and  N_20
REMARK    8  A    between atoms: N_20  and  C_21
REMARK    9  A    between atoms: C_21  and  C_22
REMARK   10  A    between atoms: C_25  and  C_26
REMARK                            x       y       z     vdW  Elec       q    Type
REMARK                         _______ _______ _______ _____ _____    ______ ____
ROOT
ATOM      1  C   UNL     1       6.439   4.857  16.760  0.00  0.00    +0.000 C 
ATOM      2  C   UNL     1       6.060   5.765  15.583  0.00  0.00    +0.000 C 
ATOM      3  O   UNL     1       5.708   7.062  16.096  0.00  0.00    +0.000 OA
ATOM      4  C   UNL     1       6.219   7.168  17.421  0.00  0.00    +0.000 C 
ATOM      5  C   UNL     1       7.678   7.625  17.485  0.00  0.00    +0.000 C 
ATOM      6  C   UNL     1       8.146   6.919  18.758  0.00  0.00    +0.000 C 
ATOM      7  O   UNL     1       7.422   5.678  18.861  0.00  0.00    +0.000 OA
ATOM      8  C   UNL     1       6.278   5.764  17.989  0.00  0.00    +0.000 C 
ENDROOT
BRANCH   1   9
ATOM      9  O   UNL     1       7.813   4.454  16.624  0.00  0.00    +0.000 OA
ATOM     10  H   UNL     1       7.796   3.479  16.529  0.00  0.00    +0.000 HD
ENDBRANCH   1   9
BRANCH   5  11
ATOM     11  N   UNL     1       7.839   9.083  17.472  0.00  0.00    +0.000 NA
ATOM     12  H   UNL     1       6.942   9.556  17.574  0.00  0.00    +0.000 HD
BRANCH  11  13
ATOM     13  C   UNL     1       8.747   9.530  18.526  0.00  0.00    +0.000 C 
BRANCH  13  14
ATOM     14  C   UNL     1       9.367  10.864  18.192  0.00  0.00    +0.000 A 
ATOM     15  C   UNL     1      10.756  10.989  18.064  0.00  0.00    +0.000 A 
ATOM     16  C   UNL     1      11.327  12.218  17.719  0.00  0.00    +0.000 A 
ATOM     17  C   UNL     1      10.519  13.336  17.497  0.00  0.00    +0.000 A 
ATOM     18  C   UNL     1      11.120  14.662  17.140  0.00  0.00    +0.000 C 
ATOM     19  C   UNL     1       9.131  13.214  17.634  0.00  0.00    +0.000 A 
ATOM     20  C   UNL     1       8.559  11.988  17.977  0.00  0.00    +0.000 A 
ENDBRANCH  13  14
ENDBRANCH  11  13
ENDBRANCH   5  11
BRANCH   1  21
ATOM     21  C   UNL     1       5.565   3.593  16.864  0.00  0.00    +0.000 C 
BRANCH  21  22
ATOM     22  C   UNL     1       4.063   3.872  16.701  0.00  0.00    +0.000 C 
BRANCH  22  31
ATOM     23  C   UNL     1       2.491   6.904  19.140  0.00  0.00    +0.000 A 
ATOM     24  C   UNL     1       1.793   6.674  20.306  0.00  0.00    +0.000 A 
ATOM     25  C   UNL     1       1.598   5.352  20.698  0.00  0.00    +0.000 A 
ATOM     26  C   UNL     1       2.088   4.302  19.935  0.00  0.00    +0.000 A 
ATOM     27  N   UNL     1       1.866   3.034  20.333  0.00  0.00    +0.000 NA
ATOM     28  C   UNL     1       2.358   2.050  19.548  0.00  0.00    +0.000 A 
ATOM     29  C   UNL     1       3.069   2.285  18.387  0.00  0.00    +0.000 A 
ATOM     30  F   UNL     1       3.528   1.255  17.667  0.00  0.00    +0.000 F 
ATOM     31  C   UNL     1       3.294   3.598  17.977  0.00  0.00    +0.000 A 
ATOM     32  C   UNL     1       2.801   4.644  18.758  0.00  0.00    +0.000 A 
ATOM     33  N   UNL     1       3.004   5.920  18.377  0.00  0.00    +0.000 NA
BRANCH  23  35
ATOM     34  C   UNL     1       1.787   8.585  17.682  0.00  0.00    +0.000 C 
ATOM     35  O   UNL     1       2.653   8.218  18.755  0.00  0.00    +0.000 OA
ENDBRANCH  23  35
ENDBRANCH  22  31
ENDBRANCH  21  22
ENDBRANCH   1  21
TORSDOF 8
ENDMDL
MODEL 2
REMARK VINA RESULT:      -9.3      0.990      1.057
REMARK  Name = 
REMARK  10 active torsions:
REMARK  status: ('A' for Active; 'I' for Inactive)
REMARK    1  A    between atoms: C_1  and  O_2
REMARK    2  A    between atoms: O_2  and  C_3
REMARK    3  A    between atoms: C_11  and  C_12
REMARK    4  A    between atoms: C_12  and  C_13
REMARK    5  A    between atoms: C_13  and  C_14
REMARK    6  A    between atoms: C_14  and  O_15
REMARK    7  A    between atoms: C_19  and  N_20
REMARK    8  A    between atoms: N_20  and  C_21
REMARK    9  A    between atoms: C_21  and  C_22
REMARK   10  A    between atoms: C_25  and  C_26
REMARK                            x       y       z     vdW  Elec       q    Type
REMARK                         _______ _______ _______ _____ _____    ______ ____
ROOT
ATOM      1  C   UNL     1       5.657   4.517  16.820  0.00  0.00    +0.000 C 
ATOM      2  C   UNL     1       5.363   5.488  15.668  0.00  0.00    +0.000 C 
ATOM      3  O   UNL     1       5.283   6.822  16.200  0.00  0.00    +0.000 OA
ATOM      4  C   UNL     1       5.897   6.824  17.485  0.00  0.00    +0.000 C 
ATOM      5  C   UNL     1       7.414   7.015  17.445  0.00  0.00    +0.000 C 
ATOM      6  C   UNL     1       7.838   6.226  18.683  0.00  0.00    +0.000 C 
ATOM      7  O   UNL     1       6.914   5.133  18.842  0.00  0.00    +0.000 OA
ATOM      8  C   UNL     1       5.745   5.428  18.053  0.00  0.00    +0.000 C 
ENDROOT
BRANCH   1   9
ATOM      9  O   UNL     1       6.924   3.878  16.588  0.00  0.00    +0.000 OA
ATOM     10  H   UNL     1       7.588   4.423  17.060  0.00  0.00    +0.000 HD
ENDBRANCH   1   9
BRANCH   5  11
ATOM     11  N   UNL     1       7.830   8.422  17.414  0.00  0.00    +0.000 NA
ATOM     12  H   UNL     1       7.035   9.040  17.261  0.00  0.00    +0.000 HD
BRANCH  11  13
ATOM     13  C   UNL     1       8.512   8.804  18.650  0.00  0.00    +0.000 C 
BRANCH  13  14
ATOM     14  C   UNL     1       8.945  10.248  18.616  0.00  0.00    +0.000 A 
ATOM     15  C   UNL     1       9.884  10.730  19.538  0.00  0.00    +0.000 A 
ATOM     16  C   UNL     1      10.310  12.060  19.484  0.00  0.00    +0.000 A 
ATOM     17  C   UNL     1       9.807  12.926  18.509  0.00  0.00    +0.000 A 
ATOM     18  C   UNL     1      10.246  14.358  18.449  0.00  0.00    +0.000 C 
ATOM     19  C   UNL     1       8.862  12.447  17.594  0.00  0.00    +0.000 A 
ATOM     20  C   UNL     1       8.435  11.120  17.646  0.00  0.00    +0.000 A 
ENDBRANCH  13  14
ENDBRANCH  11  13
ENDBRANCH   5  11
BRANCH   1  21
ATOM     21  C   UNL     1       4.582   3.427  16.989  0.00  0.00    +0.000 C 
BRANCH  21  22
ATOM     22  C   UNL     1       3.146   3.973  16.964  0.00  0.00    +0.000 C 
BRANCH  22  31
ATOM     23  C   UNL     1       2.327   7.596  18.918  0.00  0.00    +0.000 A 
ATOM     24  C   UNL     1       1.785   7.687  20.182  0.00  0.00    +0.000 A 
ATOM     25  C   UNL     1       1.491   6.502  20.851  0.00  0.00    +0.000 A 
ATOM     26  C   UNL     1       1.733   5.270  20.260  0.00  0.00    +0.000 A 
ATOM     27  N   UNL     1       1.420   4.142  20.928  0.00  0.00    +0.000 NA
ATOM     28  C   UNL     1       1.669   2.970  20.302  0.00  0.00    +0.000 A 
ATOM     29  C   UNL     1       2.226   2.884  19.041  0.00  0.00    +0.000 A 
ATOM     30  F   UNL     1       2.446   1.683  18.491  0.00  0.00    +0.000 F 
ATOM     31  C   UNL     1       2.544   4.052  18.352  0.00  0.00    +0.000 A 
ATOM     32  C   UNL     1       2.302   5.283  18.962  0.00  0.00    +0.000 A 
ATOM     33  N   UNL     1       2.600   6.425  18.311  0.00  0.00    +0.000 NA
BRANCH  23  35
ATOM     34  C   UNL     1       1.430   9.601  18.130  0.00  0.00    +0.000 C 
ATOM     35  O   UNL     1       2.588   8.780  18.261  0.00  0.00    +0.000 OA
ENDBRANCH  23  35
ENDBRANCH  22  31
ENDBRANCH  21  22
ENDBRANCH   1  21
TORSDOF 8
ENDMDL
MODEL 3
REMARK VINA RESULT:      -9.0      1.188      1.503
REMARK  Name = 
REMARK  10 active torsions:
REMARK  status: ('A' for Active; 'I' for Inactive)
REMARK    1  A    between atoms: C_1  and  O_2
REMARK    2  A    between atoms: O_2  and  C_3
REMARK    3  A    between atoms: C_11  and  C_12
REMARK    4  A    between atoms: C_12  and  C_13
REMARK    5  A    between atoms: C_13  and  C_14
REMARK    6  A    between atoms: C_14  and  O_15
REMARK    7  A    between atoms: C_19  and  N_20
REMARK    8  A    between atoms: N_20  and  C_21
REMARK    9  A    between atoms: C_21  and  C_22
REMARK   10  A    between atoms: C_25  and  C_26
REMARK                            x       y       z     vdW  Elec       q    Type
REMARK                         _______ _______ _______ _____ _____    ______ ____
ROOT
ATOM      1  C   UNL     1       5.891   4.709  16.859  0.00  0.00    +0.000 C 
ATOM      2  C   UNL     1       5.652   5.615  15.644  0.00  0.00    +0.000 C 
ATOM      3  O   UNL     1       5.573   6.978  16.095  0.00  0.00    +0.000 OA
ATOM      4  C   UNL     1       6.143   7.047  17.399  0.00  0.00    +0.000 C 
ATOM      5  C   UNL     1       7.663   7.216  17.400  0.00  0.00    +0.000 C 
ATOM      6  C   UNL     1       8.033   6.495  18.697  0.00  0.00    +0.000 C 
ATOM      7  O   UNL     1       7.087   5.425  18.886  0.00  0.00    +0.000 OA
ATOM      8  C   UNL     1       5.951   5.689  18.041  0.00  0.00    +0.000 C 
ENDROOT
BRANCH   1   9
ATOM      9  O   UNL     1       7.156   4.041  16.710  0.00  0.00    +0.000 OA
ATOM     10  H   UNL     1       7.773   4.714  16.356  0.00  0.00    +0.000 HD
ENDBRANCH   1   9
BRANCH   5  11
ATOM     11  N   UNL     1       8.100   8.613  17.303  0.00  0.00    +0.000 NA
ATOM     12  H   UNL     1       7.557   9.125  16.608  0.00  0.00    +0.000 HD
BRANCH  11  13
ATOM     13  C   UNL     1       8.004   9.294  18.593  0.00  0.00    +0.000 C 
BRANCH  13  14
ATOM     14  C   UNL     1       9.136  10.271  18.787  0.00  0.00    +0.000 A 
ATOM     15  C   UNL     1       9.768  10.855  17.681  0.00  0.00    +0.000 A 
ATOM     16  C   UNL     1      10.795  11.786  17.862  0.00  0.00    +0.000 A 
ATOM     17  C   UNL     1      11.203  12.148  19.149  0.00  0.00    +0.000 A 
ATOM     18  C   UNL     1      12.311  13.135  19.357  0.00  0.00    +0.000 C 
ATOM     19  C   UNL     1      10.577  11.558  20.254  0.00  0.00    +0.000 A 
ATOM     20  C   UNL     1       9.552  10.629  20.075  0.00  0.00    +0.000 A 
ENDBRANCH  13  14
ENDBRANCH  11  13
ENDBRANCH   5  11
BRANCH   1  21
ATOM     21  C   UNL     1       4.795   3.644  17.054  0.00  0.00    +0.000 C 
BRANCH  21  22
ATOM     22  C   UNL     1       3.372   4.224  17.063  0.00  0.00    +0.000 C 
BRANCH  22  31
ATOM     23  C   UNL     1       2.184   8.039  18.349  0.00  0.00    +0.000 A 
ATOM     24  C   UNL     1       1.744   8.321  19.624  0.00  0.00    +0.000 A 
ATOM     25  C   UNL     1       1.691   7.276  20.541  0.00  0.00    +0.000 A 
ATOM     26  C   UNL     1       2.065   5.989  20.180  0.00  0.00    +0.000 A 
ATOM     27  N   UNL     1       1.984   4.996  21.088  0.00  0.00    +0.000 NA
ATOM     28  C   UNL     1       2.353   3.762  20.679  0.00  0.00    +0.000 A 
ATOM     29  C   UNL     1       2.807   3.485  19.404  0.00  0.00    +0.000 A 
ATOM     30  F   UNL     1       3.159   2.235  19.079  0.00  0.00    +0.000 F 
ATOM     31  C   UNL     1       2.886   4.514  18.467  0.00  0.00    +0.000 A 
ATOM     32  C   UNL     1       2.513   5.804  18.848  0.00  0.00    +0.000 A 
ATOM     33  N   UNL     1       2.578   6.812  17.956  0.00  0.00    +0.000 NA
BRANCH  23  35
ATOM     34  C   UNL     1       1.953  10.343  18.062  0.00  0.00    +0.000 C 
ATOM     35  O   UNL     1       2.207   9.081  17.447  0.00  0.00    +0.000 OA
ENDBRANCH  23  35
ENDBRANCH  22  31
ENDBRANCH  21  22
ENDBRANCH   1  21
TORSDOF 8
ENDMDL
MODEL 4
REMARK VINA RESULT:      -8.7      1.057      1.291
REMARK  Name = 
REMARK  10 active torsions:
REMARK  status: ('A' for Active; 'I' for Inactive)
REMARK    1  A    between atoms: C_1  and  O_2
REMARK    2  A    between atoms: O_2  and  C_3
REMARK    3  A    between atoms: C_11  and  C_12
REMARK    4  A    between atoms: C_12  and  C_13
REMARK    5  A    between atoms: C_13  and  C_14
REMARK    6  A    between atoms: C_14  and  O_15
REMARK    7  A    between atoms: C_19  and  N_20
REMARK    8  A    between atoms: N_20  and  C_21
REMARK    9  A    between atoms: C_21  and  C_22
REMARK   10  A    between atoms: C_25  and  C_26
REMARK                            x       y       z     vdW  Elec       q    Type
REMARK                         _______ _______ _______ _____ _____    ______ ____
ROOT
ATOM      1  C   UNL     1       6.209   4.842  16.641  0.00  0.00    +0.000 C 
ATOM      2  C   UNL     1       5.871   6.236  16.095  0.00  0.00    +0.000 C 
ATOM      3  O   UNL     1       5.803   7.158  17.197  0.00  0.00    +0.000 OA
ATOM      4  C   UNL     1       6.460   6.564  18.312  0.00  0.00    +0.000 C 
ATOM      5  C   UNL     1       7.974   6.783  18.325  0.00  0.00    +0.000 C 
ATOM      6  C   UNL     1       8.444   5.510  19.030  0.00  0.00    +0.000 C 
ATOM      7  O   UNL     1       7.531   4.454  18.678  0.00  0.00    +0.000 OA
ATOM      8  C   UNL     1       6.335   5.063  18.155  0.00  0.00    +0.000 C 
ENDROOT
BRANCH   1   9
ATOM      9  O   UNL     1       7.470   4.414  16.100  0.00  0.00    +0.000 OA
ATOM     10  H   UNL     1       7.268   4.036  15.219  0.00  0.00    +0.000 HD
ENDBRANCH   1   9
BRANCH   5  11
ATOM     11  N   UNL     1       8.381   8.045  18.953  0.00  0.00    +0.000 NA
ATOM     12  H   UNL     1       9.330   7.988  19.320  0.00  0.00    +0.000 HD
BRANCH  11  13
ATOM     13  C   UNL     1       8.290   9.162  18.014  0.00  0.00    +0.000 C 
BRANCH  13  14
ATOM     14  C   UNL     1       8.978  10.392  18.553  0.00  0.00    +0.000 A 
ATOM     15  C   UNL     1       9.082  11.548  17.769  0.00  0.00    +0.000 A 
ATOM     16  C   UNL     1       9.688  12.699  18.282  0.00  0.00    +0.000 A 
ATOM     17  C   UNL     1      10.197  12.710  19.583  0.00  0.00    +0.000 A 
ATOM     18  C   UNL     1      10.861  13.933  20.140  0.00  0.00    +0.000 C 
ATOM     19  C   UNL     1      10.101  11.552  20.364  0.00  0.00    +0.000 A 
ATOM     20  C   UNL     1       9.495  10.403  19.854  0.00  0.00    +0.000 A 
ENDBRANCH  13  14
ENDBRANCH  11  13
ENDBRANCH   5  11
BRANCH   1  21
ATOM     21  C   UNL     1       5.146   3.780  16.304  0.00  0.00    +0.000 C 
BRANCH  21  22
ATOM     22  C   UNL     1       3.704   4.268  16.511  0.00  0.00    +0.000 C 
BRANCH  22  31
ATOM     23  C   UNL     1       2.255   6.981  19.367  0.00  0.00    +0.000 A 
ATOM     24  C   UNL     1       1.751   6.613  20.595  0.00  0.00    +0.000 A 
ATOM     25  C   UNL     1       1.720   5.257  20.907  0.00  0.00    +0.000 A 
ATOM     26  C   UNL     1       2.180   4.307  20.006  0.00  0.00    +0.000 A 
ATOM     27  N   UNL     1       2.119   3.000  20.332  0.00  0.00    +0.000 NA
ATOM     28  C   UNL     1       2.572   2.119  19.414  0.00  0.00    +0.000 A 
ATOM     29  C   UNL     1       3.090   2.492  18.189  0.00  0.00    +0.000 A 
ATOM     30  F   UNL     1       3.523   1.556  17.335  0.00  0.00    +0.000 F 
ATOM     31  C   UNL     1       3.148   3.844  17.854  0.00  0.00    +0.000 A 
ATOM     32  C   UNL     1       2.689   4.788  18.773  0.00  0.00    +0.000 A 
ATOM     33  N   UNL     1       2.732   6.099  18.467  0.00  0.00    +0.000 NA
BRANCH  23  35
ATOM     34  C   UNL     1       2.214   8.574  17.661  0.00  0.00    +0.000 C 
ATOM     35  O   UNL     1       2.255   8.327  19.066  0.00  0.00    +0.000 OA
ENDBRANCH  23  35
ENDBRANCH  22  31
ENDBRANCH  21  22
ENDBRANCH   1  21
TORSDOF 8
ENDMDL
MODEL 5
REMARK VINA RESULT:      -8.4      3.418      9.222
REMARK  Name = 
REMARK  10 active torsions:
REMARK  status: ('A' for Active; 'I' for Inactive)
REMARK    1  A    between atoms: C_1  and  O_2
REMARK    2  A    between atoms: O_2  and  C_3
REMARK    3  A    between atoms: C_11  and  C_12
REMARK    4  A    between atoms: C_12  and  C_13
REMARK    5  A    between atoms: C_13  and  C_14
REMARK    6  A    between atoms: C_14  and  O_15
REMARK    7  A    between atoms: C_19  and  N_20
REMARK    8  A    between atoms: N_20  and  C_21
REMARK    9  A    between atoms: C_21  and  C_22
REMARK   10  A    between atoms: C_25  and  C_26
REMARK                            x       y       z     vdW  Elec       q    Type
REMARK                         _______ _______ _______ _____ _____    ______ ____
ROOT
ATOM      1  C   UNL     1       7.681   7.629  17.639  0.00  0.00    +0.000 C 
ATOM      2  C   UNL     1       8.108   6.633  18.725  0.00  0.00    +0.000 C 
ATOM      3  O   UNL     1       6.965   5.847  19.104  0.00  0.00    +0.000 OA
ATOM      4  C   UNL     1       5.980   5.975  18.082  0.00  0.00    +0.000 C 
ATOM      5  C   UNL     1       6.168   5.000  16.919  0.00  0.00    +0.000 C 
ATOM      6  C   UNL     1       5.596   5.818  15.761  0.00  0.00    +0.000 C 
ATOM      7  O   UNL     1       5.867   7.206  16.031  0.00  0.00    +0.000 OA
ATOM      8  C   UNL     1       6.190   7.327  17.430  0.00  0.00    +0.000 C 
ENDROOT
BRANCH   1   9
ATOM      9  O   UNL     1       8.412   7.354  16.431  0.00  0.00    +0.000 OA
ATOM     10  H   UNL     1       7.900   6.664  15.961  0.00  0.00    +0.000 HD
ENDBRANCH   1   9
BRANCH   5  11
ATOM     11  N   UNL     1       5.543   3.691  17.142  0.00  0.00    +0.000 NA
ATOM     12  H   UNL     1       5.744   3.338  18.076  0.00  0.00    +0.000 HD
BRANCH  11  13
ATOM     13  C   UNL     1       4.096   3.749  16.945  0.00  0.00    +0.000 C 
BRANCH  13  14
ATOM     14  C   UNL     1       3.354   3.439  18.221  0.00  0.00    +0.000 A 
ATOM     15  C   UNL     1       4.025   2.880  19.316  0.00  0.00    +0.000 A 
ATOM     16  C   UNL     1       3.344   2.625  20.510  0.00  0.00    +0.000 A 
ATOM     17  C   UNL     1       1.984   2.926  20.626  0.00  0.00    +0.000 A 
ATOM     18  C   UNL     1       1.239   2.645  21.896  0.00  0.00    +0.000 C 
ATOM     19  C   UNL     1       1.310   3.476  19.529  0.00  0.00    +0.000 A 
ATOM     20  C   UNL     1       1.989   3.732  18.337  0.00  0.00    +0.000 A 
ENDBRANCH  13  14
ENDBRANCH  11  13
ENDBRANCH   5  11
BRANCH   1  21
ATOM     21  C   UNL     1       7.917   9.099  18.030  0.00  0.00    +0.000 C 
BRANCH  21  22
ATOM     22  C   UNL     1       8.987   9.280  19.118  0.00  0.00    +0.000 C 
BRANCH  22  31
ATOM     23  C   UNL     1       8.500  11.696  22.515  0.00  0.00    +0.000 A 
ATOM     24  C   UNL     1       8.937  13.000  22.605  0.00  0.00    +0.000 A 
ATOM     25  C   UNL     1       9.579  13.549  21.498  0.00  0.00    +0.000 A 
ATOM     26  C   UNL     1       9.776  12.803  20.345  0.00  0.00    +0.000 A 
ATOM     27  N   UNL     1      10.418  13.359  19.298  0.00  0.00    +0.000 NA
ATOM     28  C   UNL     1      10.591  12.584  18.204  0.00  0.00    +0.000 A 
ATOM     29  C   UNL     1      10.139  11.282  18.114  0.00  0.00    +0.000 A 
ATOM     30  F   UNL     1      10.345  10.582  16.991  0.00  0.00    +0.000 F 
ATOM     31  C   UNL     1       9.479  10.710  19.199  0.00  0.00    +0.000 A 
ATOM     32  C   UNL     1       9.281  11.475  20.349  0.00  0.00    +0.000 A 
ATOM     33  N   UNL     1       8.649  10.939  21.412  0.00  0.00    +0.000 NA
BRANCH  23  35
ATOM     34  C   UNL     1       6.582  11.694  23.845  0.00  0.00    +0.000 C 
ATOM     35  O   UNL     1       7.888  11.162  23.629  0.00  0.00    +0.000 OA
ENDBRANCH  23  35
ENDBRANCH  22  31
ENDBRANCH  21  22
ENDBRANCH   1  21
TORSDOF 8
ENDMDL
MODEL 6
REMARK VINA RESULT:      -8.0      5.454      9.686
REMARK  Name = 
REMARK  10 active torsions:
REMARK  status: ('A' for Active; 'I' for Inactive)
REMARK    1  A    between atoms: C_1  and  O_2
REMARK    2  A    between atoms: O_2  and  C_3
REMARK    3  A    between atoms: C_11  and  C_12
REMARK    4  A    between atoms: C_12  and  C_13
REMARK    5  A    between atoms: C_13  and  C_14
REMARK    6  A    between atoms: C_14  and  O_15
REMARK    7  A    between atoms: C_19  and  N_20
REMARK    8  A    between atoms: N_20  and  C_21
REMARK    9  A    between atoms: C_21  and  C_22
REMARK   10  A    between atoms: C_25  and  C_26
REMARK                            x       y       z     vdW  Elec       q    Type
REMARK                         _______ _______ _______ _____ _____    ______ ____
ROOT
ATOM      1  C   UNL     1       0.654   9.850  18.274  0.00  0.00    +0.000 C 
ATOM      2  C   UNL     1      -0.736  10.033  17.650  0.00  0.00    +0.000 C 
ATOM      3  O   UNL     1      -1.707  10.121  18.708  0.00  0.00    +0.000 OA
ATOM      4  C   UNL     1      -1.018  10.419  19.918  0.00  0.00    +0.000 C 
ATOM      5  C   UNL     1      -0.764  11.912  20.132  0.00  0.00    +0.000 C 
ATOM      6  C   UNL     1       0.540  11.873  20.928  0.00  0.00    +0.000 C 
ATOM      7  O   UNL     1       1.289  10.726  20.482  0.00  0.00    +0.000 OA
ATOM      8  C   UNL     1       0.381   9.852  19.785  0.00  0.00    +0.000 C 
ENDROOT
BRANCH   1   9
ATOM      9  O   UNL     1       1.483  10.972  17.922  0.00  0.00    +0.000 OA
ATOM     10  H   UNL     1       1.592  10.928  16.949  0.00  0.00    +0.000 HD
ENDBRANCH   1   9
BRANCH   5  11
ATOM     11  N   UNL     1      -1.881  12.613  20.776  0.00  0.00    +0.000 NA
ATOM     12  H   UNL     1      -2.765  12.408  20.311  0.00  0.00    +0.000 HD
BRANCH  11  13
ATOM     13  C   UNL     1      -1.984  12.265  22.192  0.00  0.00    +0.000 C 
BRANCH  13  14
ATOM     14  C   UNL     1      -3.372  12.522  22.723  0.00  0.00    +0.000 A 
ATOM     15  C   UNL     1      -4.409  12.887  21.854  0.00  0.00    +0.000 A 
ATOM     16  C   UNL     1      -5.703  13.092  22.343  0.00  0.00    +0.000 A 
ATOM     17  C   UNL     1      -5.978  12.934  23.704  0.00  0.00    +0.000 A 
ATOM     18  C   UNL     1      -7.358  13.164  24.242  0.00  0.00    +0.000 C 
ATOM     19  C   UNL     1      -4.941  12.578  24.574  0.00  0.00    +0.000 A 
ATOM     20  C   UNL     1      -3.649  12.373  24.088  0.00  0.00    +0.000 A 
ENDBRANCH  13  14
ENDBRANCH  11  13
ENDBRANCH   5  11
BRANCH   1  21
ATOM     21  C   UNL     1       1.362   8.558  17.823  0.00  0.00    +0.000 C 
BRANCH  21  22
ATOM     22  C   UNL     1       2.622   8.232  18.640  0.00  0.00    +0.000 C 
BRANCH  22  31
ATOM     23  C   UNL     1       4.994   5.544  16.457  0.00  0.00    +0.000 A 
ATOM     24  C   UNL     1       5.092   4.199  16.736  0.00  0.00    +0.000 A 
ATOM     25  C   UNL     1       4.358   3.701  17.809  0.00  0.00    +0.000 A 
ATOM     26  C   UNL     1       3.557   4.536  18.574  0.00  0.00    +0.000 A 
ATOM     27  N   UNL     1       2.873   4.025  19.617  0.00  0.00    +0.000 NA
ATOM     28  C   UNL     1       2.116   4.885  20.334  0.00  0.00    +0.000 A 
ATOM     29  C   UNL     1       2.009   6.231  20.042  0.00  0.00    +0.000 A 
ATOM     30  F   UNL     1       1.233   7.016  20.798  0.00  0.00    +0.000 F 
ATOM     31  C   UNL     1       2.720   6.757  18.966  0.00  0.00    +0.000 A 
ATOM     32  C   UNL     1       3.516   5.903  18.200  0.00  0.00    +0.000 A 
ATOM     33  N   UNL     1       4.215   6.391  17.157  0.00  0.00    +0.000 NA
BRANCH  23  35
ATOM     34  C   UNL     1       6.353   4.981  14.645  0.00  0.00    +0.000 C 
ATOM     35  O   UNL     1       5.748   6.024  15.407  0.00  0.00    +0.000 OA
ENDBRANCH  23  35
ENDBRANCH  22  31
ENDBRANCH  21  22
ENDBRANCH   1  21
TORSDOF 8
ENDMDL
MODEL 7
REMARK VINA RESULT:      -8.0      1.535      2.117
REMARK  Name = 
REMARK  10 active torsions:
REMARK  status: ('A' for Active; 'I' for Inactive)
REMARK    1  A    between atoms: C_1  and  O_2
REMARK    2  A    between atoms: O_2  and  C_3
REMARK    3  A    between atoms: C_11  and  C_12
REMARK    4  A    between atoms: C_12  and  C_13
REMARK    5  A    between atoms: C_13  and  C_14
REMARK    6  A    between atoms: C_14  and  O_15
REMARK    7  A    between atoms: C_19  and  N_20
REMARK    8  A    between atoms: N_20  and  C_21
REMARK    9  A    between atoms: C_21  and  C_22
REMARK   10  A    between atoms: C_25  and  C_26
REMARK                            x       y       z     vdW  Elec       q    Type
REMARK                         _______ _______ _______ _____ _____    ______ ____
ROOT
ATOM      1  C   UNL     1       6.026   5.375  17.855  0.00  0.00    +0.000 C 
ATOM      2  C   UNL     1       6.086   5.469  19.386  0.00  0.00    +0.000 C 
ATOM      3  O   UNL     1       7.428   5.812  19.773  0.00  0.00    +0.000 OA
ATOM      4  C   UNL     1       8.099   6.335  18.631  0.00  0.00    +0.000 C 
ATOM      5  C   UNL     1       7.865   7.830  18.409  0.00  0.00    +0.000 C 
ATOM      6  C   UNL     1       7.964   7.916  16.886  0.00  0.00    +0.000 C 
ATOM      7  O   UNL     1       7.468   6.676  16.346  0.00  0.00    +0.000 OA
ATOM      8  C   UNL     1       7.458   5.706  17.411  0.00  0.00    +0.000 C 
ENDROOT
BRANCH   1   9
ATOM      9  O   UNL     1       5.114   6.368  17.355  0.00  0.00    +0.000 OA
ATOM     10  H   UNL     1       4.254   5.911  17.249  0.00  0.00    +0.000 HD
ENDBRANCH   1   9
BRANCH   5  11
ATOM     11  N   UNL     1       8.791   8.689  19.156  0.00  0.00    +0.000 NA
ATOM     12  H   UNL     1       9.635   8.182  19.421  0.00  0.00    +0.000 HD
BRANCH  11  13
ATOM     13  C   UNL     1       9.159   9.875  18.385  0.00  0.00    +0.000 C 
BRANCH  13  14
ATOM     14  C   UNL     1       9.386  11.067  19.281  0.00  0.00    +0.000 A 
ATOM     15  C   UNL     1       9.612  12.336  18.733  0.00  0.00    +0.000 A 
ATOM     16  C   UNL     1       9.787  13.446  19.565  0.00  0.00    +0.000 A 
ATOM     17  C   UNL     1       9.738  13.303  20.954  0.00  0.00    +0.000 A 
ATOM     18  C   UNL     1       9.938  14.483  21.857  0.00  0.00    +0.000 C 
ATOM     19  C   UNL     1       9.521  12.034  21.503  0.00  0.00    +0.000 A 
ATOM     20  C   UNL     1       9.345  10.925  20.674  0.00  0.00    +0.000 A 
ENDBRANCH  13  14
ENDBRANCH  11  13
ENDBRANCH   5  11
BRANCH   1  21
ATOM     21  C   UNL     1       5.574   3.994  17.345  0.00  0.00    +0.000 C 
BRANCH  21  22
ATOM     22  C   UNL     1       4.089   3.941  16.953  0.00  0.00    +0.000 C 
BRANCH  22  31
ATOM     23  C   UNL     1       2.123   6.593  19.545  0.00  0.00    +0.000 A 
ATOM     24  C   UNL     1       1.328   6.196  20.598  0.00  0.00    +0.000 A 
ATOM     25  C   UNL     1       1.168   4.830  20.815  0.00  0.00    +0.000 A 
ATOM     26  C   UNL     1       1.787   3.900  19.992  0.00  0.00    +0.000 A 
ATOM     27  N   UNL     1       1.596   2.585  20.219  0.00  0.00    +0.000 NA
ATOM     28  C   UNL     1       2.215   1.723  19.382  0.00  0.00    +0.000 A 
ATOM     29  C   UNL     1       3.023   2.125  18.336  0.00  0.00    +0.000 A 
ATOM     30  F   UNL     1       3.605   1.208  17.554  0.00  0.00    +0.000 F 
ATOM     31  C   UNL     1       3.214   3.485  18.102  0.00  0.00    +0.000 A 
ATOM     32  C   UNL     1       2.592   4.409  18.943  0.00  0.00    +0.000 A 
ATOM     33  N   UNL     1       2.761   5.729  18.732  0.00  0.00    +0.000 NA
BRANCH  23  35
ATOM     34  C   UNL     1       2.198   8.292  17.947  0.00  0.00    +0.000 C 
ATOM     35  O   UNL     1       2.250   7.949  19.330  0.00  0.00    +0.000 OA
ENDBRANCH  23  35
ENDBRANCH  22  31
ENDBRANCH  21  22
ENDBRANCH   1  21
TORSDOF 8
ENDMDL
MODEL 8
REMARK VINA RESULT:      -8.0      7.763     11.463
REMARK  Name = 
REMARK  10 active torsions:
REMARK  status: ('A' for Active; 'I' for Inactive)
REMARK    1  A    between atoms: C_1  and  O_2
REMARK    2  A    between atoms: O_2  and  C_3
REMARK    3  A    between atoms: C_11  and  C_12
REMARK    4  A    between atoms: C_12  and  C_13
REMARK    5  A    between atoms: C_13  and  C_14
REMARK    6  A    between atoms: C_14  and  O_15
REMARK    7  A    between atoms: C_19  and  N_20
REMARK    8  A    between atoms: N_20  and  C_21
REMARK    9  A    between atoms: C_21  and  C_22
REMARK   10  A    between atoms: C_25  and  C_26
REMARK                            x       y       z     vdW  Elec       q    Type
REMARK                         _______ _______ _______ _____ _____    ______ ____
ROOT
ATOM      1  C   UNL     1      -0.641  11.182  21.877  0.00  0.00    +0.000 C 
ATOM      2  C   UNL     1      -0.521  10.200  23.050  0.00  0.00    +0.000 C 
ATOM      3  O   UNL     1      -0.567   8.858  22.533  0.00  0.00    +0.000 OA
ATOM      4  C   UNL     1      -0.292   8.912  21.136  0.00  0.00    +0.000 C 
ATOM      5  C   UNL     1       1.200   8.908  20.800  0.00  0.00    +0.000 C 
ATOM      6  C   UNL     1       1.207   9.725  19.507  0.00  0.00    +0.000 C 
ATOM      7  O   UNL     1       0.145  10.694  19.598  0.00  0.00    +0.000 OA
ATOM      8  C   UNL     1      -0.748  10.271  20.645  0.00  0.00    +0.000 C 
ENDROOT
BRANCH   1   9
ATOM      9  O   UNL     1       0.557  11.975  21.799  0.00  0.00    +0.000 OA
ATOM     10  H   UNL     1       1.235  11.394  21.398  0.00  0.00    +0.000 HD
ENDBRANCH   1   9
BRANCH   5  11
ATOM     11  N   UNL     1       1.778   7.563  20.705  0.00  0.00    +0.000 NA
ATOM     12  H   UNL     1       1.095   6.847  20.949  0.00  0.00    +0.000 HD
BRANCH  11  13
ATOM     13  C   UNL     1       2.302   7.300  19.366  0.00  0.00    +0.000 C 
BRANCH  13  14
ATOM     14  C   UNL     1       2.591   5.833  19.165  0.00  0.00    +0.000 A 
ATOM     15  C   UNL     1       2.055   4.878  20.039  0.00  0.00    +0.000 A 
ATOM     16  C   UNL     1       2.295   3.516  19.832  0.00  0.00    +0.000 A 
ATOM     17  C   UNL     1       3.072   3.091  18.750  0.00  0.00    +0.000 A 
ATOM     18  C   UNL     1       3.348   1.635  18.525  0.00  0.00    +0.000 C 
ATOM     19  C   UNL     1       3.615   4.046  17.882  0.00  0.00    +0.000 A 
ATOM     20  C   UNL     1       3.376   5.406  18.087  0.00  0.00    +0.000 A 
ENDBRANCH  13  14
ENDBRANCH  11  13
ENDBRANCH   5  11
BRANCH   1  21
ATOM     21  C   UNL     1      -1.849  12.130  21.994  0.00  0.00    +0.000 C 
BRANCH  21  22
ATOM     22  C   UNL     1      -2.560  12.053  23.354  0.00  0.00    +0.000 C 
BRANCH  22  31
ATOM     23  C   UNL     1      -6.682  12.679  22.870  0.00  0.00    +0.000 A 
ATOM     24  C   UNL     1      -7.326  13.856  23.182  0.00  0.00    +0.000 A 
ATOM     25  C   UNL     1      -6.560  14.902  23.690  0.00  0.00    +0.000 A 
ATOM     26  C   UNL     1      -5.193  14.760  23.878  0.00  0.00    +0.000 A 
ATOM     27  N   UNL     1      -4.485  15.787  24.389  0.00  0.00    +0.000 NA
ATOM     28  C   UNL     1      -3.159  15.590  24.560  0.00  0.00    +0.000 A 
ATOM     29  C   UNL     1      -2.514  14.413  24.232  0.00  0.00    +0.000 A 
ATOM     30  F   UNL     1      -1.195  14.300  24.427  0.00  0.00    +0.000 F 
ATOM     31  C   UNL     1      -3.251  13.353  23.708  0.00  0.00    +0.000 A 
ATOM     32  C   UNL     1      -4.624  13.514  23.517  0.00  0.00    +0.000 A 
ATOM     33  N   UNL     1      -5.355  12.499  23.015  0.00  0.00    +0.000 NA
BRANCH  23  35
ATOM     34  C   UNL     1      -7.349  11.485  20.979  0.00  0.00    +0.000 C 
ATOM     35  O   UNL     1      -7.460  11.646  22.392  0.00  0.00    +0.000 OA
ENDBRANCH  23  35
ENDBRANCH  22  31
ENDBRANCH  21  22
ENDBRANCH   1  21
TORSDOF 8
ENDMDL
MODEL 9
REMARK VINA RESULT:      -7.7      5.451      9.660
REMARK  Name = 
REMARK  10 active torsions:
REMARK  status: ('A' for Active; 'I' for Inactive)
REMARK    1  A    between atoms: C_1  and  O_2
REMARK    2  A    between atoms: O_2  and  C_3
REMARK    3  A    between atoms: C_11  and  C_12
REMARK    4  A    between atoms: C_12  and  C_13
REMARK    5  A    between atoms: C_13  and  C_14
REMARK    6  A    between atoms: C_14  and  O_15
REMARK    7  A    between atoms: C_19  and  N_20
REMARK    8  A    between atoms: N_20  and  C_21
REMARK    9  A    between atoms: C_21  and  C_22
REMARK   10  A    between atoms: C_25  and  C_26
REMARK                            x       y       z     vdW  Elec       q    Type
REMARK                         _______ _______ _______ _____ _____    ______ ____
ROOT
ATOM      1  C   UNL     1       1.254   8.565  21.091  0.00  0.00    +0.000 C 
ATOM      2  C   UNL     1       1.327   9.528  19.898  0.00  0.00    +0.000 C 
ATOM      3  O   UNL     1       0.019  10.082  19.674  0.00  0.00    +0.000 OA
ATOM      4  C   UNL     1      -0.758   9.875  20.850  0.00  0.00    +0.000 C 
ATOM      5  C   UNL     1      -0.567  10.957  21.914  0.00  0.00    +0.000 C 
ATOM      6  C   UNL     1      -0.801  10.151  23.191  0.00  0.00    +0.000 C 
ATOM      7  O   UNL     1      -0.335   8.809  22.952  0.00  0.00    +0.000 OA
ATOM      8  C   UNL     1      -0.217   8.633  21.528  0.00  0.00    +0.000 C 
ENDROOT
BRANCH   1   9
ATOM      9  O   UNL     1       2.103   9.051  22.145  0.00  0.00    +0.000 OA
ATOM     10  H   UNL     1       1.578   9.730  22.618  0.00  0.00    +0.000 HD
ENDBRANCH   1   9
BRANCH   5  11
ATOM     11  N   UNL     1      -1.438  12.123  21.730  0.00  0.00    +0.000 NA
ATOM     12  H   UNL     1      -2.264  11.887  21.182  0.00  0.00    +0.000 HD
BRANCH  11  13
ATOM     13  C   UNL     1      -1.852  12.689  23.013  0.00  0.00    +0.000 C 
BRANCH  13  14
ATOM     14  C   UNL     1      -3.354  12.746  23.131  0.00  0.00    +0.000 A 
ATOM     15  C   UNL     1      -4.146  13.008  22.006  0.00  0.00    +0.000 A 
ATOM     16  C   UNL     1      -5.540  13.026  22.110  0.00  0.00    +0.000 A 
ATOM     17  C   UNL     1      -6.161  12.783  23.339  0.00  0.00    +0.000 A 
ATOM     18  C   UNL     1      -7.654  12.813  23.466  0.00  0.00    +0.000 C 
ATOM     19  C   UNL     1      -5.370  12.531  24.465  0.00  0.00    +0.000 A 
ATOM     20  C   UNL     1      -3.978  12.511  24.363  0.00  0.00    +0.000 A 
ENDBRANCH  13  14
ENDBRANCH  11  13
ENDBRANCH   5  11
BRANCH   1  21
ATOM     21  C   UNL     1       1.682   7.127  20.743  0.00  0.00    +0.000 C 
BRANCH  21  22
ATOM     22  C   UNL     1       1.925   6.906  19.242  0.00  0.00    +0.000 C 
BRANCH  22  31
ATOM     23  C   UNL     1       5.542   6.277  17.208  0.00  0.00    +0.000 A 
ATOM     24  C   UNL     1       6.068   5.033  16.934  0.00  0.00    +0.000 A 
ATOM     25  C   UNL     1       5.354   3.917  17.358  0.00  0.00    +0.000 A 
ATOM     26  C   UNL     1       4.153   4.054  18.040  0.00  0.00    +0.000 A 
ATOM     27  N   UNL     1       3.496   2.952  18.453  0.00  0.00    +0.000 NA
ATOM     28  C   UNL     1       2.336   3.145  19.119  0.00  0.00    +0.000 A 
ATOM     29  C   UNL     1       1.805   4.393  19.380  0.00  0.00    +0.000 A 
ATOM     30  F   UNL     1       0.647   4.499  20.043  0.00  0.00    +0.000 F 
ATOM     31  C   UNL     1       2.489   5.530  18.955  0.00  0.00    +0.000 A 
ATOM     32  C   UNL     1       3.692   5.376  18.264  0.00  0.00    +0.000 A 
ATOM     33  N   UNL     1       4.371   6.463  17.847  0.00  0.00    +0.000 NA
BRANCH  23  35
ATOM     34  C   UNL     1       7.527   7.476  17.479  0.00  0.00    +0.000 C 
ATOM     35  O   UNL     1       6.276   7.372  16.802  0.00  0.00    +0.000 OA
ENDBRANCH  23  35
ENDBRANCH  22  31
ENDBRANCH  21  22
ENDBRANCH   1  21
TORSDOF 8
ENDMDL
