MODEL 1
REMARK VINA RESULT:      -7.7      0.000      0.000
REMARK  Name = 
REMARK  5 active torsions:
REMARK  status: ('A' for Active; 'I' for Inactive)
REMARK    1  A    between atoms: C_1  and  O_2
REMARK    2  A    between atoms: O_2  and  C_3
REMARK    3  A    between atoms: C_3  and  C_5
REMARK    4  A    between atoms: C_8  and  C_9
REMARK    5  A    between atoms: C_14  and  C_15
REMARK                            x       y       z     vdW  Elec       q    Type
REMARK                         _______ _______ _______ _____ _____    ______ ____
ROOT
ATOM      1  C   UNL     1       2.524   8.089  18.008  0.00  0.00    +0.000 C 
ATOM      2  O   UNL     1       3.169   8.357  16.991  0.00  0.00    +0.000 OA
ATOM      3  N   UNL     1       1.816   9.084  18.727  0.00  0.00    +0.000 N 
ATOM      4  C   UNL     1       1.620  10.324  17.967  0.00  0.00    +0.000 C 
ATOM      5  C   UNL     1       1.303  11.619  18.711  0.00  0.00    +0.000 C 
ATOM      6  C   UNL     1      -0.064  11.695  19.412  0.00  0.00    +0.000 C 
ATOM      7  S   UNL     1       0.100  11.133  21.118  0.00  0.00    +0.000 S 
ATOM      8  O   UNL     1      -1.159  10.659  21.656  0.00  0.00    +0.000 OA
ATOM      9  O   UNL     1       0.807  12.183  21.837  0.00  0.00    +0.000 OA
ATOM     10  C   UNL     1       1.217   9.760  21.080  0.00  0.00    +0.000 C 
ATOM     11  C   UNL     1       1.012   8.807  19.927  0.00  0.00    +0.000 C 
ENDROOT
BRANCH   1  15
ATOM     12  C   UNL     1       2.782   3.991  19.288  0.00  0.00    +0.000 A 
ATOM     13  C   UNL     1       3.679   4.957  19.758  0.00  0.00    +0.000 A 
ATOM     14  C   UNL     1       3.565   6.286  19.337  0.00  0.00    +0.000 A 
ATOM     15  C   UNL     1       2.561   6.663  18.435  0.00  0.00    +0.000 A 
ATOM     16  C   UNL     1       1.719   5.679  17.904  0.00  0.00    +0.000 A 
ATOM     17  C   UNL     1       1.799   4.359  18.360  0.00  0.00    +0.000 A 
BRANCH  12  18
ATOM     18  C   UNL     1       2.925   2.592  19.778  0.00  0.00    +0.000 C 
ATOM     19  O   UNL     1       3.026   1.630  19.033  0.00  0.00    +0.000 OA
BRANCH  18  21
ATOM     20  C   UNL     1       1.632   2.615  21.714  0.00  0.00    +0.000 C 
ATOM     21  O   UNL     1       2.935   2.554  21.129  0.00  0.00    +0.000 OA
ENDBRANCH  18  21
ENDBRANCH  12  18
ENDBRANCH   1  15
BRANCH   6  22
ATOM     22  C   UNL     1      -1.252  11.182  18.596  0.00  0.00    +0.000 A 
ATOM     23  C   UNL     1      -1.249  10.092  17.715  0.00  0.00    +0.000 A 
ATOM     24  C   UNL     1      -2.397   9.708  17.011  0.00  0.00    +0.000 A 
ATOM     25  C   UNL     1      -3.585  10.407  17.170  0.00  0.00    +0.000 A 
ATOM     26  C   UNL     1      -3.627  11.488  18.040  0.00  0.00    +0.000 A 
ATOM     27  C   UNL     1      -2.480  11.865  18.746  0.00  0.00    +0.000 A 
ENDBRANCH   6  22
TORSDOF 4
ENDMDL
MODEL 2
REMARK VINA RESULT:      -7.7      0.783      1.208
REMARK  Name = 
REMARK  5 active torsions:
REMARK  status: ('A' for Active; 'I' for Inactive)
REMARK    1  A    between atoms: C_1  and  O_2
REMARK    2  A    between atoms: O_2  and  C_3
REMARK    3  A    between atoms: C_3  and  C_5
REMARK    4  A    between atoms: C_8  and  C_9
REMARK    5  A    between atoms: C_14  and  C_15
REMARK                            x       y       z     vdW  Elec       q    Type
REMARK                         _______ _______ _______ _____ _____    ______ ____
ROOT
ATOM      1  C   UNL     1       2.209   8.232  18.324  0.00  0.00    +0.000 C 
ATOM      2  O   UNL     1       2.829   8.433  17.277  0.00  0.00    +0.000 OA
ATOM      3  N   UNL     1       1.526   9.275  18.998  0.00  0.00    +0.000 N 
ATOM      4  C   UNL     1       1.318  10.468  18.168  0.00  0.00    +0.000 C 
ATOM      5  C   UNL     1       1.029  11.808  18.839  0.00  0.00    +0.000 C 
ATOM      6  C   UNL     1      -0.319  11.938  19.568  0.00  0.00    +0.000 C 
ATOM      7  S   UNL     1      -0.115  11.481  21.300  0.00  0.00    +0.000 S 
ATOM      8  O   UNL     1      -1.363  11.051  21.898  0.00  0.00    +0.000 OA
ATOM      9  O   UNL     1       0.616  12.568  21.936  0.00  0.00    +0.000 OA
ATOM     10  C   UNL     1       0.992  10.099  21.319  0.00  0.00    +0.000 C 
ATOM     11  C   UNL     1       0.751   9.079  20.233  0.00  0.00    +0.000 C 
ENDROOT
BRANCH   1  15
ATOM     12  C   UNL     1       2.263   4.148  19.669  0.00  0.00    +0.000 A 
ATOM     13  C   UNL     1       2.218   4.463  18.306  0.00  0.00    +0.000 A 
ATOM     14  C   UNL     1       2.215   5.799  17.894  0.00  0.00    +0.000 A 
ATOM     15  C   UNL     1       2.248   6.835  18.837  0.00  0.00    +0.000 A 
ATOM     16  C   UNL     1       2.210   6.515  20.200  0.00  0.00    +0.000 A 
ATOM     17  C   UNL     1       2.261   5.181  20.614  0.00  0.00    +0.000 A 
BRANCH  12  18
ATOM     18  C   UNL     1       2.286   2.712  20.064  0.00  0.00    +0.000 C 
ATOM     19  O   UNL     1       1.469   1.896  19.666  0.00  0.00    +0.000 OA
BRANCH  18  21
ATOM     20  C   UNL     1       4.538   2.142  20.216  0.00  0.00    +0.000 C 
ATOM     21  O   UNL     1       3.320   2.457  20.896  0.00  0.00    +0.000 OA
ENDBRANCH  18  21
ENDBRANCH  12  18
ENDBRANCH   1  15
BRANCH   6  22
ATOM     22  C   UNL     1      -1.531  11.386  18.816  0.00  0.00    +0.000 A 
ATOM     23  C   UNL     1      -1.539  10.294  17.937  0.00  0.00    +0.000 A 
ATOM     24  C   UNL     1      -2.709   9.872  17.294  0.00  0.00    +0.000 A 
ATOM     25  C   UNL     1      -3.909  10.533  17.514  0.00  0.00    +0.000 A 
ATOM     26  C   UNL     1      -3.940  11.615  18.383  0.00  0.00    +0.000 A 
ATOM     27  C   UNL     1      -2.771  12.030  19.028  0.00  0.00    +0.000 A 
ENDBRANCH   6  22
TORSDOF 4
ENDMDL
MODEL 3
REMARK VINA RESULT:      -7.5      0.386      1.005
REMARK  Name = 
REMARK  5 active torsions:
REMARK  status: ('A' for Active; 'I' for Inactive)
REMARK    1  A    between atoms: C_1  and  O_2
REMARK    2  A    between atoms: O_2  and  C_3
REMARK    3  A    between atoms: C_3  and  C_5
REMARK    4  A    between atoms: C_8  and  C_9
REMARK    5  A    between atoms: C_14  and  C_15
REMARK                            x       y       z     vdW  Elec       q    Type
REMARK                         _______ _______ _______ _____ _____    ______ ____
ROOT
ATOM      1  C   UNL     1       2.634   8.084  17.975  0.00  0.00    +0.000 C 
ATOM      2  O   UNL     1       3.289   8.370  16.970  0.00  0.00    +0.000 OA
ATOM      3  N   UNL     1       1.907   9.064  18.696  0.00  0.00    +0.000 N 
ATOM      4  C   UNL     1       1.706  10.310  17.946  0.00  0.00    +0.000 C 
ATOM      5  C   UNL     1       1.366  11.594  18.698  0.00  0.00    +0.000 C 
ATOM      6  C   UNL     1      -0.010  11.648  19.382  0.00  0.00    +0.000 C 
ATOM      7  S   UNL     1       0.138  11.070  21.084  0.00  0.00    +0.000 S 
ATOM      8  O   UNL     1      -1.123  10.577  21.601  0.00  0.00    +0.000 OA
ATOM      9  O   UNL     1       0.823  12.121  21.823  0.00  0.00    +0.000 OA
ATOM     10  C   UNL     1       1.270   9.710  21.047  0.00  0.00    +0.000 C 
ATOM     11  C   UNL     1       1.090   8.767  19.882  0.00  0.00    +0.000 C 
ENDROOT
BRANCH   1  15
ATOM     12  C   UNL     1       2.620   3.939  19.122  0.00  0.00    +0.000 A 
ATOM     13  C   UNL     1       1.685   4.445  18.211  0.00  0.00    +0.000 A 
ATOM     14  C   UNL     1       1.720   5.793  17.844  0.00  0.00    +0.000 A 
ATOM     15  C   UNL     1       2.682   6.655  18.389  0.00  0.00    +0.000 A 
ATOM     16  C   UNL     1       3.561   6.164  19.361  0.00  0.00    +0.000 A 
ATOM     17  C   UNL     1       3.560   4.806  19.694  0.00  0.00    +0.000 A 
BRANCH  12  18
ATOM     18  C   UNL     1       2.561   2.492  19.470  0.00  0.00    +0.000 C 
ATOM     19  O   UNL     1       3.421   1.690  19.141  0.00  0.00    +0.000 OA
BRANCH  18  21
ATOM     20  C   UNL     1       1.540   2.617  21.558  0.00  0.00    +0.000 C 
ATOM     21  O   UNL     1       1.451   2.215  20.189  0.00  0.00    +0.000 OA
ENDBRANCH  18  21
ENDBRANCH  12  18
ENDBRANCH   1  15
BRANCH   6  22
ATOM     22  C   UNL     1      -1.182  11.131  18.546  0.00  0.00    +0.000 A 
ATOM     23  C   UNL     1      -1.152  10.061  17.642  0.00  0.00    +0.000 A 
ATOM     24  C   UNL     1      -2.287   9.670  16.920  0.00  0.00    +0.000 A 
ATOM     25  C   UNL     1      -3.490  10.342  17.085  0.00  0.00    +0.000 A 
ATOM     26  C   UNL     1      -3.559  11.403  17.978  0.00  0.00    +0.000 A 
ATOM     27  C   UNL     1      -2.425  11.787  18.702  0.00  0.00    +0.000 A 
ENDBRANCH   6  22
TORSDOF 4
ENDMDL
MODEL 4
REMARK VINA RESULT:      -7.5      0.751      1.078
REMARK  Name = 
REMARK  5 active torsions:
REMARK  status: ('A' for Active; 'I' for Inactive)
REMARK    1  A    between atoms: C_1  and  O_2
REMARK    2  A    between atoms: O_2  and  C_3
REMARK    3  A    between atoms: C_3  and  C_5
REMARK    4  A    between atoms: C_8  and  C_9
REMARK    5  A    between atoms: C_14  and  C_15
REMARK                            x       y       z     vdW  Elec       q    Type
REMARK                         _______ _______ _______ _____ _____    ______ ____
ROOT
ATOM      1  C   UNL     1       2.176   8.152  18.274  0.00  0.00    +0.000 C 
ATOM      2  O   UNL     1       2.813   8.353  17.237  0.00  0.00    +0.000 OA
ATOM      3  N   UNL     1       1.510   9.201  18.955  0.00  0.00    +0.000 N 
ATOM      4  C   UNL     1       1.340  10.411  18.140  0.00  0.00    +0.000 C 
ATOM      5  C   UNL     1       1.074  11.748  18.826  0.00  0.00    +0.000 C 
ATOM      6  C   UNL     1      -0.279  11.900  19.542  0.00  0.00    +0.000 C 
ATOM      7  S   UNL     1      -0.107  11.413  21.269  0.00  0.00    +0.000 S 
ATOM      8  O   UNL     1      -1.372  11.004  21.846  0.00  0.00    +0.000 OA
ATOM      9  O   UNL     1       0.642  12.474  21.929  0.00  0.00    +0.000 OA
ATOM     10  C   UNL     1       0.967  10.005  21.281  0.00  0.00    +0.000 C 
ATOM     11  C   UNL     1       0.715   9.007  20.178  0.00  0.00    +0.000 C 
ENDROOT
BRANCH   1  15
ATOM     12  C   UNL     1       2.242   4.146  19.836  0.00  0.00    +0.000 A 
ATOM     13  C   UNL     1       2.333   5.257  20.681  0.00  0.00    +0.000 A 
ATOM     14  C   UNL     1       2.295   6.550  20.150  0.00  0.00    +0.000 A 
ATOM     15  C   UNL     1       2.176   6.748  18.768  0.00  0.00    +0.000 A 
ATOM     16  C   UNL     1       2.169   5.634  17.919  0.00  0.00    +0.000 A 
ATOM     17  C   UNL     1       2.158   4.341  18.451  0.00  0.00    +0.000 A 
BRANCH  12  18
ATOM     18  C   UNL     1       2.266   2.787  20.445  0.00  0.00    +0.000 C 
ATOM     19  O   UNL     1       1.593   2.479  21.416  0.00  0.00    +0.000 OA
BRANCH  18  21
ATOM     20  C   UNL     1       4.482   2.145  20.140  0.00  0.00    +0.000 C 
ATOM     21  O   UNL     1       3.111   1.973  19.774  0.00  0.00    +0.000 OA
ENDBRANCH  18  21
ENDBRANCH  12  18
ENDBRANCH   1  15
BRANCH   6  22
ATOM     22  C   UNL     1      -1.495  11.386  18.767  0.00  0.00    +0.000 A 
ATOM     23  C   UNL     1      -1.507  10.342  17.832  0.00  0.00    +0.000 A 
ATOM     24  C   UNL     1      -2.680   9.954  17.174  0.00  0.00    +0.000 A 
ATOM     25  C   UNL     1      -3.880  10.601  17.435  0.00  0.00    +0.000 A 
ATOM     26  C   UNL     1      -3.907  11.635  18.360  0.00  0.00    +0.000 A 
ATOM     27  C   UNL     1      -2.734  12.017  19.020  0.00  0.00    +0.000 A 
ENDBRANCH   6  22
TORSDOF 4
ENDMDL
MODEL 5
REMARK VINA RESULT:      -7.4      2.324      3.824
REMARK  Name = 
REMARK  5 active torsions:
REMARK  status: ('A' for Active; 'I' for Inactive)
REMARK    1  A    between atoms: C_1  and  O_2
REMARK    2  A    between atoms: O_2  and  C_3
REMARK    3  A    between atoms: C_3  and  C_5
REMARK    4  A    between atoms: C_8  and  C_9
REMARK    5  A    between atoms: C_14  and  C_15
REMARK                            x       y       z     vdW  Elec       q    Type
REMARK                         _______ _______ _______ _____ _____    ______ ____
ROOT
ATOM      1  C   UNL     1       1.343   8.744  21.027  0.00  0.00    +0.000 C 
ATOM      2  O   UNL     1       1.788   8.751  22.177  0.00  0.00    +0.000 OA
ATOM      3  N   UNL     1       0.540   9.801  20.530  0.00  0.00    +0.000 N 
ATOM      4  C   UNL     1       0.610  11.019  21.347  0.00  0.00    +0.000 C 
ATOM      5  C   UNL     1      -0.500  12.062  21.237  0.00  0.00    +0.000 C 
ATOM      6  C   UNL     1      -0.602  12.822  19.904  0.00  0.00    +0.000 C 
ATOM      7  S   UNL     1      -1.743  11.962  18.804  0.00  0.00    +0.000 S 
ATOM      8  O   UNL     1      -1.485  12.266  17.411  0.00  0.00    +0.000 OA
ATOM      9  O   UNL     1      -3.082  12.195  19.326  0.00  0.00    +0.000 OA
ATOM     10  C   UNL     1      -1.444  10.232  19.039  0.00  0.00    +0.000 C 
ATOM     11  C   UNL     1       0.011   9.850  19.159  0.00  0.00    +0.000 C 
ENDROOT
BRANCH   1  15
ATOM     12  C   UNL     1       2.333   5.197  18.806  0.00  0.00    +0.000 A 
ATOM     13  C   UNL     1       1.774   5.120  20.087  0.00  0.00    +0.000 A 
ATOM     14  C   UNL     1       1.448   6.288  20.782  0.00  0.00    +0.000 A 
ATOM     15  C   UNL     1       1.685   7.546  20.212  0.00  0.00    +0.000 A 
ATOM     16  C   UNL     1       2.320   7.619  18.966  0.00  0.00    +0.000 A 
ATOM     17  C   UNL     1       2.603   6.453  18.247  0.00  0.00    +0.000 A 
BRANCH  12  18
ATOM     18  C   UNL     1       2.646   3.928  18.091  0.00  0.00    +0.000 C 
ATOM     19  O   UNL     1       2.069   3.574  17.075  0.00  0.00    +0.000 OA
BRANCH  18  21
ATOM     20  C   UNL     1       3.541   1.836  18.581  0.00  0.00    +0.000 C 
ATOM     21  O   UNL     1       3.639   3.256  18.714  0.00  0.00    +0.000 OA
ENDBRANCH  18  21
ENDBRANCH  12  18
ENDBRANCH   1  15
BRANCH   6  22
ATOM     22  C   UNL     1       0.725  13.314  19.323  0.00  0.00    +0.000 A 
ATOM     23  C   UNL     1       1.627  12.565  18.555  0.00  0.00    +0.000 A 
ATOM     24  C   UNL     1       2.821  13.115  18.074  0.00  0.00    +0.000 A 
ATOM     25  C   UNL     1       3.149  14.435  18.348  0.00  0.00    +0.000 A 
ATOM     26  C   UNL     1       2.276  15.209  19.101  0.00  0.00    +0.000 A 
ATOM     27  C   UNL     1       1.080  14.659  19.575  0.00  0.00    +0.000 A 
ENDBRANCH   6  22
TORSDOF 4
ENDMDL
MODEL 6
REMARK VINA RESULT:      -7.3      0.795      1.615
REMARK  Name = 
REMARK  5 active torsions:
REMARK  status: ('A' for Active; 'I' for Inactive)
REMARK    1  A    between atoms: C_1  and  O_2
REMARK    2  A    between atoms: O_2  and  C_3
REMARK    3  A    between atoms: C_3  and  C_5
REMARK    4  A    between atoms: C_8  and  C_9
REMARK    5  A    between atoms: C_14  and  C_15
REMARK                            x       y       z     vdW  Elec       q    Type
REMARK                         _______ _______ _______ _____ _____    ______ ____
ROOT
ATOM      1  C   UNL     1       2.181   8.281  18.362  0.00  0.00    +0.000 C 
ATOM      2  O   UNL     1       2.816   8.458  17.319  0.00  0.00    +0.000 OA
ATOM      3  N   UNL     1       1.504   9.343  19.012  0.00  0.00    +0.000 N 
ATOM      4  C   UNL     1       1.321  10.525  18.162  0.00  0.00    +0.000 C 
ATOM      5  C   UNL     1       1.041  11.879  18.808  0.00  0.00    +0.000 C 
ATOM      6  C   UNL     1      -0.314  12.037  19.519  0.00  0.00    +0.000 C 
ATOM      7  S   UNL     1      -0.136  11.604  21.261  0.00  0.00    +0.000 S 
ATOM      8  O   UNL     1      -1.397  11.199  21.849  0.00  0.00    +0.000 OA
ATOM      9  O   UNL     1       0.601  12.692  21.888  0.00  0.00    +0.000 OA
ATOM     10  C   UNL     1       0.952  10.209  21.313  0.00  0.00    +0.000 C 
ATOM     11  C   UNL     1       0.711   9.176  20.240  0.00  0.00    +0.000 C 
ENDROOT
BRANCH   1  15
ATOM     12  C   UNL     1       2.162   4.218  19.771  0.00  0.00    +0.000 A 
ATOM     13  C   UNL     1       2.094   4.513  18.405  0.00  0.00    +0.000 A 
ATOM     14  C   UNL     1       2.116   5.843  17.971  0.00  0.00    +0.000 A 
ATOM     15  C   UNL     1       2.196   6.892  18.897  0.00  0.00    +0.000 A 
ATOM     16  C   UNL     1       2.180   6.594  20.265  0.00  0.00    +0.000 A 
ATOM     17  C   UNL     1       2.207   5.265  20.700  0.00  0.00    +0.000 A 
BRANCH  12  18
ATOM     18  C   UNL     1       2.157   2.788  20.189  0.00  0.00    +0.000 C 
ATOM     19  O   UNL     1       1.397   2.341  21.034  0.00  0.00    +0.000 OA
BRANCH  18  21
ATOM     20  C   UNL     1       4.403   2.192  20.051  0.00  0.00    +0.000 C 
ATOM     21  O   UNL     1       3.086   2.084  19.505  0.00  0.00    +0.000 OA
ENDBRANCH  18  21
ENDBRANCH  12  18
ENDBRANCH   1  15
BRANCH   6  22
ATOM     22  C   UNL     1      -1.524  11.489  18.761  0.00  0.00    +0.000 A 
ATOM     23  C   UNL     1      -2.854  11.910  18.897  0.00  0.00    +0.000 A 
ATOM     24  C   UNL     1      -3.891  11.334  18.154  0.00  0.00    +0.000 A 
ATOM     25  C   UNL     1      -3.626  10.317  17.247  0.00  0.00    +0.000 A 
ATOM     26  C   UNL     1      -2.319   9.879  17.081  0.00  0.00    +0.000 A 
ATOM     27  C   UNL     1      -1.284  10.460  17.821  0.00  0.00    +0.000 A 
ENDBRANCH   6  22
TORSDOF 4
ENDMDL
MODEL 7
REMARK VINA RESULT:      -7.3      3.138      8.111
REMARK  Name = 
REMARK  5 active torsions:
REMARK  status: ('A' for Active; 'I' for Inactive)
REMARK    1  A    between atoms: C_1  and  O_2
REMARK    2  A    between atoms: O_2  and  C_3
REMARK    3  A    between atoms: C_3  and  C_5
REMARK    4  A    between atoms: C_8  and  C_9
REMARK    5  A    between atoms: C_14  and  C_15
REMARK                            x       y       z     vdW  Elec       q    Type
REMARK                         _______ _______ _______ _____ _____    ______ ____
ROOT
ATOM      1  C   UNL     1       2.256   8.178  18.075  0.00  0.00    +0.000 C 
ATOM      2  O   UNL     1       2.162   8.900  17.080  0.00  0.00    +0.000 OA
ATOM      3  N   UNL     1       2.961   6.948  18.040  0.00  0.00    +0.000 N 
ATOM      4  C   UNL     1       3.846   6.816  16.876  0.00  0.00    +0.000 C 
ATOM      5  C   UNL     1       4.312   5.429  16.440  0.00  0.00    +0.000 C 
ATOM      6  C   UNL     1       5.265   4.690  17.394  0.00  0.00    +0.000 C 
ATOM      7  S   UNL     1       4.309   3.661  18.525  0.00  0.00    +0.000 S 
ATOM      8  O   UNL     1       5.033   3.385  19.750  0.00  0.00    +0.000 OA
ATOM      9  O   UNL     1       3.815   2.534  17.747  0.00  0.00    +0.000 OA
ATOM     10  C   UNL     1       2.871   4.601  18.953  0.00  0.00    +0.000 C 
ATOM     11  C   UNL     1       3.125   6.067  19.207  0.00  0.00    +0.000 C 
ENDROOT
BRANCH   1  15
ATOM     12  C   UNL     1       0.239   9.744  21.535  0.00  0.00    +0.000 A 
ATOM     13  C   UNL     1       0.129  10.365  20.286  0.00  0.00    +0.000 A 
ATOM     14  C   UNL     1       0.783   9.828  19.173  0.00  0.00    +0.000 A 
ATOM     15  C   UNL     1       1.563   8.671  19.297  0.00  0.00    +0.000 A 
ATOM     16  C   UNL     1       1.738   8.100  20.563  0.00  0.00    +0.000 A 
ATOM     17  C   UNL     1       1.046   8.607  21.668  0.00  0.00    +0.000 A 
BRANCH  12  18
ATOM     18  C   UNL     1      -0.491  10.337  22.690  0.00  0.00    +0.000 C 
ATOM     19  O   UNL     1      -0.240  10.061  23.852  0.00  0.00    +0.000 OA
BRANCH  18  21
ATOM     20  C   UNL     1      -1.942  12.051  23.303  0.00  0.00    +0.000 C 
ATOM     21  O   UNL     1      -1.437  11.205  22.267  0.00  0.00    +0.000 OA
ENDBRANCH  18  21
ENDBRANCH  12  18
ENDBRANCH   1  15
BRANCH   6  22
ATOM     22  C   UNL     1       6.401   5.534  17.975  0.00  0.00    +0.000 A 
ATOM     23  C   UNL     1       7.134   5.257  19.137  0.00  0.00    +0.000 A 
ATOM     24  C   UNL     1       8.156   6.103  19.585  0.00  0.00    +0.000 A 
ATOM     25  C   UNL     1       8.476   7.255  18.878  0.00  0.00    +0.000 A 
ATOM     26  C   UNL     1       7.775   7.557  17.719  0.00  0.00    +0.000 A 
ATOM     27  C   UNL     1       6.758   6.707  17.271  0.00  0.00    +0.000 A 
ENDBRANCH   6  22
TORSDOF 4
ENDMDL
MODEL 8
REMARK VINA RESULT:      -7.2      2.457      4.012
REMARK  Name = 
REMARK  5 active torsions:
REMARK  status: ('A' for Active; 'I' for Inactive)
REMARK    1  A    between atoms: C_1  and  O_2
REMARK    2  A    between atoms: O_2  and  C_3
REMARK    3  A    between atoms: C_3  and  C_5
REMARK    4  A    between atoms: C_8  and  C_9
REMARK    5  A    between atoms: C_14  and  C_15
REMARK                            x       y       z     vdW  Elec       q    Type
REMARK                         _______ _______ _______ _____ _____    ______ ____
ROOT
ATOM      1  C   UNL     1       1.311   8.831  21.077  0.00  0.00    +0.000 C 
ATOM      2  O   UNL     1       1.727   8.872  22.237  0.00  0.00    +0.000 OA
ATOM      3  N   UNL     1       0.491   9.856  20.541  0.00  0.00    +0.000 N 
ATOM      4  C   UNL     1       0.507  11.090  21.335  0.00  0.00    +0.000 C 
ATOM      5  C   UNL     1      -0.628  12.099  21.179  0.00  0.00    +0.000 C 
ATOM      6  C   UNL     1      -0.719  12.831  19.829  0.00  0.00    +0.000 C 
ATOM      7  S   UNL     1      -1.809  11.918  18.720  0.00  0.00    +0.000 S 
ATOM      8  O   UNL     1      -1.526  12.203  17.327  0.00  0.00    +0.000 OA
ATOM      9  O   UNL     1      -3.166  12.124  19.205  0.00  0.00    +0.000 OA
ATOM     10  C   UNL     1      -1.468  10.202  18.995  0.00  0.00    +0.000 C 
ATOM     11  C   UNL     1      -0.007   9.864  19.157  0.00  0.00    +0.000 C 
ENDROOT
BRANCH   1  15
ATOM     12  C   UNL     1       2.443   5.443  18.683  0.00  0.00    +0.000 A 
ATOM     13  C   UNL     1       2.584   6.750  18.204  0.00  0.00    +0.000 A 
ATOM     14  C   UNL     1       2.221   7.836  19.008  0.00  0.00    +0.000 A 
ATOM     15  C   UNL     1       1.705   7.628  20.294  0.00  0.00    +0.000 A 
ATOM     16  C   UNL     1       1.489   6.317  20.737  0.00  0.00    +0.000 A 
ATOM     17  C   UNL     1       1.896   5.231  19.955  0.00  0.00    +0.000 A 
BRANCH  12  18
ATOM     18  C   UNL     1       2.861   4.316  17.803  0.00  0.00    +0.000 C 
ATOM     19  O   UNL     1       2.071   3.634  17.170  0.00  0.00    +0.000 OA
BRANCH  18  21
ATOM     20  C   UNL     1       4.782   4.153  16.497  0.00  0.00    +0.000 C 
ATOM     21  O   UNL     1       4.206   4.176  17.806  0.00  0.00    +0.000 OA
ENDBRANCH  18  21
ENDBRANCH  12  18
ENDBRANCH   1  15
BRANCH   6  22
ATOM     22  C   UNL     1       0.607  13.349  19.270  0.00  0.00    +0.000 A 
ATOM     23  C   UNL     1       1.569  12.600  18.577  0.00  0.00    +0.000 A 
ATOM     24  C   UNL     1       2.757  13.175  18.110  0.00  0.00    +0.000 A 
ATOM     25  C   UNL     1       3.017  14.522  18.322  0.00  0.00    +0.000 A 
ATOM     26  C   UNL     1       2.084  15.296  18.998  0.00  0.00    +0.000 A 
ATOM     27  C   UNL     1       0.896  14.720  19.459  0.00  0.00    +0.000 A 
ENDBRANCH   6  22
TORSDOF 4
ENDMDL
MODEL 9
REMARK VINA RESULT:      -6.9      2.394      4.046
REMARK  Name = 
REMARK  5 active torsions:
REMARK  status: ('A' for Active; 'I' for Inactive)
REMARK    1  A    between atoms: C_1  and  O_2
REMARK    2  A    between atoms: O_2  and  C_3
REMARK    3  A    between atoms: C_3  and  C_5
REMARK    4  A    between atoms: C_8  and  C_9
REMARK    5  A    between atoms: C_14  and  C_15
REMARK                            x       y       z     vdW  Elec       q    Type
REMARK                         _______ _______ _______ _____ _____    ______ ____
ROOT
ATOM      1  C   UNL     1       1.318   8.642  20.958  0.00  0.00    +0.000 C 
ATOM      2  O   UNL     1       1.646   8.505  22.139  0.00  0.00    +0.000 OA
ATOM      3  N   UNL     1       0.527   9.736  20.525  0.00  0.00    +0.000 N 
ATOM      4  C   UNL     1       0.468  10.834  21.498  0.00  0.00    +0.000 C 
ATOM      5  C   UNL     1      -0.666  11.853  21.413  0.00  0.00    +0.000 C 
ATOM      6  C   UNL     1      -0.666  12.783  20.188  0.00  0.00    +0.000 C 
ATOM      7  S   UNL     1      -1.658  12.050  18.873  0.00  0.00    +0.000 S 
ATOM      8  O   UNL     1      -1.276  12.547  17.566  0.00  0.00    +0.000 OA
ATOM      9  O   UNL     1      -3.050  12.177  19.280  0.00  0.00    +0.000 OA
ATOM     10  C   UNL     1      -1.316  10.313  18.907  0.00  0.00    +0.000 C 
ATOM     11  C   UNL     1       0.134   9.957  19.125  0.00  0.00    +0.000 C 
ENDROOT
BRANCH   1  15
ATOM     12  C   UNL     1       2.683   5.460  18.407  0.00  0.00    +0.000 A 
ATOM     13  C   UNL     1       2.156   5.199  19.677  0.00  0.00    +0.000 A 
ATOM     14  C   UNL     1       1.706   6.250  20.482  0.00  0.00    +0.000 A 
ATOM     15  C   UNL     1       1.786   7.575  20.032  0.00  0.00    +0.000 A 
ATOM     16  C   UNL     1       2.389   7.838  18.797  0.00  0.00    +0.000 A 
ATOM     17  C   UNL     1       2.796   6.786  17.969  0.00  0.00    +0.000 A 
BRANCH  12  18
ATOM     18  C   UNL     1       3.131   4.310  17.574  0.00  0.00    +0.000 C 
ATOM     19  O   UNL     1       4.276   4.186  17.167  0.00  0.00    +0.000 OA
BRANCH  18  21
ATOM     20  C   UNL     1       2.391   2.112  17.774  0.00  0.00    +0.000 C 
ATOM     21  O   UNL     1       2.112   3.450  17.353  0.00  0.00    +0.000 OA
ENDBRANCH  18  21
ENDBRANCH  12  18
ENDBRANCH   1  15
BRANCH   6  22
ATOM     22  C   UNL     1       0.692  13.384  19.817  0.00  0.00    +0.000 A 
ATOM     23  C   UNL     1       1.406  14.343  20.548  0.00  0.00    +0.000 A 
ATOM     24  C   UNL     1       2.644  14.831  20.114  0.00  0.00    +0.000 A 
ATOM     25  C   UNL     1       3.206  14.370  18.931  0.00  0.00    +0.000 A 
ATOM     26  C   UNL     1       2.530  13.414  18.185  0.00  0.00    +0.000 A 
ATOM     27  C   UNL     1       1.296  12.924  18.625  0.00  0.00    +0.000 A 
ENDBRANCH   6  22
TORSDOF 4
ENDMDL
