MODEL 1
REMARK VINA RESULT:      -9.7      0.000      0.000
REMARK  Name = 
REMARK  7 active torsions:
REMARK  status: ('A' for Active; 'I' for Inactive)
REMARK    1  A    between atoms: C_1  and  C_2
REMARK    2  A    between atoms: C_2  and  C_3
REMARK    3  A    between atoms: C_3  and  N_4
REMARK    4  A    between atoms: C_3  and  C_29
REMARK    5  A    between atoms: C_5  and  C_7
REMARK    6  A    between atoms: N_14  and  S_15
REMARK    7  A    between atoms: S_15  and  C_18
REMARK                            x       y       z     vdW  Elec       q    Type
REMARK                         _______ _______ _______ _____ _____    ______ ____
ROOT
ATOM      1  C   UNL     1       1.933   7.409  19.942  0.00  0.00    +0.000 A 
ATOM      2  C   UNL     1       1.811   8.299  18.859  0.00  0.00    +0.000 A 
ATOM      3  C   UNL     1       1.134   9.546  18.943  0.00  0.00    +0.000 A 
ATOM      4  C   UNL     1       0.527   9.922  20.146  0.00  0.00    +0.000 A 
ATOM      5  C   UNL     1       0.668   9.058  21.269  0.00  0.00    +0.000 A 
ATOM      6  C   UNL     1      -0.006   9.685  22.358  0.00  0.00    +0.000 A 
ATOM      7  C   UNL     1      -0.543  10.882  21.904  0.00  0.00    +0.000 A 
ATOM      8  N   UNL     1      -0.267  11.012  20.569  0.00  0.00    +0.000 N 
ATOM      9  C   UNL     1       1.367   7.803  21.160  0.00  0.00    +0.000 A 
ENDROOT
BRANCH   1  11
ATOM     10  N   UNL     1       2.997   5.706  18.392  0.00  0.00    +0.000 N 
ATOM     11  C   UNL     1       2.542   6.066  19.677  0.00  0.00    +0.000 C 
ATOM     12  O   UNL     1       2.627   5.257  20.602  0.00  0.00    +0.000 OA
ATOM     13  H   UNL     1       2.775   6.300  17.611  0.00  0.00    +0.000 HD
BRANCH  10  14
ATOM     14  C   UNL     1       3.575   4.363  18.113  0.00  0.00    +0.000 C 
BRANCH  14  15
ATOM     15  C   UNL     1       4.890   4.484  17.341  0.00  0.00    +0.000 A 
ATOM     16  C   UNL     1       6.101   4.704  18.027  0.00  0.00    +0.000 A 
ATOM     17  C   UNL     1       7.319   4.758  17.342  0.00  0.00    +0.000 A 
ATOM     18  C   UNL     1       7.349   4.589  15.958  0.00  0.00    +0.000 A 
ATOM     19  C   UNL     1       6.162   4.366  15.266  0.00  0.00    +0.000 A 
ATOM     20  C   UNL     1       4.943   4.316  15.947  0.00  0.00    +0.000 A 
ENDBRANCH  14  15
BRANCH  14  22
ATOM     21  C   UNL     1       1.596   2.688  18.296  0.00  0.00    +0.000 C 
ATOM     22  C   UNL     1       2.561   3.442  17.379  0.00  0.00    +0.000 C 
ENDBRANCH  14  22
ENDBRANCH  10  14
ENDBRANCH   1  11
BRANCH   8  23
ATOM     23  S   UNL     1      -0.960  12.377  19.593  0.00  0.00    +0.000 S 
ATOM     24  O   UNL     1      -1.474  13.300  20.584  0.00  0.00    +0.000 OA
ATOM     25  O   UNL     1       0.113  12.734  18.676  0.00  0.00    +0.000 OA
BRANCH  23  26
ATOM     26  C   UNL     1      -2.359  11.795  18.616  0.00  0.00    +0.000 A 
ATOM     27  C   UNL     1      -1.923  11.027  17.557  0.00  0.00    +0.000 A 
ATOM     28  C   UNL     1      -2.798  10.134  17.021  0.00  0.00    +0.000 A 
ATOM     29  C   UNL     1      -4.015  10.713  16.721  0.00  0.00    +0.000 A 
ATOM     30  C   UNL     1      -4.592  11.556  17.666  0.00  0.00    +0.000 A 
ATOM     31  C   UNL     1      -5.955  11.804  17.450  0.00  0.00    +0.000 A 
ATOM     32  C   UNL     1      -6.751  12.322  18.457  0.00  0.00    +0.000 A 
ATOM     33  C   UNL     1      -6.146  12.628  19.664  0.00  0.00    +0.000 A 
ATOM     34  C   UNL     1      -4.718  12.514  19.825  0.00  0.00    +0.000 A 
ATOM     35  C   UNL     1      -3.832  12.003  18.800  0.00  0.00    +0.000 A 
ENDBRANCH  23  26
ENDBRANCH   8  23
TORSDOF 6
ENDMDL
MODEL 2
REMARK VINA RESULT:      -9.6      1.113      2.129
REMARK  Name = 
REMARK  7 active torsions:
REMARK  status: ('A' for Active; 'I' for Inactive)
REMARK    1  A    between atoms: C_1  and  C_2
REMARK    2  A    between atoms: C_2  and  C_3
REMARK    3  A    between atoms: C_3  and  N_4
REMARK    4  A    between atoms: C_3  and  C_29
REMARK    5  A    between atoms: C_5  and  C_7
REMARK    6  A    between atoms: N_14  and  S_15
REMARK    7  A    between atoms: S_15  and  C_18
REMARK                            x       y       z     vdW  Elec       q    Type
REMARK                         _______ _______ _______ _____ _____    ______ ____
ROOT
ATOM      1  C   UNL     1       1.491   7.714  20.499  0.00  0.00    +0.000 A 
ATOM      2  C   UNL     1       1.409   8.746  19.545  0.00  0.00    +0.000 A 
ATOM      3  C   UNL     1       0.800  10.004  19.803  0.00  0.00    +0.000 A 
ATOM      4  C   UNL     1       0.222  10.248  21.054  0.00  0.00    +0.000 A 
ATOM      5  C   UNL     1       0.324   9.235  22.050  0.00  0.00    +0.000 A 
ATOM      6  C   UNL     1      -0.308   9.745  23.221  0.00  0.00    +0.000 A 
ATOM      7  C   UNL     1      -0.783  11.019  22.938  0.00  0.00    +0.000 A 
ATOM      8  N   UNL     1      -0.509  11.311  21.629  0.00  0.00    +0.000 N 
ATOM      9  C   UNL     1       0.955   7.971  21.766  0.00  0.00    +0.000 A 
ENDROOT
BRANCH   1  11
ATOM     10  N   UNL     1       2.451   6.179  18.721  0.00  0.00    +0.000 N 
ATOM     11  C   UNL     1       2.024   6.388  20.048  0.00  0.00    +0.000 C 
ATOM     12  O   UNL     1       2.073   5.460  20.857  0.00  0.00    +0.000 OA
ATOM     13  H   UNL     1       2.255   6.883  18.029  0.00  0.00    +0.000 HD
BRANCH  10  14
ATOM     14  C   UNL     1       2.954   4.857  18.258  0.00  0.00    +0.000 C 
BRANCH  14  15
ATOM     15  C   UNL     1       4.073   5.029  17.229  0.00  0.00    +0.000 A 
ATOM     16  C   UNL     1       4.655   3.902  16.616  0.00  0.00    +0.000 A 
ATOM     17  C   UNL     1       5.637   4.043  15.631  0.00  0.00    +0.000 A 
ATOM     18  C   UNL     1       6.051   5.315  15.236  0.00  0.00    +0.000 A 
ATOM     19  C   UNL     1       5.482   6.439  15.827  0.00  0.00    +0.000 A 
ATOM     20  C   UNL     1       4.503   6.300  16.816  0.00  0.00    +0.000 A 
ENDBRANCH  14  15
BRANCH  14  22
ATOM     21  C   UNL     1       1.704   2.581  18.360  0.00  0.00    +0.000 C 
ATOM     22  C   UNL     1       1.805   3.964  17.713  0.00  0.00    +0.000 C 
ENDBRANCH  14  22
ENDBRANCH  10  14
ENDBRANCH   1  11
BRANCH   8  23
ATOM     23  S   UNL     1      -1.135  12.828  20.852  0.00  0.00    +0.000 S 
ATOM     24  O   UNL     1      -1.494  13.679  21.968  0.00  0.00    +0.000 OA
ATOM     25  O   UNL     1      -0.096  13.189  19.898  0.00  0.00    +0.000 OA
BRANCH  23  26
ATOM     26  C   UNL     1      -2.643  12.478  19.930  0.00  0.00    +0.000 A 
ATOM     27  C   UNL     1      -3.753  12.849  20.659  0.00  0.00    +0.000 A 
ATOM     28  C   UNL     1      -4.900  13.113  19.976  0.00  0.00    +0.000 A 
ATOM     29  C   UNL     1      -5.225  12.101  19.095  0.00  0.00    +0.000 A 
ATOM     30  C   UNL     1      -4.213  11.574  18.297  0.00  0.00    +0.000 A 
ATOM     31  C   UNL     1      -4.680  10.833  17.203  0.00  0.00    +0.000 A 
ATOM     32  C   UNL     1      -3.846  10.537  16.137  0.00  0.00    +0.000 A 
ATOM     33  C   UNL     1      -2.530  10.959  16.213  0.00  0.00    +0.000 A 
ATOM     34  C   UNL     1      -2.021  11.585  17.408  0.00  0.00    +0.000 A 
ATOM     35  C   UNL     1      -2.838  11.896  18.563  0.00  0.00    +0.000 A 
ENDBRANCH  23  26
ENDBRANCH   8  23
TORSDOF 6
ENDMDL
MODEL 3
REMARK VINA RESULT:      -9.6      1.739      3.335
REMARK  Name = 
REMARK  7 active torsions:
REMARK  status: ('A' for Active; 'I' for Inactive)
REMARK    1  A    between atoms: C_1  and  C_2
REMARK    2  A    between atoms: C_2  and  C_3
REMARK    3  A    between atoms: C_3  and  N_4
REMARK    4  A    between atoms: C_3  and  C_29
REMARK    5  A    between atoms: C_5  and  C_7
REMARK    6  A    between atoms: N_14  and  S_15
REMARK    7  A    between atoms: S_15  and  C_18
REMARK                            x       y       z     vdW  Elec       q    Type
REMARK                         _______ _______ _______ _____ _____    ______ ____
ROOT
ATOM      1  C   UNL     1       1.481   9.042  19.399  0.00  0.00    +0.000 A 
ATOM      2  C   UNL     1       1.084  10.319  18.960  0.00  0.00    +0.000 A 
ATOM      3  C   UNL     1       0.300  11.208  19.744  0.00  0.00    +0.000 A 
ATOM      4  C   UNL     1      -0.134  10.810  21.013  0.00  0.00    +0.000 A 
ATOM      5  C   UNL     1       0.285   9.537  21.498  0.00  0.00    +0.000 A 
ATOM      6  C   UNL     1      -0.260   9.396  22.807  0.00  0.00    +0.000 A 
ATOM      7  C   UNL     1      -0.991  10.540  23.099  0.00  0.00    +0.000 A 
ATOM      8  N   UNL     1      -0.958  11.374  22.013  0.00  0.00    +0.000 N 
ATOM      9  C   UNL     1       1.088   8.658  20.686  0.00  0.00    +0.000 A 
ENDROOT
BRANCH   1  11
ATOM     10  N   UNL     1       2.536   6.829  18.748  0.00  0.00    +0.000 N 
ATOM     11  C   UNL     1       2.177   8.151  18.416  0.00  0.00    +0.000 C 
ATOM     12  O   UNL     1       2.453   8.596  17.301  0.00  0.00    +0.000 OA
ATOM     13  H   UNL     1       2.460   6.528  19.705  0.00  0.00    +0.000 HD
BRANCH  10  14
ATOM     14  C   UNL     1       3.254   5.947  17.787  0.00  0.00    +0.000 C 
BRANCH  14  15
ATOM     15  C   UNL     1       2.818   4.490  17.954  0.00  0.00    +0.000 A 
ATOM     16  C   UNL     1       3.714   3.442  17.664  0.00  0.00    +0.000 A 
ATOM     17  C   UNL     1       3.352   2.106  17.867  0.00  0.00    +0.000 A 
ATOM     18  C   UNL     1       2.089   1.795  18.369  0.00  0.00    +0.000 A 
ATOM     19  C   UNL     1       1.194   2.818  18.665  0.00  0.00    +0.000 A 
ATOM     20  C   UNL     1       1.551   4.154  18.459  0.00  0.00    +0.000 A 
ENDBRANCH  14  15
BRANCH  14  22
ATOM     21  C   UNL     1       5.483   6.672  16.664  0.00  0.00    +0.000 C 
ATOM     22  C   UNL     1       4.795   6.102  17.906  0.00  0.00    +0.000 C 
ENDBRANCH  14  22
ENDBRANCH  10  14
ENDBRANCH   1  11
BRANCH   8  23
ATOM     23  S   UNL     1      -1.948  12.895  21.963  0.00  0.00    +0.000 S 
ATOM     24  O   UNL     1      -2.452  13.038  23.313  0.00  0.00    +0.000 OA
ATOM     25  O   UNL     1      -1.058  13.874  21.354  0.00  0.00    +0.000 OA
BRANCH  23  26
ATOM     26  C   UNL     1      -3.367  12.678  20.874  0.00  0.00    +0.000 A 
ATOM     27  C   UNL     1      -4.527  13.075  21.506  0.00  0.00    +0.000 A 
ATOM     28  C   UNL     1      -5.581  13.437  20.725  0.00  0.00    +0.000 A 
ATOM     29  C   UNL     1      -5.864  12.491  19.761  0.00  0.00    +0.000 A 
ATOM     30  C   UNL     1      -4.802  11.947  19.042  0.00  0.00    +0.000 A 
ATOM     31  C   UNL     1      -5.190  11.289  17.868  0.00  0.00    +0.000 A 
ATOM     32  C   UNL     1      -4.266  11.000  16.877  0.00  0.00    +0.000 A 
ATOM     33  C   UNL     1      -2.945  11.341  17.110  0.00  0.00    +0.000 A 
ATOM     34  C   UNL     1      -2.532  11.877  18.383  0.00  0.00    +0.000 A 
ATOM     35  C   UNL     1      -3.448  12.177  19.464  0.00  0.00    +0.000 A 
ENDBRANCH  23  26
ENDBRANCH   8  23
TORSDOF 6
ENDMDL
MODEL 4
REMARK VINA RESULT:      -9.4      2.012      3.679
REMARK  Name = 
REMARK  7 active torsions:
REMARK  status: ('A' for Active; 'I' for Inactive)
REMARK    1  A    between atoms: C_1  and  C_2
REMARK    2  A    between atoms: C_2  and  C_3
REMARK    3  A    between atoms: C_3  and  N_4
REMARK    4  A    between atoms: C_3  and  C_29
REMARK    5  A    between atoms: C_5  and  C_7
REMARK    6  A    between atoms: N_14  and  S_15
REMARK    7  A    between atoms: S_15  and  C_18
REMARK                            x       y       z     vdW  Elec       q    Type
REMARK                         _______ _______ _______ _____ _____    ______ ____
ROOT
ATOM      1  C   UNL     1       1.085   9.423  19.459  0.00  0.00    +0.000 A 
ATOM      2  C   UNL     1       0.642  10.640  18.908  0.00  0.00    +0.000 A 
ATOM      3  C   UNL     1      -0.156  11.577  19.617  0.00  0.00    +0.000 A 
ATOM      4  C   UNL     1      -0.558  11.290  20.927  0.00  0.00    +0.000 A 
ATOM      5  C   UNL     1      -0.092  10.083  21.522  0.00  0.00    +0.000 A 
ATOM      6  C   UNL     1      -0.613  10.052  22.850  0.00  0.00    +0.000 A 
ATOM      7  C   UNL     1      -1.373  11.197  23.044  0.00  0.00    +0.000 A 
ATOM      8  N   UNL     1      -1.384  11.923  21.882  0.00  0.00    +0.000 N 
ATOM      9  C   UNL     1       0.724   9.153  20.784  0.00  0.00    +0.000 A 
ENDROOT
BRANCH   1  11
ATOM     10  N   UNL     1       2.163   7.175  18.991  0.00  0.00    +0.000 N 
ATOM     11  C   UNL     1       1.792   8.462  18.553  0.00  0.00    +0.000 C 
ATOM     12  O   UNL     1       2.067   8.818  17.406  0.00  0.00    +0.000 OA
ATOM     13  H   UNL     1       2.087   6.951  19.970  0.00  0.00    +0.000 HD
BRANCH  10  14
ATOM     14  C   UNL     1       2.892   6.225  18.107  0.00  0.00    +0.000 C 
BRANCH  14  15
ATOM     15  C   UNL     1       2.458   4.784  18.379  0.00  0.00    +0.000 A 
ATOM     16  C   UNL     1       1.660   4.480  19.500  0.00  0.00    +0.000 A 
ATOM     17  C   UNL     1       1.205   3.178  19.730  0.00  0.00    +0.000 A 
ATOM     18  C   UNL     1       1.536   2.156  18.841  0.00  0.00    +0.000 A 
ATOM     19  C   UNL     1       2.320   2.440  17.726  0.00  0.00    +0.000 A 
ATOM     20  C   UNL     1       2.779   3.740  17.496  0.00  0.00    +0.000 A 
ENDBRANCH  14  15
BRANCH  14  22
ATOM     21  C   UNL     1       5.155   6.676  16.910  0.00  0.00    +0.000 C 
ATOM     22  C   UNL     1       4.432   6.393  18.229  0.00  0.00    +0.000 C 
ENDBRANCH  14  22
ENDBRANCH  10  14
ENDBRANCH   1  11
BRANCH   8  23
ATOM     23  S   UNL     1      -2.420  13.403  21.706  0.00  0.00    +0.000 S 
ATOM     24  O   UNL     1      -2.326  14.061  22.993  0.00  0.00    +0.000 OA
ATOM     25  O   UNL     1      -1.943  14.022  20.477  0.00  0.00    +0.000 OA
BRANCH  23  26
ATOM     26  C   UNL     1      -4.142  12.931  21.462  0.00  0.00    +0.000 A 
ATOM     27  C   UNL     1      -4.886  13.218  22.586  0.00  0.00    +0.000 A 
ATOM     28  C   UNL     1      -6.227  13.387  22.431  0.00  0.00    +0.000 A 
ATOM     29  C   UNL     1      -6.805  12.348  21.731  0.00  0.00    +0.000 A 
ATOM     30  C   UNL     1      -6.167  11.897  20.579  0.00  0.00    +0.000 A 
ATOM     31  C   UNL     1      -6.979  11.114  19.747  0.00  0.00    +0.000 A 
ATOM     32  C   UNL     1      -6.629  10.879  18.429  0.00  0.00    +0.000 A 
ATOM     33  C   UNL     1      -5.429  11.402  17.977  0.00  0.00    +0.000 A 
ATOM     34  C   UNL     1      -4.529  12.074  18.882  0.00  0.00    +0.000 A 
ATOM     35  C   UNL     1      -4.829  12.327  20.275  0.00  0.00    +0.000 A 
ENDBRANCH  23  26
ENDBRANCH   8  23
TORSDOF 6
ENDMDL
MODEL 5
REMARK VINA RESULT:      -9.3      0.984      1.248
REMARK  Name = 
REMARK  7 active torsions:
REMARK  status: ('A' for Active; 'I' for Inactive)
REMARK    1  A    between atoms: C_1  and  C_2
REMARK    2  A    between atoms: C_2  and  C_3
REMARK    3  A    between atoms: C_3  and  N_4
REMARK    4  A    between atoms: C_3  and  C_29
REMARK    5  A    between atoms: C_5  and  C_7
REMARK    6  A    between atoms: N_14  and  S_15
REMARK    7  A    between atoms: S_15  and  C_18
REMARK                            x       y       z     vdW  Elec       q    Type
REMARK                         _______ _______ _______ _____ _____    ______ ____
ROOT
ATOM      1  C   UNL     1       2.366   7.253  19.279  0.00  0.00    +0.000 A 
ATOM      2  C   UNL     1       2.193   8.267  18.319  0.00  0.00    +0.000 A 
ATOM      3  C   UNL     1       1.462   9.461  18.563  0.00  0.00    +0.000 A 
ATOM      4  C   UNL     1       0.851   9.654  19.808  0.00  0.00    +0.000 A 
ATOM      5  C   UNL     1       1.042   8.660  20.811  0.00  0.00    +0.000 A 
ATOM      6  C   UNL     1       0.353   9.113  21.974  0.00  0.00    +0.000 A 
ATOM      7  C   UNL     1      -0.241  10.333  21.679  0.00  0.00    +0.000 A 
ATOM      8  N   UNL     1       0.015  10.644  20.370  0.00  0.00    +0.000 N 
ATOM      9  C   UNL     1       1.796   7.463  20.540  0.00  0.00    +0.000 A 
ENDROOT
BRANCH   1  11
ATOM     10  N   UNL     1       4.161   5.475  19.513  0.00  0.00    +0.000 N 
ATOM     11  C   UNL     1       3.030   5.983  18.842  0.00  0.00    +0.000 C 
ATOM     12  O   UNL     1       2.582   5.383  17.863  0.00  0.00    +0.000 OA
ATOM     13  H   UNL     1       4.619   6.050  20.200  0.00  0.00    +0.000 HD
BRANCH  10  14
ATOM     14  C   UNL     1       4.844   4.230  19.067  0.00  0.00    +0.000 C 
BRANCH  14  15
ATOM     15  C   UNL     1       5.558   4.448  17.731  0.00  0.00    +0.000 A 
ATOM     16  C   UNL     1       5.162   3.727  16.587  0.00  0.00    +0.000 A 
ATOM     17  C   UNL     1       5.764   3.957  15.345  0.00  0.00    +0.000 A 
ATOM     18  C   UNL     1       6.769   4.916  15.224  0.00  0.00    +0.000 A 
ATOM     19  C   UNL     1       7.168   5.641  16.344  0.00  0.00    +0.000 A 
ATOM     20  C   UNL     1       6.571   5.410  17.587  0.00  0.00    +0.000 A 
ENDBRANCH  14  15
BRANCH  14  22
ATOM     21  C   UNL     1       3.235   2.637  20.343  0.00  0.00    +0.000 C 
ATOM     22  C   UNL     1       3.863   3.027  19.003  0.00  0.00    +0.000 C 
ENDBRANCH  14  22
ENDBRANCH  10  14
ENDBRANCH   1  11
BRANCH   8  23
ATOM     23  S   UNL     1      -0.748  12.089  19.578  0.00  0.00    +0.000 S 
ATOM     24  O   UNL     1      -1.231  12.889  20.685  0.00  0.00    +0.000 OA
ATOM     25  O   UNL     1       0.273  12.566  18.657  0.00  0.00    +0.000 OA
BRANCH  23  26
ATOM     26  C   UNL     1      -2.181  11.582  18.609  0.00  0.00    +0.000 A 
ATOM     27  C   UNL     1      -1.795  10.772  17.563  0.00  0.00    +0.000 A 
ATOM     28  C   UNL     1      -2.726   9.929  17.039  0.00  0.00    +0.000 A 
ATOM     29  C   UNL     1      -3.903  10.580  16.729  0.00  0.00    +0.000 A 
ATOM     30  C   UNL     1      -4.425  11.472  17.661  0.00  0.00    +0.000 A 
ATOM     31  C   UNL     1      -5.769  11.803  17.440  0.00  0.00    +0.000 A 
ATOM     32  C   UNL     1      -6.531  12.386  18.438  0.00  0.00    +0.000 A 
ATOM     33  C   UNL     1      -5.908  12.671  19.641  0.00  0.00    +0.000 A 
ATOM     34  C   UNL     1      -4.490  12.469  19.805  0.00  0.00    +0.000 A 
ATOM     35  C   UNL     1      -3.638  11.887  18.789  0.00  0.00    +0.000 A 
ENDBRANCH  23  26
ENDBRANCH   8  23
TORSDOF 6
ENDMDL
MODEL 6
REMARK VINA RESULT:      -9.2      1.109      2.104
REMARK  Name = 
REMARK  7 active torsions:
REMARK  status: ('A' for Active; 'I' for Inactive)
REMARK    1  A    between atoms: C_1  and  C_2
REMARK    2  A    between atoms: C_2  and  C_3
REMARK    3  A    between atoms: C_3  and  N_4
REMARK    4  A    between atoms: C_3  and  C_29
REMARK    5  A    between atoms: C_5  and  C_7
REMARK    6  A    between atoms: N_14  and  S_15
REMARK    7  A    between atoms: S_15  and  C_18
REMARK                            x       y       z     vdW  Elec       q    Type
REMARK                         _______ _______ _______ _____ _____    ______ ____
ROOT
ATOM      1  C   UNL     1       2.252   7.416  19.300  0.00  0.00    +0.000 A 
ATOM      2  C   UNL     1       1.954   8.171  18.150  0.00  0.00    +0.000 A 
ATOM      3  C   UNL     1       1.129   9.327  18.164  0.00  0.00    +0.000 A 
ATOM      4  C   UNL     1       0.548   9.746  19.366  0.00  0.00    +0.000 A 
ATOM      5  C   UNL     1       0.863   9.023  20.552  0.00  0.00    +0.000 A 
ATOM      6  C   UNL     1       0.177   9.670  21.622  0.00  0.00    +0.000 A 
ATOM      7  C   UNL     1      -0.533  10.740  21.097  0.00  0.00    +0.000 A 
ATOM      8  N   UNL     1      -0.354  10.768  19.740  0.00  0.00    +0.000 N 
ATOM      9  C   UNL     1       1.710   7.858  20.512  0.00  0.00    +0.000 A 
ENDROOT
BRANCH   1  11
ATOM     10  N   UNL     1       2.991   5.437  17.895  0.00  0.00    +0.000 N 
ATOM     11  C   UNL     1       3.011   6.137  19.119  0.00  0.00    +0.000 C 
ATOM     12  O   UNL     1       3.651   5.684  20.069  0.00  0.00    +0.000 OA
ATOM     13  H   UNL     1       2.340   5.719  17.182  0.00  0.00    +0.000 HD
BRANCH  10  14
ATOM     14  C   UNL     1       3.718   4.151  17.716  0.00  0.00    +0.000 C 
BRANCH  14  15
ATOM     15  C   UNL     1       4.938   4.335  16.811  0.00  0.00    +0.000 A 
ATOM     16  C   UNL     1       4.790   4.341  15.410  0.00  0.00    +0.000 A 
ATOM     17  C   UNL     1       5.884   4.567  14.569  0.00  0.00    +0.000 A 
ATOM     18  C   UNL     1       7.147   4.797  15.115  0.00  0.00    +0.000 A 
ATOM     19  C   UNL     1       7.310   4.799  16.497  0.00  0.00    +0.000 A 
ATOM     20  C   UNL     1       6.218   4.568  17.339  0.00  0.00    +0.000 A 
ENDBRANCH  14  15
BRANCH  14  22
ATOM     21  C   UNL     1       1.807   2.467  18.232  0.00  0.00    +0.000 C 
ATOM     22  C   UNL     1       2.780   3.028  17.193  0.00  0.00    +0.000 C 
ENDBRANCH  14  22
ENDBRANCH  10  14
ENDBRANCH   1  11
BRANCH   8  23
ATOM     23  S   UNL     1      -1.271  11.932  18.691  0.00  0.00    +0.000 S 
ATOM     24  O   UNL     1      -0.418  13.102  18.626  0.00  0.00    +0.000 OA
ATOM     25  O   UNL     1      -1.614  11.149  17.513  0.00  0.00    +0.000 OA
BRANCH  23  26
ATOM     26  C   UNL     1      -2.804  12.423  19.501  0.00  0.00    +0.000 A 
ATOM     27  C   UNL     1      -2.551  13.334  20.505  0.00  0.00    +0.000 A 
ATOM     28  C   UNL     1      -3.566  14.156  20.884  0.00  0.00    +0.000 A 
ATOM     29  C   UNL     1      -4.727  13.460  21.154  0.00  0.00    +0.000 A 
ATOM     30  C   UNL     1      -5.121  12.468  20.261  0.00  0.00    +0.000 A 
ATOM     31  C   UNL     1      -6.458  12.073  20.404  0.00  0.00    +0.000 A 
ATOM     32  C   UNL     1      -7.102  11.369  19.400  0.00  0.00    +0.000 A 
ATOM     33  C   UNL     1      -6.368  11.031  18.277  0.00  0.00    +0.000 A 
ATOM     34  C   UNL     1      -4.954  11.307  18.207  0.00  0.00    +0.000 A 
ATOM     35  C   UNL     1      -4.222  12.016  19.235  0.00  0.00    +0.000 A 
ENDBRANCH  23  26
ENDBRANCH   8  23
TORSDOF 6
ENDMDL
MODEL 7
REMARK VINA RESULT:      -9.2      2.148      3.679
REMARK  Name = 
REMARK  7 active torsions:
REMARK  status: ('A' for Active; 'I' for Inactive)
REMARK    1  A    between atoms: C_1  and  C_2
REMARK    2  A    between atoms: C_2  and  C_3
REMARK    3  A    between atoms: C_3  and  N_4
REMARK    4  A    between atoms: C_3  and  C_29
REMARK    5  A    between atoms: C_5  and  C_7
REMARK    6  A    between atoms: N_14  and  S_15
REMARK    7  A    between atoms: S_15  and  C_18
REMARK                            x       y       z     vdW  Elec       q    Type
REMARK                         _______ _______ _______ _____ _____    ______ ____
ROOT
ATOM      1  C   UNL     1       1.179   9.358  19.453  0.00  0.00    +0.000 A 
ATOM      2  C   UNL     1       0.771  10.589  18.909  0.00  0.00    +0.000 A 
ATOM      3  C   UNL     1      -0.007  11.541  19.622  0.00  0.00    +0.000 A 
ATOM      4  C   UNL     1      -0.424  11.253  20.926  0.00  0.00    +0.000 A 
ATOM      5  C   UNL     1       0.007  10.030  21.515  0.00  0.00    +0.000 A 
ATOM      6  C   UNL     1      -0.522  10.002  22.839  0.00  0.00    +0.000 A 
ATOM      7  C   UNL     1      -1.255  11.164  23.038  0.00  0.00    +0.000 A 
ATOM      8  N   UNL     1      -1.239  11.900  21.883  0.00  0.00    +0.000 N 
ATOM      9  C   UNL     1       0.804   9.086  20.774  0.00  0.00    +0.000 A 
ENDROOT
BRANCH   1  11
ATOM     10  N   UNL     1       2.204   7.087  18.973  0.00  0.00    +0.000 N 
ATOM     11  C   UNL     1       1.868   8.386  18.543  0.00  0.00    +0.000 C 
ATOM     12  O   UNL     1       2.158   8.744  17.401  0.00  0.00    +0.000 OA
ATOM     13  H   UNL     1       2.117   6.857  19.949  0.00  0.00    +0.000 HD
BRANCH  10  14
ATOM     14  C   UNL     1       2.914   6.126  18.086  0.00  0.00    +0.000 C 
BRANCH  14  15
ATOM     15  C   UNL     1       2.436   4.695  18.337  0.00  0.00    +0.000 A 
ATOM     16  C   UNL     1       1.561   4.414  19.405  0.00  0.00    +0.000 A 
ATOM     17  C   UNL     1       1.067   3.122  19.613  0.00  0.00    +0.000 A 
ATOM     18  C   UNL     1       1.435   2.088  18.753  0.00  0.00    +0.000 A 
ATOM     19  C   UNL     1       2.294   2.350  17.689  0.00  0.00    +0.000 A 
ATOM     20  C   UNL     1       2.793   3.639  17.482  0.00  0.00    +0.000 A 
ENDBRANCH  14  15
BRANCH  14  22
ATOM     21  C   UNL     1       5.175   6.782  16.983  0.00  0.00    +0.000 C 
ATOM     22  C   UNL     1       4.457   6.248  18.224  0.00  0.00    +0.000 C 
ENDBRANCH  14  22
ENDBRANCH  10  14
ENDBRANCH   1  11
BRANCH   8  23
ATOM     23  S   UNL     1      -2.237  13.407  21.712  0.00  0.00    +0.000 S 
ATOM     24  O   UNL     1      -2.258  13.974  23.045  0.00  0.00    +0.000 OA
ATOM     25  O   UNL     1      -1.638  14.099  20.579  0.00  0.00    +0.000 OA
BRANCH  23  26
ATOM     26  C   UNL     1      -3.933  12.984  21.275  0.00  0.00    +0.000 A 
ATOM     27  C   UNL     1      -4.033  12.719  19.926  0.00  0.00    +0.000 A 
ATOM     28  C   UNL     1      -5.068  11.940  19.509  0.00  0.00    +0.000 A 
ATOM     29  C   UNL     1      -6.281  12.380  19.999  0.00  0.00    +0.000 A 
ATOM     30  C   UNL     1      -6.358  12.731  21.345  0.00  0.00    +0.000 A 
ATOM     31  C   UNL     1      -7.667  12.812  21.837  0.00  0.00    +0.000 A 
ATOM     32  C   UNL     1      -7.916  12.806  23.199  0.00  0.00    +0.000 A 
ATOM     33  C   UNL     1      -6.827  12.764  24.053  0.00  0.00    +0.000 A 
ATOM     34  C   UNL     1      -5.482  12.837  23.539  0.00  0.00    +0.000 A 
ATOM     35  C   UNL     1      -5.161  12.870  22.127  0.00  0.00    +0.000 A 
ENDBRANCH  23  26
ENDBRANCH   8  23
TORSDOF 6
ENDMDL
MODEL 8
REMARK VINA RESULT:      -9.2      2.860     10.368
REMARK  Name = 
REMARK  7 active torsions:
REMARK  status: ('A' for Active; 'I' for Inactive)
REMARK    1  A    between atoms: C_1  and  C_2
REMARK    2  A    between atoms: C_2  and  C_3
REMARK    3  A    between atoms: C_3  and  N_4
REMARK    4  A    between atoms: C_3  and  C_29
REMARK    5  A    between atoms: C_5  and  C_7
REMARK    6  A    between atoms: N_14  and  S_15
REMARK    7  A    between atoms: S_15  and  C_18
REMARK                            x       y       z     vdW  Elec       q    Type
REMARK                         _______ _______ _______ _____ _____    ______ ____
ROOT
ATOM      1  C   UNL     1       1.511   8.268  19.210  0.00  0.00    +0.000 A 
ATOM      2  C   UNL     1       2.297   7.764  18.157  0.00  0.00    +0.000 A 
ATOM      3  C   UNL     1       2.880   6.468  18.166  0.00  0.00    +0.000 A 
ATOM      4  C   UNL     1       2.700   5.638  19.277  0.00  0.00    +0.000 A 
ATOM      5  C   UNL     1       1.877   6.109  20.341  0.00  0.00    +0.000 A 
ATOM      6  C   UNL     1       1.834   5.070  21.317  0.00  0.00    +0.000 A 
ATOM      7  C   UNL     1       2.611   4.014  20.862  0.00  0.00    +0.000 A 
ATOM      8  N   UNL     1       3.170   4.362  19.661  0.00  0.00    +0.000 N 
ATOM      9  C   UNL     1       1.290   7.423  20.303  0.00  0.00    +0.000 A 
ENDROOT
BRANCH   1  11
ATOM     10  N   UNL     1      -0.221  10.100  19.495  0.00  0.00    +0.000 N 
ATOM     11  C   UNL     1       1.083   9.702  19.137  0.00  0.00    +0.000 C 
ATOM     12  O   UNL     1       1.889  10.545  18.739  0.00  0.00    +0.000 OA
ATOM     13  H   UNL     1      -0.920   9.394  19.657  0.00  0.00    +0.000 HD
BRANCH  10  14
ATOM     14  C   UNL     1      -0.663  11.518  19.397  0.00  0.00    +0.000 C 
BRANCH  14  15
ATOM     15  C   UNL     1      -1.419  11.942  20.658  0.00  0.00    +0.000 A 
ATOM     16  C   UNL     1      -2.603  12.699  20.557  0.00  0.00    +0.000 A 
ATOM     17  C   UNL     1      -3.338  13.044  21.696  0.00  0.00    +0.000 A 
ATOM     18  C   UNL     1      -2.904  12.635  22.956  0.00  0.00    +0.000 A 
ATOM     19  C   UNL     1      -1.739  11.882  23.073  0.00  0.00    +0.000 A 
ATOM     20  C   UNL     1      -1.000  11.540  21.937  0.00  0.00    +0.000 A 
ENDBRANCH  14  15
BRANCH  14  22
ATOM     21  C   UNL     1      -1.975  10.508  17.393  0.00  0.00    +0.000 C 
ATOM     22  C   UNL     1      -1.501  11.772  18.114  0.00  0.00    +0.000 C 
ENDBRANCH  14  22
ENDBRANCH  10  14
ENDBRANCH   1  11
BRANCH   8  23
ATOM     23  S   UNL     1       4.389   3.293  18.844  0.00  0.00    +0.000 S 
ATOM     24  O   UNL     1       5.075   2.633  19.936  0.00  0.00    +0.000 OA
ATOM     25  O   UNL     1       3.609   2.561  17.857  0.00  0.00    +0.000 OA
BRANCH  23  26
ATOM     26  C   UNL     1       5.604   4.293  17.966  0.00  0.00    +0.000 A 
ATOM     27  C   UNL     1       6.243   5.152  18.836  0.00  0.00    +0.000 A 
ATOM     28  C   UNL     1       7.473   5.613  18.480  0.00  0.00    +0.000 A 
ATOM     29  C   UNL     1       7.484   6.134  17.203  0.00  0.00    +0.000 A 
ATOM     30  C   UNL     1       6.849   5.414  16.194  0.00  0.00    +0.000 A 
ATOM     31  C   UNL     1       7.210   5.811  14.899  0.00  0.00    +0.000 A 
ATOM     32  C   UNL     1       6.951   4.998  13.808  0.00  0.00    +0.000 A 
ATOM     33  C   UNL     1       6.285   3.806  14.037  0.00  0.00    +0.000 A 
ATOM     34  C   UNL     1       5.782   3.480  15.349  0.00  0.00    +0.000 A 
ATOM     35  C   UNL     1       5.999   4.303  16.521  0.00  0.00    +0.000 A 
ENDBRANCH  23  26
ENDBRANCH   8  23
TORSDOF 6
ENDMDL
MODEL 9
REMARK VINA RESULT:      -9.2      1.133      2.119
REMARK  Name = 
REMARK  7 active torsions:
REMARK  status: ('A' for Active; 'I' for Inactive)
REMARK    1  A    between atoms: C_1  and  C_2
REMARK    2  A    between atoms: C_2  and  C_3
REMARK    3  A    between atoms: C_3  and  N_4
REMARK    4  A    between atoms: C_3  and  C_29
REMARK    5  A    between atoms: C_5  and  C_7
REMARK    6  A    between atoms: N_14  and  S_15
REMARK    7  A    between atoms: S_15  and  C_18
REMARK                            x       y       z     vdW  Elec       q    Type
REMARK                         _______ _______ _______ _____ _____    ______ ____
ROOT
ATOM      1  C   UNL     1       1.853   7.832  19.799  0.00  0.00    +0.000 A 
ATOM      2  C   UNL     1       1.697   8.988  19.012  0.00  0.00    +0.000 A 
ATOM      3  C   UNL     1       1.043  10.164  19.470  0.00  0.00    +0.000 A 
ATOM      4  C   UNL     1       0.496  10.193  20.758  0.00  0.00    +0.000 A 
ATOM      5  C   UNL     1       0.674   9.050  21.589  0.00  0.00    +0.000 A 
ATOM      6  C   UNL     1       0.058   9.351  22.839  0.00  0.00    +0.000 A 
ATOM      7  C   UNL     1      -0.479  10.629  22.761  0.00  0.00    +0.000 A 
ATOM      8  N   UNL     1      -0.261  11.124  21.503  0.00  0.00    +0.000 N 
ATOM      9  C   UNL     1       1.348   7.873  21.104  0.00  0.00    +0.000 A 
ENDROOT
BRANCH   1  11
ATOM     10  N   UNL     1       2.940   5.542  19.901  0.00  0.00    +0.000 N 
ATOM     11  C   UNL     1       2.428   6.614  19.143  0.00  0.00    +0.000 C 
ATOM     12  O   UNL     1       2.467   6.562  17.912  0.00  0.00    +0.000 OA
ATOM     13  H   UNL     1       3.059   5.659  20.894  0.00  0.00    +0.000 HD
BRANCH  10  14
ATOM     14  C   UNL     1       3.540   4.341  19.258  0.00  0.00    +0.000 C 
BRANCH  14  15
ATOM     15  C   UNL     1       4.881   4.683  18.607  0.00  0.00    +0.000 A 
ATOM     16  C   UNL     1       5.893   5.318  19.354  0.00  0.00    +0.000 A 
ATOM     17  C   UNL     1       7.146   5.585  18.792  0.00  0.00    +0.000 A 
ATOM     18  C   UNL     1       7.411   5.216  17.474  0.00  0.00    +0.000 A 
ATOM     19  C   UNL     1       6.425   4.583  16.724  0.00  0.00    +0.000 A 
ATOM     20  C   UNL     1       5.170   4.320  17.282  0.00  0.00    +0.000 A 
ENDBRANCH  14  15
BRANCH  14  22
ATOM     21  C   UNL     1       2.339   2.183  18.448  0.00  0.00    +0.000 C 
ATOM     22  C   UNL     1       2.562   3.683  18.245  0.00  0.00    +0.000 C 
ENDBRANCH  14  22
ENDBRANCH  10  14
ENDBRANCH   1  11
BRANCH   8  23
ATOM     23  S   UNL     1      -0.976  12.708  20.977  0.00  0.00    +0.000 S 
ATOM     24  O   UNL     1      -1.320  13.374  22.217  0.00  0.00    +0.000 OA
ATOM     25  O   UNL     1       0.008  13.247  20.049  0.00  0.00    +0.000 OA
BRANCH  23  26
ATOM     26  C   UNL     1      -2.507  12.428  20.069  0.00  0.00    +0.000 A 
ATOM     27  C   UNL     1      -3.594  12.822  20.820  0.00  0.00    +0.000 A 
ATOM     28  C   UNL     1      -4.740  13.138  20.158  0.00  0.00    +0.000 A 
ATOM     29  C   UNL     1      -5.111  12.156  19.262  0.00  0.00    +0.000 A 
ATOM     30  C   UNL     1      -4.128  11.611  18.440  0.00  0.00    +0.000 A 
ATOM     31  C   UNL     1      -4.634  10.908  17.339  0.00  0.00    +0.000 A 
ATOM     32  C   UNL     1      -3.825  10.605  16.256  0.00  0.00    +0.000 A 
ATOM     33  C   UNL     1      -2.494  10.980  16.322  0.00  0.00    +0.000 A 
ATOM     34  C   UNL     1      -1.949  11.564  17.522  0.00  0.00    +0.000 A 
ATOM     35  C   UNL     1      -2.739  11.880  18.693  0.00  0.00    +0.000 A 
ENDBRANCH  23  26
ENDBRANCH   8  23
TORSDOF 6
ENDMDL
