MODEL 1
REMARK VINA RESULT:      -7.4      0.000      0.000
REMARK  Name = 
REMARK  10 active torsions:
REMARK  status: ('A' for Active; 'I' for Inactive)
REMARK    1  A    between atoms: C_1  and  O_2
REMARK    2  A    between atoms: O_2  and  C_3
REMARK    3  A    between atoms: C_5  and  C_6
REMARK    4  A    between atoms: C_7  and  C_8
REMARK    5  A    between atoms: C_11  and  O_12
REMARK    6  A    between atoms: O_12  and  P_13
REMARK    7  A    between atoms: P_13  and  O_15
REMARK    8  A    between atoms: P_13  and  O_16
REMARK    9  A    between atoms: C_20  and  O_21
REMARK   10  A    between atoms: O_21  and  C_22
REMARK                            x       y       z     vdW  Elec       q    Type
REMARK                         _______ _______ _______ _____ _____    ______ ____
ROOT
ATOM      1  C   UNL     1       7.648   7.713  17.852  0.00  0.00    +0.000 A 
ATOM      2  C   UNL     1       8.102   6.671  18.671  0.00  0.00    +0.000 A 
ATOM      3  C   UNL     1       7.494   5.413  18.633  0.00  0.00    +0.000 A 
ATOM      4  C   UNL     1       6.410   5.191  17.788  0.00  0.00    +0.000 A 
ATOM      5  C   UNL     1       5.970   6.206  16.940  0.00  0.00    +0.000 A 
ATOM      6  C   UNL     1       6.578   7.465  16.982  0.00  0.00    +0.000 A 
ENDROOT
BRANCH   1   8
ATOM      7  C   UNL     1       8.965   9.460  19.060  0.00  0.00    +0.000 C 
ATOM      8  C   UNL     1       8.258   9.047  17.996  0.00  0.00    +0.000 C 
BRANCH   7  11
ATOM      9  C   UNL     1      10.756  12.634  18.095  0.00  0.00    +0.000 A 
ATOM     10  C   UNL     1      10.176  11.362  18.042  0.00  0.00    +0.000 A 
ATOM     11  C   UNL     1       9.590  10.788  19.176  0.00  0.00    +0.000 A 
ATOM     12  C   UNL     1       9.561  11.535  20.362  0.00  0.00    +0.000 A 
ATOM     13  C   UNL     1      10.137  12.809  20.424  0.00  0.00    +0.000 A 
ATOM     14  C   UNL     1      10.740  13.352  19.291  0.00  0.00    +0.000 A 
BRANCH   9  16
ATOM     15  C   UNL     1      11.544  14.459  16.785  0.00  0.00    +0.000 C 
ATOM     16  O   UNL     1      11.289  13.065  16.909  0.00  0.00    +0.000 OA
ENDBRANCH   9  16
BRANCH  13  17
ATOM     17  O   UNL     1      10.028  13.417  21.648  0.00  0.00    +0.000 OA
ATOM     18  C   UNL     1       9.000  12.949  22.513  0.00  0.00    +0.000 C 
ENDBRANCH  13  17
ENDBRANCH   7  11
ENDBRANCH   1   8
BRANCH   4  19
ATOM     19  O   UNL     1       5.813   3.959  17.862  0.00  0.00    +0.000 OA
BRANCH  19  20
ATOM     20  P   UNL     1       4.465   3.789  18.933  0.00  0.00    +0.000 P 
ATOM     21  O   UNL     1       3.627   3.050  17.886  0.00  0.00    +0.000 OA
BRANCH  20  22
ATOM     22  O   UNL     1       5.218   2.581  19.726  0.00  0.00    +0.000 OA
ATOM     23  H   UNL     1       4.902   1.733  19.367  0.00  0.00    +0.000 HD
ENDBRANCH  20  22
BRANCH  20  24
ATOM     24  O   UNL     1       3.118   3.621  20.004  0.00  0.00    +0.000 OA
ATOM     25  H   UNL     1       2.350   3.877  19.458  0.00  0.00    +0.000 HD
ENDBRANCH  20  24
ENDBRANCH  19  20
ENDBRANCH   4  19
TORSDOF 8
ENDMDL
MODEL 2
REMARK VINA RESULT:      -7.4      6.381      8.657
REMARK  Name = 
REMARK  10 active torsions:
REMARK  status: ('A' for Active; 'I' for Inactive)
REMARK    1  A    between atoms: C_1  and  O_2
REMARK    2  A    between atoms: O_2  and  C_3
REMARK    3  A    between atoms: C_5  and  C_6
REMARK    4  A    between atoms: C_7  and  C_8
REMARK    5  A    between atoms: C_11  and  O_12
REMARK    6  A    between atoms: O_12  and  P_13
REMARK    7  A    between atoms: P_13  and  O_15
REMARK    8  A    between atoms: P_13  and  O_16
REMARK    9  A    between atoms: C_20  and  O_21
REMARK   10  A    between atoms: O_21  and  C_22
REMARK                            x       y       z     vdW  Elec       q    Type
REMARK                         _______ _______ _______ _____ _____    ______ ____
ROOT
ATOM      1  C   UNL     1       2.777   6.723  18.074  0.00  0.00    +0.000 A 
ATOM      2  C   UNL     1       3.952   7.188  17.470  0.00  0.00    +0.000 A 
ATOM      3  C   UNL     1       4.859   6.298  16.888  0.00  0.00    +0.000 A 
ATOM      4  C   UNL     1       4.609   4.928  16.925  0.00  0.00    +0.000 A 
ATOM      5  C   UNL     1       3.427   4.452  17.489  0.00  0.00    +0.000 A 
ATOM      6  C   UNL     1       2.522   5.345  18.073  0.00  0.00    +0.000 A 
ENDROOT
BRANCH   1   8
ATOM      7  C   UNL     1       1.396   8.803  18.197  0.00  0.00    +0.000 C 
ATOM      8  C   UNL     1       1.898   7.689  18.756  0.00  0.00    +0.000 C 
BRANCH   7  11
ATOM      9  C   UNL     1      -0.120  10.897  20.941  0.00  0.00    +0.000 A 
ATOM     10  C   UNL     1       0.689   9.989  20.249  0.00  0.00    +0.000 A 
ATOM     11  C   UNL     1       0.498   9.744  18.885  0.00  0.00    +0.000 A 
ATOM     12  C   UNL     1      -0.503  10.460  18.213  0.00  0.00    +0.000 A 
ATOM     13  C   UNL     1      -1.316  11.371  18.896  0.00  0.00    +0.000 A 
ATOM     14  C   UNL     1      -1.128  11.581  20.260  0.00  0.00    +0.000 A 
BRANCH   9  16
ATOM     15  C   UNL     1      -0.621  10.317  23.194  0.00  0.00    +0.000 C 
ATOM     16  O   UNL     1       0.186  11.034  22.268  0.00  0.00    +0.000 OA
ENDBRANCH   9  16
BRANCH  13  17
ATOM     17  O   UNL     1      -2.246  11.997  18.106  0.00  0.00    +0.000 OA
ATOM     18  C   UNL     1      -2.654  11.316  16.925  0.00  0.00    +0.000 C 
ENDBRANCH  13  17
ENDBRANCH   7  11
ENDBRANCH   1   8
BRANCH   4  19
ATOM     19  O   UNL     1       5.580   4.110  16.408  0.00  0.00    +0.000 OA
BRANCH  19  20
ATOM     20  P   UNL     1       6.677   4.801  15.262  0.00  0.00    +0.000 P 
ATOM     21  O   UNL     1       7.903   4.452  16.109  0.00  0.00    +0.000 OA
BRANCH  20  22
ATOM     22  O   UNL     1       6.515   3.503  14.291  0.00  0.00    +0.000 OA
ATOM     23  H   UNL     1       7.391   3.092  14.175  0.00  0.00    +0.000 HD
ENDBRANCH  20  22
BRANCH  20  24
ATOM     24  O   UNL     1       7.772   5.492  14.116  0.00  0.00    +0.000 OA
ATOM     25  H   UNL     1       7.527   6.437  14.096  0.00  0.00    +0.000 HD
ENDBRANCH  20  24
ENDBRANCH  19  20
ENDBRANCH   4  19
TORSDOF 8
ENDMDL
MODEL 3
REMARK VINA RESULT:      -7.3      0.595      2.582
REMARK  Name = 
REMARK  10 active torsions:
REMARK  status: ('A' for Active; 'I' for Inactive)
REMARK    1  A    between atoms: C_1  and  O_2
REMARK    2  A    between atoms: O_2  and  C_3
REMARK    3  A    between atoms: C_5  and  C_6
REMARK    4  A    between atoms: C_7  and  C_8
REMARK    5  A    between atoms: C_11  and  O_12
REMARK    6  A    between atoms: O_12  and  P_13
REMARK    7  A    between atoms: P_13  and  O_15
REMARK    8  A    between atoms: P_13  and  O_16
REMARK    9  A    between atoms: C_20  and  O_21
REMARK   10  A    between atoms: O_21  and  C_22
REMARK                            x       y       z     vdW  Elec       q    Type
REMARK                         _______ _______ _______ _____ _____    ______ ____
ROOT
ATOM      1  C   UNL     1       7.199   7.416  17.590  0.00  0.00    +0.000 A 
ATOM      2  C   UNL     1       7.797   6.283  18.155  0.00  0.00    +0.000 A 
ATOM      3  C   UNL     1       7.172   5.034  18.089  0.00  0.00    +0.000 A 
ATOM      4  C   UNL     1       5.928   4.912  17.475  0.00  0.00    +0.000 A 
ATOM      5  C   UNL     1       5.336   6.022  16.876  0.00  0.00    +0.000 A 
ATOM      6  C   UNL     1       5.962   7.271  16.946  0.00  0.00    +0.000 A 
ENDROOT
BRANCH   1   8
ATOM      7  C   UNL     1       8.610   9.073  18.818  0.00  0.00    +0.000 C 
ATOM      8  C   UNL     1       7.849   8.726  17.767  0.00  0.00    +0.000 C 
BRANCH   7  11
ATOM      9  C   UNL     1      10.066  12.150  20.440  0.00  0.00    +0.000 A 
ATOM     10  C   UNL     1       9.415  10.927  20.246  0.00  0.00    +0.000 A 
ATOM     11  C   UNL     1       9.275  10.378  18.966  0.00  0.00    +0.000 A 
ATOM     12  C   UNL     1       9.837  11.066  17.881  0.00  0.00    +0.000 A 
ATOM     13  C   UNL     1      10.490  12.289  18.065  0.00  0.00    +0.000 A 
ATOM     14  C   UNL     1      10.596  12.832  19.344  0.00  0.00    +0.000 A 
BRANCH   9  16
ATOM     15  C   UNL     1       9.066  13.380  22.215  0.00  0.00    +0.000 C 
ATOM     16  O   UNL     1      10.128  12.559  21.745  0.00  0.00    +0.000 OA
ENDBRANCH   9  16
BRANCH  13  17
ATOM     17  O   UNL     1      10.989  12.840  16.913  0.00  0.00    +0.000 OA
ATOM     18  C   UNL     1      11.443  14.186  16.984  0.00  0.00    +0.000 C 
ENDBRANCH  13  17
ENDBRANCH   7  11
ENDBRANCH   1   8
BRANCH   4  19
ATOM     19  O   UNL     1       5.338   3.675  17.519  0.00  0.00    +0.000 OA
BRANCH  19  20
ATOM     20  P   UNL     1       4.106   3.422  18.706  0.00  0.00    +0.000 P 
ATOM     21  O   UNL     1       3.463   2.284  17.909  0.00  0.00    +0.000 OA
BRANCH  20  22
ATOM     22  O   UNL     1       5.165   2.647  19.672  0.00  0.00    +0.000 OA
ATOM     23  H   UNL     1       4.672   2.014  20.226  0.00  0.00    +0.000 HD
ENDBRANCH  20  22
BRANCH  20  24
ATOM     24  O   UNL     1       2.874   3.169  19.894  0.00  0.00    +0.000 OA
ATOM     25  H   UNL     1       2.096   3.633  19.528  0.00  0.00    +0.000 HD
ENDBRANCH  20  24
ENDBRANCH  19  20
ENDBRANCH   4  19
TORSDOF 8
ENDMDL
MODEL 4
REMARK VINA RESULT:      -7.3      6.380      8.622
REMARK  Name = 
REMARK  10 active torsions:
REMARK  status: ('A' for Active; 'I' for Inactive)
REMARK    1  A    between atoms: C_1  and  O_2
REMARK    2  A    between atoms: O_2  and  C_3
REMARK    3  A    between atoms: C_5  and  C_6
REMARK    4  A    between atoms: C_7  and  C_8
REMARK    5  A    between atoms: C_11  and  O_12
REMARK    6  A    between atoms: O_12  and  P_13
REMARK    7  A    between atoms: P_13  and  O_15
REMARK    8  A    between atoms: P_13  and  O_16
REMARK    9  A    between atoms: C_20  and  O_21
REMARK   10  A    between atoms: O_21  and  C_22
REMARK                            x       y       z     vdW  Elec       q    Type
REMARK                         _______ _______ _______ _____ _____    ______ ____
ROOT
ATOM      1  C   UNL     1       2.969   6.825  18.151  0.00  0.00    +0.000 A 
ATOM      2  C   UNL     1       2.702   5.450  18.133  0.00  0.00    +0.000 A 
ATOM      3  C   UNL     1       3.518   4.570  17.416  0.00  0.00    +0.000 A 
ATOM      4  C   UNL     1       4.600   5.062  16.690  0.00  0.00    +0.000 A 
ATOM      5  C   UNL     1       4.901   6.422  16.726  0.00  0.00    +0.000 A 
ATOM      6  C   UNL     1       4.081   7.301  17.442  0.00  0.00    +0.000 A 
ENDROOT
BRANCH   1   8
ATOM      7  C   UNL     1       1.523   8.855  18.324  0.00  0.00    +0.000 C 
ATOM      8  C   UNL     1       2.028   7.723  18.842  0.00  0.00    +0.000 C 
BRANCH   7  11
ATOM      9  C   UNL     1      -0.232  10.687  21.113  0.00  0.00    +0.000 A 
ATOM     10  C   UNL     1       0.639   9.847  20.411  0.00  0.00    +0.000 A 
ATOM     11  C   UNL     1       0.562   9.728  19.019  0.00  0.00    +0.000 A 
ATOM     12  C   UNL     1      -0.386  10.502  18.335  0.00  0.00    +0.000 A 
ATOM     13  C   UNL     1      -1.261  11.345  19.028  0.00  0.00    +0.000 A 
ATOM     14  C   UNL     1      -1.187  11.430  20.417  0.00  0.00    +0.000 A 
BRANCH   9  16
ATOM     15  C   UNL     1       0.392   9.487  23.072  0.00  0.00    +0.000 C 
ATOM     16  O   UNL     1      -0.037  10.702  22.469  0.00  0.00    +0.000 OA
ENDBRANCH   9  16
BRANCH  13  17
ATOM     17  O   UNL     1      -2.128  12.039  18.225  0.00  0.00    +0.000 OA
ATOM     18  C   UNL     1      -2.700  11.334  17.130  0.00  0.00    +0.000 C 
ENDBRANCH  13  17
ENDBRANCH   7  11
ENDBRANCH   1   8
BRANCH   4  19
ATOM     19  O   UNL     1       5.307   4.153  15.946  0.00  0.00    +0.000 OA
BRANCH  19  20
ATOM     20  P   UNL     1       6.571   4.763  14.935  0.00  0.00    +0.000 P 
ATOM     21  O   UNL     1       7.662   4.396  15.945  0.00  0.00    +0.000 OA
BRANCH  20  22
ATOM     22  O   UNL     1       6.482   3.440  13.987  0.00  0.00    +0.000 OA
ATOM     23  H   UNL     1       6.702   3.699  13.074  0.00  0.00    +0.000 HD
ENDBRANCH  20  22
BRANCH  20  24
ATOM     24  O   UNL     1       7.835   5.373  13.923  0.00  0.00    +0.000 OA
ATOM     25  H   UNL     1       7.667   6.334  13.892  0.00  0.00    +0.000 HD
ENDBRANCH  20  24
ENDBRANCH  19  20
ENDBRANCH   4  19
TORSDOF 8
ENDMDL
MODEL 5
REMARK VINA RESULT:      -7.3      6.284      8.314
REMARK  Name = 
REMARK  10 active torsions:
REMARK  status: ('A' for Active; 'I' for Inactive)
REMARK    1  A    between atoms: C_1  and  O_2
REMARK    2  A    between atoms: O_2  and  C_3
REMARK    3  A    between atoms: C_5  and  C_6
REMARK    4  A    between atoms: C_7  and  C_8
REMARK    5  A    between atoms: C_11  and  O_12
REMARK    6  A    between atoms: O_12  and  P_13
REMARK    7  A    between atoms: P_13  and  O_15
REMARK    8  A    between atoms: P_13  and  O_16
REMARK    9  A    between atoms: C_20  and  O_21
REMARK   10  A    between atoms: O_21  and  C_22
REMARK                            x       y       z     vdW  Elec       q    Type
REMARK                         _______ _______ _______ _____ _____    ______ ____
ROOT
ATOM      1  C   UNL     1       2.847   7.190  18.046  0.00  0.00    +0.000 A 
ATOM      2  C   UNL     1       4.022   7.523  17.361  0.00  0.00    +0.000 A 
ATOM      3  C   UNL     1       4.847   6.529  16.826  0.00  0.00    +0.000 A 
ATOM      4  C   UNL     1       4.512   5.187  16.991  0.00  0.00    +0.000 A 
ATOM      5  C   UNL     1       3.327   4.840  17.637  0.00  0.00    +0.000 A 
ATOM      6  C   UNL     1       2.506   5.836  18.173  0.00  0.00    +0.000 A 
ENDROOT
BRANCH   1   8
ATOM      7  C   UNL     1       1.219   9.087  18.021  0.00  0.00    +0.000 C 
ATOM      8  C   UNL     1       2.060   8.266  18.673  0.00  0.00    +0.000 C 
BRANCH   7  11
ATOM      9  C   UNL     1       0.313  11.981  20.261  0.00  0.00    +0.000 A 
ATOM     10  C   UNL     1       1.022  10.948  19.639  0.00  0.00    +0.000 A 
ATOM     11  C   UNL     1       0.420  10.140  18.668  0.00  0.00    +0.000 A 
ATOM     12  C   UNL     1      -0.905  10.415  18.301  0.00  0.00    +0.000 A 
ATOM     13  C   UNL     1      -1.622  11.446  18.916  0.00  0.00    +0.000 A 
ATOM     14  C   UNL     1      -1.013  12.222  19.901  0.00  0.00    +0.000 A 
BRANCH   9  16
ATOM     15  C   UNL     1       2.246  13.283  20.745  0.00  0.00    +0.000 C 
ATOM     16  O   UNL     1       1.033  12.686  21.188  0.00  0.00    +0.000 OA
ENDBRANCH   9  16
BRANCH  13  17
ATOM     17  O   UNL     1      -2.903  11.597  18.451  0.00  0.00    +0.000 OA
ATOM     18  C   UNL     1      -3.191  11.059  17.166  0.00  0.00    +0.000 C 
ENDBRANCH  13  17
ENDBRANCH   7  11
ENDBRANCH   1   8
BRANCH   4  19
ATOM     19  O   UNL     1       5.408   4.266  16.511  0.00  0.00    +0.000 OA
BRANCH  19  20
ATOM     20  P   UNL     1       6.597   4.822  15.385  0.00  0.00    +0.000 P 
ATOM     21  O   UNL     1       7.760   4.409  16.291  0.00  0.00    +0.000 OA
BRANCH  20  22
ATOM     22  O   UNL     1       6.365   3.504  14.455  0.00  0.00    +0.000 OA
ATOM     23  H   UNL     1       7.218   3.045  14.352  0.00  0.00    +0.000 HD
ENDBRANCH  20  22
BRANCH  20  24
ATOM     24  O   UNL     1       7.785   5.378  14.258  0.00  0.00    +0.000 OA
ATOM     25  H   UNL     1       8.629   5.279  14.739  0.00  0.00    +0.000 HD
ENDBRANCH  20  24
ENDBRANCH  19  20
ENDBRANCH   4  19
TORSDOF 8
ENDMDL
MODEL 6
REMARK VINA RESULT:      -7.2      6.454      8.502
REMARK  Name = 
REMARK  10 active torsions:
REMARK  status: ('A' for Active; 'I' for Inactive)
REMARK    1  A    between atoms: C_1  and  O_2
REMARK    2  A    between atoms: O_2  and  C_3
REMARK    3  A    between atoms: C_5  and  C_6
REMARK    4  A    between atoms: C_7  and  C_8
REMARK    5  A    between atoms: C_11  and  O_12
REMARK    6  A    between atoms: O_12  and  P_13
REMARK    7  A    between atoms: P_13  and  O_15
REMARK    8  A    between atoms: P_13  and  O_16
REMARK    9  A    between atoms: C_20  and  O_21
REMARK   10  A    between atoms: O_21  and  C_22
REMARK                            x       y       z     vdW  Elec       q    Type
REMARK                         _______ _______ _______ _____ _____    ______ ____
ROOT
ATOM      1  C   UNL     1       2.912   7.005  18.126  0.00  0.00    +0.000 A 
ATOM      2  C   UNL     1       2.685   5.625  18.212  0.00  0.00    +0.000 A 
ATOM      3  C   UNL     1       3.535   4.717  17.575  0.00  0.00    +0.000 A 
ATOM      4  C   UNL     1       4.612   5.183  16.825  0.00  0.00    +0.000 A 
ATOM      5  C   UNL     1       4.874   6.550  16.759  0.00  0.00    +0.000 A 
ATOM      6  C   UNL     1       4.020   7.457  17.396  0.00  0.00    +0.000 A 
ENDROOT
BRANCH   1   8
ATOM      7  C   UNL     1       1.549   9.098  18.204  0.00  0.00    +0.000 C 
ATOM      8  C   UNL     1       1.937   7.926  18.734  0.00  0.00    +0.000 C 
BRANCH   7  11
ATOM      9  C   UNL     1      -1.544  11.217  18.601  0.00  0.00    +0.000 A 
ATOM     10  C   UNL     1      -0.556  10.391  18.056  0.00  0.00    +0.000 A 
ATOM     11  C   UNL     1       0.552   9.994  18.813  0.00  0.00    +0.000 A 
ATOM     12  C   UNL     1       0.631  10.413  20.149  0.00  0.00    +0.000 A 
ATOM     13  C   UNL     1      -0.353  11.239  20.703  0.00  0.00    +0.000 A 
ATOM     14  C   UNL     1      -1.434  11.646  19.924  0.00  0.00    +0.000 A 
BRANCH   9  16
ATOM     15  C   UNL     1      -3.788  10.812  17.919  0.00  0.00    +0.000 C 
ATOM     16  O   UNL     1      -2.567  11.520  17.742  0.00  0.00    +0.000 OA
ENDBRANCH   9  16
BRANCH  13  17
ATOM     17  O   UNL     1      -0.141  11.562  22.018  0.00  0.00    +0.000 OA
ATOM     18  C   UNL     1      -0.641  12.817  22.464  0.00  0.00    +0.000 C 
ENDBRANCH  13  17
ENDBRANCH   7  11
ENDBRANCH   1   8
BRANCH   4  19
ATOM     19  O   UNL     1       5.355   4.241  16.161  0.00  0.00    +0.000 OA
BRANCH  19  20
ATOM     20  P   UNL     1       6.584   4.809  15.085  0.00  0.00    +0.000 P 
ATOM     21  O   UNL     1       7.712   4.432  16.049  0.00  0.00    +0.000 OA
BRANCH  20  22
ATOM     22  O   UNL     1       6.424   3.475  14.162  0.00  0.00    +0.000 OA
ATOM     23  H   UNL     1       6.272   3.754  13.241  0.00  0.00    +0.000 HD
ENDBRANCH  20  22
BRANCH  20  24
ATOM     24  O   UNL     1       7.812   5.377  14.008  0.00  0.00    +0.000 OA
ATOM     25  H   UNL     1       7.971   4.619  13.412  0.00  0.00    +0.000 HD
ENDBRANCH  20  24
ENDBRANCH  19  20
ENDBRANCH   4  19
TORSDOF 8
ENDMDL
MODEL 7
REMARK VINA RESULT:      -7.1      6.448      8.561
REMARK  Name = 
REMARK  10 active torsions:
REMARK  status: ('A' for Active; 'I' for Inactive)
REMARK    1  A    between atoms: C_1  and  O_2
REMARK    2  A    between atoms: O_2  and  C_3
REMARK    3  A    between atoms: C_5  and  C_6
REMARK    4  A    between atoms: C_7  and  C_8
REMARK    5  A    between atoms: C_11  and  O_12
REMARK    6  A    between atoms: O_12  and  P_13
REMARK    7  A    between atoms: P_13  and  O_15
REMARK    8  A    between atoms: P_13  and  O_16
REMARK    9  A    between atoms: C_20  and  O_21
REMARK   10  A    between atoms: O_21  and  C_22
REMARK                            x       y       z     vdW  Elec       q    Type
REMARK                         _______ _______ _______ _____ _____    ______ ____
ROOT
ATOM      1  C   UNL     1       2.817   7.078  18.033  0.00  0.00    +0.000 A 
ATOM      2  C   UNL     1       2.585   5.700  18.126  0.00  0.00    +0.000 A 
ATOM      3  C   UNL     1       3.479   4.783  17.566  0.00  0.00    +0.000 A 
ATOM      4  C   UNL     1       4.605   5.238  16.885  0.00  0.00    +0.000 A 
ATOM      5  C   UNL     1       4.870   6.604  16.814  0.00  0.00    +0.000 A 
ATOM      6  C   UNL     1       3.973   7.520  17.374  0.00  0.00    +0.000 A 
ENDROOT
BRANCH   1   8
ATOM      7  C   UNL     1       1.442   9.164  17.973  0.00  0.00    +0.000 C 
ATOM      8  C   UNL     1       1.801   8.008  18.556  0.00  0.00    +0.000 C 
BRANCH   7  11
ATOM      9  C   UNL     1      -0.217  11.826  20.065  0.00  0.00    +0.000 A 
ATOM     10  C   UNL     1       0.725  10.927  19.554  0.00  0.00    +0.000 A 
ATOM     11  C   UNL     1       0.405  10.069  18.496  0.00  0.00    +0.000 A 
ATOM     12  C   UNL     1      -0.875  10.156  17.932  0.00  0.00    +0.000 A 
ATOM     13  C   UNL     1      -1.824  11.052  18.435  0.00  0.00    +0.000 A 
ATOM     14  C   UNL     1      -1.495  11.879  19.507  0.00  0.00    +0.000 A 
BRANCH   9  16
ATOM     15  C   UNL     1       1.421  13.359  20.860  0.00  0.00    +0.000 C 
ATOM     16  O   UNL     1       0.240  12.602  21.097  0.00  0.00    +0.000 OA
ENDBRANCH   9  16
BRANCH  13  17
ATOM     17  O   UNL     1      -3.028  11.025  17.780  0.00  0.00    +0.000 OA
ATOM     18  C   UNL     1      -4.138  11.619  18.441  0.00  0.00    +0.000 C 
ENDBRANCH  13  17
ENDBRANCH   7  11
ENDBRANCH   1   8
BRANCH   4  19
ATOM     19  O   UNL     1       5.393   4.286  16.291  0.00  0.00    +0.000 OA
BRANCH  19  20
ATOM     20  P   UNL     1       6.629   4.834  15.213  0.00  0.00    +0.000 P 
ATOM     21  O   UNL     1       7.752   4.445  16.179  0.00  0.00    +0.000 OA
BRANCH  20  22
ATOM     22  O   UNL     1       6.451   3.500  14.294  0.00  0.00    +0.000 OA
ATOM     23  H   UNL     1       6.934   2.767  14.717  0.00  0.00    +0.000 HD
ENDBRANCH  20  22
BRANCH  20  24
ATOM     24  O   UNL     1       7.865   5.383  14.134  0.00  0.00    +0.000 OA
ATOM     25  H   UNL     1       8.215   4.560  13.740  0.00  0.00    +0.000 HD
ENDBRANCH  20  24
ENDBRANCH  19  20
ENDBRANCH   4  19
TORSDOF 8
ENDMDL
MODEL 8
REMARK VINA RESULT:      -7.1      0.506      2.834
REMARK  Name = 
REMARK  10 active torsions:
REMARK  status: ('A' for Active; 'I' for Inactive)
REMARK    1  A    between atoms: C_1  and  O_2
REMARK    2  A    between atoms: O_2  and  C_3
REMARK    3  A    between atoms: C_5  and  C_6
REMARK    4  A    between atoms: C_7  and  C_8
REMARK    5  A    between atoms: C_11  and  O_12
REMARK    6  A    between atoms: O_12  and  P_13
REMARK    7  A    between atoms: P_13  and  O_15
REMARK    8  A    between atoms: P_13  and  O_16
REMARK    9  A    between atoms: C_20  and  O_21
REMARK   10  A    between atoms: O_21  and  C_22
REMARK                            x       y       z     vdW  Elec       q    Type
REMARK                         _______ _______ _______ _____ _____    ______ ____
ROOT
ATOM      1  C   UNL     1       7.817   7.876  18.068  0.00  0.00    +0.000 A 
ATOM      2  C   UNL     1       6.734   7.757  17.187  0.00  0.00    +0.000 A 
ATOM      3  C   UNL     1       6.068   6.538  17.031  0.00  0.00    +0.000 A 
ATOM      4  C   UNL     1       6.494   5.418  17.741  0.00  0.00    +0.000 A 
ATOM      5  C   UNL     1       7.546   5.529  18.649  0.00  0.00    +0.000 A 
ATOM      6  C   UNL     1       8.212   6.749  18.801  0.00  0.00    +0.000 A 
ENDROOT
BRANCH   1   8
ATOM      7  C   UNL     1       8.980   9.742  19.257  0.00  0.00    +0.000 C 
ATOM      8  C   UNL     1       8.546   9.155  18.128  0.00  0.00    +0.000 C 
BRANCH   7  11
ATOM      9  C   UNL     1      10.315  13.036  20.513  0.00  0.00    +0.000 A 
ATOM     10  C   UNL     1       9.600  11.838  20.415  0.00  0.00    +0.000 A 
ATOM     11  C   UNL     1       9.731  11.007  19.297  0.00  0.00    +0.000 A 
ATOM     12  C   UNL     1      10.629  11.384  18.289  0.00  0.00    +0.000 A 
ATOM     13  C   UNL     1      11.350  12.579  18.378  0.00  0.00    +0.000 A 
ATOM     14  C   UNL     1      11.185  13.407  19.487  0.00  0.00    +0.000 A 
BRANCH   9  16
ATOM     15  C   UNL     1       9.008  13.307  22.483  0.00  0.00    +0.000 C 
ATOM     16  O   UNL     1      10.086  13.742  21.664  0.00  0.00    +0.000 OA
ENDBRANCH   9  16
BRANCH  13  17
ATOM     17  O   UNL     1      12.190  12.811  17.319  0.00  0.00    +0.000 OA
ATOM     18  C   UNL     1      11.689  13.618  16.261  0.00  0.00    +0.000 C 
ENDBRANCH  13  17
ENDBRANCH   7  11
ENDBRANCH   1   8
BRANCH   4  19
ATOM     19  O   UNL     1       5.847   4.238  17.478  0.00  0.00    +0.000 OA
BRANCH  19  20
ATOM     20  P   UNL     1       4.423   3.889  18.395  0.00  0.00    +0.000 P 
ATOM     21  O   UNL     1       3.814   3.044  17.273  0.00  0.00    +0.000 OA
BRANCH  20  22
ATOM     22  O   UNL     1       5.237   2.794  19.285  0.00  0.00    +0.000 OA
ATOM     23  H   UNL     1       6.190   2.980  19.207  0.00  0.00    +0.000 HD
ENDBRANCH  20  22
BRANCH  20  24
ATOM     24  O   UNL     1       2.998   3.541  19.313  0.00  0.00    +0.000 OA
ATOM     25  H   UNL     1       3.334   3.378  20.215  0.00  0.00    +0.000 HD
ENDBRANCH  20  24
ENDBRANCH  19  20
ENDBRANCH   4  19
TORSDOF 8
ENDMDL
MODEL 9
REMARK VINA RESULT:      -7.1      6.460      7.993
REMARK  Name = 
REMARK  10 active torsions:
REMARK  status: ('A' for Active; 'I' for Inactive)
REMARK    1  A    between atoms: C_1  and  O_2
REMARK    2  A    between atoms: O_2  and  C_3
REMARK    3  A    between atoms: C_5  and  C_6
REMARK    4  A    between atoms: C_7  and  C_8
REMARK    5  A    between atoms: C_11  and  O_12
REMARK    6  A    between atoms: O_12  and  P_13
REMARK    7  A    between atoms: P_13  and  O_15
REMARK    8  A    between atoms: P_13  and  O_16
REMARK    9  A    between atoms: C_20  and  O_21
REMARK   10  A    between atoms: O_21  and  C_22
REMARK                            x       y       z     vdW  Elec       q    Type
REMARK                         _______ _______ _______ _____ _____    ______ ____
ROOT
ATOM      1  C   UNL     1       2.871   6.786  18.282  0.00  0.00    +0.000 A 
ATOM      2  C   UNL     1       3.932   7.198  17.464  0.00  0.00    +0.000 A 
ATOM      3  C   UNL     1       4.757   6.261  16.835  0.00  0.00    +0.000 A 
ATOM      4  C   UNL     1       4.542   4.900  17.036  0.00  0.00    +0.000 A 
ATOM      5  C   UNL     1       3.469   4.473  17.817  0.00  0.00    +0.000 A 
ATOM      6  C   UNL     1       2.646   5.412  18.448  0.00  0.00    +0.000 A 
ENDROOT
BRANCH   1   8
ATOM      7  C   UNL     1       1.714   8.992  18.486  0.00  0.00    +0.000 C 
ATOM      8  C   UNL     1       2.088   7.807  18.999  0.00  0.00    +0.000 C 
BRANCH   7  11
ATOM      9  C   UNL     1      -0.239  12.140  19.186  0.00  0.00    +0.000 A 
ATOM     10  C   UNL     1       0.550  11.174  18.553  0.00  0.00    +0.000 A 
ATOM     11  C   UNL     1       0.909   9.990  19.208  0.00  0.00    +0.000 A 
ATOM     12  C   UNL     1       0.425   9.775  20.506  0.00  0.00    +0.000 A 
ATOM     13  C   UNL     1      -0.365  10.734  21.147  0.00  0.00    +0.000 A 
ATOM     14  C   UNL     1      -0.689  11.918  20.488  0.00  0.00    +0.000 A 
BRANCH   9  16
ATOM     15  C   UNL     1      -0.277  14.513  19.017  0.00  0.00    +0.000 C 
ATOM     16  O   UNL     1      -0.510  13.243  18.421  0.00  0.00    +0.000 OA
ENDBRANCH   9  16
BRANCH  13  17
ATOM     17  O   UNL     1      -0.765  10.381  22.410  0.00  0.00    +0.000 OA
ATOM     18  C   UNL     1      -1.556  11.322  23.125  0.00  0.00    +0.000 C 
ENDBRANCH  13  17
ENDBRANCH   7  11
ENDBRANCH   1   8
BRANCH   4  19
ATOM     19  O   UNL     1       5.439   4.042  16.454  0.00  0.00    +0.000 OA
BRANCH  19  20
ATOM     20  P   UNL     1       6.560   4.710  15.320  0.00  0.00    +0.000 P 
ATOM     21  O   UNL     1       7.773   4.297  16.157  0.00  0.00    +0.000 OA
BRANCH  20  22
ATOM     22  O   UNL     1       6.346   3.439  14.324  0.00  0.00    +0.000 OA
ATOM     23  H   UNL     1       7.141   3.343  13.769  0.00  0.00    +0.000 HD
ENDBRANCH  20  22
BRANCH  20  24
ATOM     24  O   UNL     1       7.681   5.379  14.185  0.00  0.00    +0.000 OA
ATOM     25  H   UNL     1       8.398   5.735  14.745  0.00  0.00    +0.000 HD
ENDBRANCH  20  24
ENDBRANCH  19  20
ENDBRANCH   4  19
TORSDOF 8
ENDMDL
