MODEL 1
REMARK VINA RESULT:      -9.1      0.000      0.000
REMARK  Name = 
REMARK  7 active torsions:
REMARK  status: ('A' for Active; 'I' for Inactive)
REMARK    1  A    between atoms: C_1  and  N_2
REMARK    2  A    between atoms: N_5  and  C_6
REMARK    3  A    between atoms: C_9  and  C_10
REMARK    4  A    between atoms: C_12  and  C_13
REMARK    5  A    between atoms: C_17  and  C_18
REMARK    6  A    between atoms: N_20  and  C_21
REMARK    7  A    between atoms: C_21  and  C_22
REMARK                            x       y       z     vdW  Elec       q    Type
REMARK                         _______ _______ _______ _____ _____    ______ ____
ROOT
ATOM      1  C   UNL     1       8.309   8.816  18.131  0.00  0.00    +0.000 A 
ATOM      2  C   UNL     1       7.396   8.187  17.310  0.00  0.00    +0.000 A 
ATOM      3  C   UNL     1       7.281   6.859  17.780  0.00  0.00    +0.000 A 
ATOM      4  N   UNL     1       8.081   6.672  18.842  0.00  0.00    +0.000 NA
ATOM      5  N   UNL     1       8.684   7.858  19.029  0.00  0.00    +0.000 N 
ATOM      6  H   UNL     1       9.330   7.951  19.805  0.00  0.00    +0.000 HD
ENDROOT
BRANCH   1  10
ATOM      7  C   UNL     1       9.730  12.882  18.293  0.00  0.00    +0.000 A 
ATOM      8  C   UNL     1       8.513  12.555  17.660  0.00  0.00    +0.000 A 
ATOM      9  C   UNL     1       8.039  11.239  17.574  0.00  0.00    +0.000 A 
ATOM     10  C   UNL     1       8.782  10.193  18.113  0.00  0.00    +0.000 A 
ATOM     11  C   UNL     1       9.999  10.487  18.727  0.00  0.00    +0.000 A 
ATOM     12  C   UNL     1      10.456  11.803  18.843  0.00  0.00    +0.000 A 
ATOM     13 BR   UNL     1      11.998  12.000  19.954  0.00  0.00    +0.000 Br
BRANCH   7  18
ATOM     14  C   UNL     1      12.333  17.573  19.686  0.00  0.00    +0.000 C 
ATOM     15  N   UNL     1      11.355  16.769  18.958  0.00  0.00    +0.000 NA
ATOM     16  C   UNL     1      10.397  16.137  19.899  0.00  0.00    +0.000 C 
ATOM     17  C   UNL     1       9.387  15.190  19.201  0.00  0.00    +0.000 C 
ATOM     18  N   UNL     1      10.129  14.200  18.407  0.00  0.00    +0.000 N 
ATOM     19  C   UNL     1      11.026  14.820  17.419  0.00  0.00    +0.000 C 
ATOM     20  C   UNL     1      12.039  15.714  18.169  0.00  0.00    +0.000 C 
ENDBRANCH   7  18
ENDBRANCH   1  10
BRANCH   3  21
ATOM     21  C   UNL     1       6.431   5.794  17.247  0.00  0.00    +0.000 A 
ATOM     22  C   UNL     1       6.822   5.016  16.148  0.00  0.00    +0.000 A 
ATOM     23  C   UNL     1       5.990   4.010  15.657  0.00  0.00    +0.000 A 
ATOM     24  C   UNL     1       4.753   3.774  16.258  0.00  0.00    +0.000 A 
ATOM     25  C   UNL     1       4.338   4.541  17.359  0.00  0.00    +0.000 A 
ATOM     26  C   UNL     1       5.185   5.540  17.845  0.00  0.00    +0.000 A 
BRANCH  25  27
ATOM     27  C   UNL     1       3.000   4.253  17.962  0.00  0.00    +0.000 C 
ATOM     28  O   UNL     1       2.096   3.787  17.272  0.00  0.00    +0.000 OA
ATOM     29  N   UNL     1       2.821   4.532  19.298  0.00  0.00    +0.000 N 
ATOM     30  H   UNL     1       3.551   4.949  19.857  0.00  0.00    +0.000 HD
BRANCH  29  31
ATOM     31  C   UNL     1       1.539   4.299  19.939  0.00  0.00    +0.000 C 
BRANCH  31  32
ATOM     32  C   UNL     1       1.656   3.410  21.102  0.00  0.00    +0.000 C 
ATOM     33  N   UNL     1       1.740   2.727  22.037  0.00  0.00    +0.000 NA
ENDBRANCH  31  32
ENDBRANCH  29  31
ENDBRANCH  25  27
ENDBRANCH   3  21
TORSDOF 6
ENDMDL
MODEL 2
REMARK VINA RESULT:      -8.6      1.003      1.383
REMARK  Name = 
REMARK  7 active torsions:
REMARK  status: ('A' for Active; 'I' for Inactive)
REMARK    1  A    between atoms: C_1  and  N_2
REMARK    2  A    between atoms: N_5  and  C_6
REMARK    3  A    between atoms: C_9  and  C_10
REMARK    4  A    between atoms: C_12  and  C_13
REMARK    5  A    between atoms: C_17  and  C_18
REMARK    6  A    between atoms: N_20  and  C_21
REMARK    7  A    between atoms: C_21  and  C_22
REMARK                            x       y       z     vdW  Elec       q    Type
REMARK                         _______ _______ _______ _____ _____    ______ ____
ROOT
ATOM      1  C   UNL     1       8.323   8.800  18.077  0.00  0.00    +0.000 A 
ATOM      2  C   UNL     1       7.531   8.127  17.170  0.00  0.00    +0.000 A 
ATOM      3  C   UNL     1       7.434   6.795  17.632  0.00  0.00    +0.000 A 
ATOM      4  N   UNL     1       8.128   6.648  18.772  0.00  0.00    +0.000 NA
ATOM      5  N   UNL     1       8.650   7.861  19.014  0.00  0.00    +0.000 N 
ATOM      6  H   UNL     1       9.207   7.986  19.851  0.00  0.00    +0.000 HD
ENDROOT
BRANCH   1  10
ATOM      7  C   UNL     1       9.529  12.928  18.365  0.00  0.00    +0.000 A 
ATOM      8  C   UNL     1       8.366  12.552  17.663  0.00  0.00    +0.000 A 
ATOM      9  C   UNL     1       7.962  11.215  17.536  0.00  0.00    +0.000 A 
ATOM     10  C   UNL     1       8.727  10.198  18.102  0.00  0.00    +0.000 A 
ATOM     11  C   UNL     1       9.894  10.543  18.784  0.00  0.00    +0.000 A 
ATOM     12  C   UNL     1      10.278  11.878  18.939  0.00  0.00    +0.000 A 
ATOM     13 BR   UNL     1      11.747  12.134  20.134  0.00  0.00    +0.000 Br
BRANCH   7  18
ATOM     14  C   UNL     1       9.637  18.463  18.098  0.00  0.00    +0.000 C 
ATOM     15  N   UNL     1      10.093  17.152  18.551  0.00  0.00    +0.000 NA
ATOM     16  C   UNL     1      10.559  16.338  17.401  0.00  0.00    +0.000 C 
ATOM     17  C   UNL     1      10.969  14.896  17.797  0.00  0.00    +0.000 C 
ATOM     18  N   UNL     1       9.855  14.262  18.516  0.00  0.00    +0.000 N 
ATOM     19  C   UNL     1       9.437  15.026  19.703  0.00  0.00    +0.000 C 
ATOM     20  C   UNL     1       8.995  16.436  19.247  0.00  0.00    +0.000 C 
ENDBRANCH   7  18
ENDBRANCH   1  10
BRANCH   3  21
ATOM     21  C   UNL     1       6.696   5.690  17.020  0.00  0.00    +0.000 A 
ATOM     22  C   UNL     1       7.074   5.143  15.786  0.00  0.00    +0.000 A 
ATOM     23  C   UNL     1       6.350   4.092  15.221  0.00  0.00    +0.000 A 
ATOM     24  C   UNL     1       5.235   3.580  15.885  0.00  0.00    +0.000 A 
ATOM     25  C   UNL     1       4.835   4.112  17.122  0.00  0.00    +0.000 A 
ATOM     26  C   UNL     1       5.574   5.158  17.678  0.00  0.00    +0.000 A 
BRANCH  25  27
ATOM     27  C   UNL     1       3.629   3.531  17.788  0.00  0.00    +0.000 C 
ATOM     28  O   UNL     1       2.578   3.399  17.165  0.00  0.00    +0.000 OA
ATOM     29  N   UNL     1       3.737   3.163  19.111  0.00  0.00    +0.000 N 
ATOM     30  H   UNL     1       4.588   3.305  19.634  0.00  0.00    +0.000 HD
BRANCH  29  31
ATOM     31  C   UNL     1       2.596   2.617  19.824  0.00  0.00    +0.000 C 
BRANCH  31  32
ATOM     32  C   UNL     1       1.643   3.660  20.224  0.00  0.00    +0.000 C 
ATOM     33  N   UNL     1       0.892   4.476  20.566  0.00  0.00    +0.000 NA
ENDBRANCH  31  32
ENDBRANCH  29  31
ENDBRANCH  25  27
ENDBRANCH   3  21
TORSDOF 6
ENDMDL
MODEL 3
REMARK VINA RESULT:      -8.5      1.148      1.361
REMARK  Name = 
REMARK  7 active torsions:
REMARK  status: ('A' for Active; 'I' for Inactive)
REMARK    1  A    between atoms: C_1  and  N_2
REMARK    2  A    between atoms: N_5  and  C_6
REMARK    3  A    between atoms: C_9  and  C_10
REMARK    4  A    between atoms: C_12  and  C_13
REMARK    5  A    between atoms: C_17  and  C_18
REMARK    6  A    between atoms: N_20  and  C_21
REMARK    7  A    between atoms: C_21  and  C_22
REMARK                            x       y       z     vdW  Elec       q    Type
REMARK                         _______ _______ _______ _____ _____    ______ ____
ROOT
ATOM      1  C   UNL     1       8.460   8.629  18.460  0.00  0.00    +0.000 A 
ATOM      2  C   UNL     1       7.584   8.147  17.510  0.00  0.00    +0.000 A 
ATOM      3  C   UNL     1       7.363   6.786  17.820  0.00  0.00    +0.000 A 
ATOM      4  N   UNL     1       8.065   6.440  18.912  0.00  0.00    +0.000 NA
ATOM      5  N   UNL     1       8.712   7.560  19.272  0.00  0.00    +0.000 N 
ATOM      6  H   UNL     1       9.297   7.531  20.099  0.00  0.00    +0.000 HD
ENDROOT
BRANCH   1  10
ATOM      7  C   UNL     1       9.892  12.648  19.073  0.00  0.00    +0.000 A 
ATOM      8  C   UNL     1       9.810  12.088  17.781  0.00  0.00    +0.000 A 
ATOM      9  C   UNL     1       9.368  10.777  17.556  0.00  0.00    +0.000 A 
ATOM     10  C   UNL     1       9.004   9.969  18.629  0.00  0.00    +0.000 A 
ATOM     11  C   UNL     1       9.096  10.493  19.919  0.00  0.00    +0.000 A 
ATOM     12  C   UNL     1       9.504  11.811  20.141  0.00  0.00    +0.000 A 
ATOM     13 BR   UNL     1       9.294  12.399  21.946  0.00  0.00    +0.000 Br
BRANCH   7  18
ATOM     14  C   UNL     1      11.624  17.852  18.272  0.00  0.00    +0.000 C 
ATOM     15  N   UNL     1      11.123  16.732  19.064  0.00  0.00    +0.000 NA
ATOM     16  C   UNL     1      12.093  15.609  19.050  0.00  0.00    +0.000 C 
ATOM     17  C   UNL     1      11.583  14.348  19.794  0.00  0.00    +0.000 C 
ATOM     18  N   UNL     1      10.275  13.964  19.242  0.00  0.00    +0.000 N 
ATOM     19  C   UNL     1       9.284  15.050  19.322  0.00  0.00    +0.000 C 
ATOM     20  C   UNL     1       9.821  16.263  18.527  0.00  0.00    +0.000 C 
ENDBRANCH   7  18
ENDBRANCH   1  10
BRANCH   3  21
ATOM     21  C   UNL     1       6.505   5.837  17.112  0.00  0.00    +0.000 A 
ATOM     22  C   UNL     1       6.617   5.627  15.730  0.00  0.00    +0.000 A 
ATOM     23  C   UNL     1       5.782   4.719  15.078  0.00  0.00    +0.000 A 
ATOM     24  C   UNL     1       4.821   4.014  15.803  0.00  0.00    +0.000 A 
ATOM     25  C   UNL     1       4.687   4.207  17.187  0.00  0.00    +0.000 A 
ATOM     26  C   UNL     1       5.535   5.114  17.828  0.00  0.00    +0.000 A 
BRANCH  25  27
ATOM     27  C   UNL     1       3.636   3.432  17.915  0.00  0.00    +0.000 C 
ATOM     28  O   UNL     1       3.493   2.230  17.704  0.00  0.00    +0.000 OA
ATOM     29  N   UNL     1       2.840   4.109  18.812  0.00  0.00    +0.000 N 
ATOM     30  H   UNL     1       2.931   5.103  18.959  0.00  0.00    +0.000 HD
BRANCH  29  31
ATOM     31  C   UNL     1       1.784   3.421  19.533  0.00  0.00    +0.000 C 
BRANCH  31  32
ATOM     32  C   UNL     1       2.195   3.046  20.892  0.00  0.00    +0.000 C 
ATOM     33  N   UNL     1       2.546   2.756  21.960  0.00  0.00    +0.000 NA
ENDBRANCH  31  32
ENDBRANCH  29  31
ENDBRANCH  25  27
ENDBRANCH   3  21
TORSDOF 6
ENDMDL
MODEL 4
REMARK VINA RESULT:      -8.4      1.371      1.407
REMARK  Name = 
REMARK  7 active torsions:
REMARK  status: ('A' for Active; 'I' for Inactive)
REMARK    1  A    between atoms: C_1  and  N_2
REMARK    2  A    between atoms: N_5  and  C_6
REMARK    3  A    between atoms: C_9  and  C_10
REMARK    4  A    between atoms: C_12  and  C_13
REMARK    5  A    between atoms: C_17  and  C_18
REMARK    6  A    between atoms: N_20  and  C_21
REMARK    7  A    between atoms: C_21  and  C_22
REMARK                            x       y       z     vdW  Elec       q    Type
REMARK                         _______ _______ _______ _____ _____    ______ ____
ROOT
ATOM      1  C   UNL     1       8.567   9.286  18.205  0.00  0.00    +0.000 A 
ATOM      2  C   UNL     1       7.731   8.589  17.357  0.00  0.00    +0.000 A 
ATOM      3  C   UNL     1       7.640   7.275  17.870  0.00  0.00    +0.000 A 
ATOM      4  N   UNL     1       8.381   7.161  18.984  0.00  0.00    +0.000 NA
ATOM      5  N   UNL     1       8.924   8.377  19.160  0.00  0.00    +0.000 N 
ATOM      6  H   UNL     1       9.517   8.524  19.969  0.00  0.00    +0.000 HD
ENDROOT
BRANCH   1  10
ATOM      7  C   UNL     1       9.852  13.399  18.289  0.00  0.00    +0.000 A 
ATOM      8  C   UNL     1       8.582  13.037  17.796  0.00  0.00    +0.000 A 
ATOM      9  C   UNL     1       8.147  11.706  17.738  0.00  0.00    +0.000 A 
ATOM     10  C   UNL     1       8.986  10.679  18.162  0.00  0.00    +0.000 A 
ATOM     11  C   UNL     1      10.256  11.008  18.636  0.00  0.00    +0.000 A 
ATOM     12  C   UNL     1      10.676  12.338  18.725  0.00  0.00    +0.000 A 
ATOM     13 BR   UNL     1      12.330  12.574  19.652  0.00  0.00    +0.000 Br
BRANCH   7  18
ATOM     14  C   UNL     1      12.272  18.188  19.675  0.00  0.00    +0.000 C 
ATOM     15  N   UNL     1      11.353  17.340  18.922  0.00  0.00    +0.000 NA
ATOM     16  C   UNL     1      10.360  16.713  19.829  0.00  0.00    +0.000 C 
ATOM     17  C   UNL     1       9.410  15.723  19.108  0.00  0.00    +0.000 C 
ATOM     18  N   UNL     1      10.215  14.728  18.384  0.00  0.00    +0.000 N 
ATOM     19  C   UNL     1      11.149  15.341  17.426  0.00  0.00    +0.000 C 
ATOM     20  C   UNL     1      12.101  16.280  18.202  0.00  0.00    +0.000 C 
ENDBRANCH   7  18
ENDBRANCH   1  10
BRANCH   3  21
ATOM     21  C   UNL     1       6.867   6.158  17.329  0.00  0.00    +0.000 A 
ATOM     22  C   UNL     1       6.922   5.808  15.973  0.00  0.00    +0.000 A 
ATOM     23  C   UNL     1       6.170   4.741  15.482  0.00  0.00    +0.000 A 
ATOM     24  C   UNL     1       5.350   4.013  16.344  0.00  0.00    +0.000 A 
ATOM     25  C   UNL     1       5.276   4.344  17.707  0.00  0.00    +0.000 A 
ATOM     26  C   UNL     1       6.040   5.411  18.186  0.00  0.00    +0.000 A 
BRANCH  25  27
ATOM     27  C   UNL     1       4.376   3.536  18.586  0.00  0.00    +0.000 C 
ATOM     28  O   UNL     1       4.342   3.743  19.797  0.00  0.00    +0.000 OA
ATOM     29  N   UNL     1       3.604   2.560  17.997  0.00  0.00    +0.000 N 
ATOM     30  H   UNL     1       3.658   2.364  17.009  0.00  0.00    +0.000 HD
BRANCH  29  31
ATOM     31  C   UNL     1       2.727   1.723  18.797  0.00  0.00    +0.000 C 
BRANCH  31  32
ATOM     32  C   UNL     1       1.322   2.139  18.695  0.00  0.00    +0.000 C 
ATOM     33  N   UNL     1       0.220   2.492  18.618  0.00  0.00    +0.000 NA
ENDBRANCH  31  32
ENDBRANCH  29  31
ENDBRANCH  25  27
ENDBRANCH   3  21
TORSDOF 6
ENDMDL
MODEL 5
REMARK VINA RESULT:      -8.3      1.933      2.306
REMARK  Name = 
REMARK  7 active torsions:
REMARK  status: ('A' for Active; 'I' for Inactive)
REMARK    1  A    between atoms: C_1  and  N_2
REMARK    2  A    between atoms: N_5  and  C_6
REMARK    3  A    between atoms: C_9  and  C_10
REMARK    4  A    between atoms: C_12  and  C_13
REMARK    5  A    between atoms: C_17  and  C_18
REMARK    6  A    between atoms: N_20  and  C_21
REMARK    7  A    between atoms: C_21  and  C_22
REMARK                            x       y       z     vdW  Elec       q    Type
REMARK                         _______ _______ _______ _____ _____    ______ ____
ROOT
ATOM      1  C   UNL     1       8.564   9.121  18.288  0.00  0.00    +0.000 A 
ATOM      2  C   UNL     1       7.668   8.570  17.395  0.00  0.00    +0.000 A 
ATOM      3  C   UNL     1       7.482   7.225  17.789  0.00  0.00    +0.000 A 
ATOM      4  N   UNL     1       8.224   6.954  18.875  0.00  0.00    +0.000 NA
ATOM      5  N   UNL     1       8.860   8.104  19.151  0.00  0.00    +0.000 N 
ATOM      6  H   UNL     1       9.471   8.133  19.959  0.00  0.00    +0.000 HD
ENDROOT
BRANCH   1  10
ATOM      7  C   UNL     1      10.031  13.173  18.318  0.00  0.00    +0.000 A 
ATOM      8  C   UNL     1      10.891  12.080  18.555  0.00  0.00    +0.000 A 
ATOM      9  C   UNL     1      10.435  10.754  18.571  0.00  0.00    +0.000 A 
ATOM     10  C   UNL     1       9.087  10.477  18.364  0.00  0.00    +0.000 A 
ATOM     11  C   UNL     1       8.213  11.542  18.148  0.00  0.00    +0.000 A 
ATOM     12  C   UNL     1       8.672  12.861  18.098  0.00  0.00    +0.000 A 
ATOM     13 BR   UNL     1       7.359  14.123  17.520  0.00  0.00    +0.000 Br
BRANCH   7  18
ATOM     14  C   UNL     1      10.661  18.629  17.579  0.00  0.00    +0.000 C 
ATOM     15  N   UNL     1      11.089  17.290  17.972  0.00  0.00    +0.000 NA
ATOM     16  C   UNL     1      11.070  16.374  16.805  0.00  0.00    +0.000 C 
ATOM     17  C   UNL     1      11.423  14.909  17.170  0.00  0.00    +0.000 C 
ATOM     18  N   UNL     1      10.534  14.458  18.250  0.00  0.00    +0.000 N 
ATOM     19  C   UNL     1      10.604  15.320  19.441  0.00  0.00    +0.000 C 
ATOM     20  C   UNL     1      10.199  16.755  19.033  0.00  0.00    +0.000 C 
ENDBRANCH   7  18
ENDBRANCH   1  10
BRANCH   3  21
ATOM     21  C   UNL     1       6.621   6.223  17.163  0.00  0.00    +0.000 A 
ATOM     22  C   UNL     1       6.396   6.201  15.779  0.00  0.00    +0.000 A 
ATOM     23  C   UNL     1       5.564   5.237  15.209  0.00  0.00    +0.000 A 
ATOM     24  C   UNL     1       4.945   4.284  16.018  0.00  0.00    +0.000 A 
ATOM     25  C   UNL     1       5.153   4.286  17.407  0.00  0.00    +0.000 A 
ATOM     26  C   UNL     1       5.993   5.253  17.964  0.00  0.00    +0.000 A 
BRANCH  25  27
ATOM     27  C   UNL     1       4.459   3.249  18.231  0.00  0.00    +0.000 C 
ATOM     28  O   UNL     1       3.527   2.602  17.758  0.00  0.00    +0.000 OA
ATOM     29  N   UNL     1       4.893   3.054  19.523  0.00  0.00    +0.000 N 
ATOM     30  H   UNL     1       5.633   3.610  19.925  0.00  0.00    +0.000 HD
BRANCH  29  31
ATOM     31  C   UNL     1       4.246   2.080  20.384  0.00  0.00    +0.000 C 
BRANCH  31  32
ATOM     32  C   UNL     1       5.214   1.331  21.196  0.00  0.00    +0.000 C 
ATOM     33  N   UNL     1       5.971   0.717  21.825  0.00  0.00    +0.000 NA
ENDBRANCH  31  32
ENDBRANCH  29  31
ENDBRANCH  25  27
ENDBRANCH   3  21
TORSDOF 6
ENDMDL
MODEL 6
REMARK VINA RESULT:      -8.0      7.240      9.203
REMARK  Name = 
REMARK  7 active torsions:
REMARK  status: ('A' for Active; 'I' for Inactive)
REMARK    1  A    between atoms: C_1  and  N_2
REMARK    2  A    between atoms: N_5  and  C_6
REMARK    3  A    between atoms: C_9  and  C_10
REMARK    4  A    between atoms: C_12  and  C_13
REMARK    5  A    between atoms: C_17  and  C_18
REMARK    6  A    between atoms: N_20  and  C_21
REMARK    7  A    between atoms: C_21  and  C_22
REMARK                            x       y       z     vdW  Elec       q    Type
REMARK                         _______ _______ _______ _____ _____    ______ ____
ROOT
ATOM      1  C   UNL     1       2.305   7.629  18.591  0.00  0.00    +0.000 A 
ATOM      2  C   UNL     1       3.643   7.550  18.263  0.00  0.00    +0.000 A 
ATOM      3  C   UNL     1       3.895   6.201  17.925  0.00  0.00    +0.000 A 
ATOM      4  N   UNL     1       2.769   5.477  18.034  0.00  0.00    +0.000 NA
ATOM      5  N   UNL     1       1.836   6.355  18.434  0.00  0.00    +0.000 N 
ATOM      6  H   UNL     1       0.887   6.022  18.564  0.00  0.00    +0.000 HD
ENDROOT
BRANCH   1  10
ATOM      7  C   UNL     1      -0.189  10.908  19.857  0.00  0.00    +0.000 A 
ATOM      8  C   UNL     1       0.219  10.773  18.514  0.00  0.00    +0.000 A 
ATOM      9  C   UNL     1       1.047   9.728  18.080  0.00  0.00    +0.000 A 
ATOM     10  C   UNL     1       1.511   8.782  18.989  0.00  0.00    +0.000 A 
ATOM     11  C   UNL     1       1.139   8.905  20.328  0.00  0.00    +0.000 A 
ATOM     12  C   UNL     1       0.286   9.926  20.754  0.00  0.00    +0.000 A 
ATOM     13 BR   UNL     1      -0.310   9.743  22.560  0.00  0.00    +0.000 Br
BRANCH   7  18
ATOM     14  C   UNL     1      -3.955  14.022  22.472  0.00  0.00    +0.000 C 
ATOM     15  N   UNL     1      -2.966  13.733  21.437  0.00  0.00    +0.000 NA
ATOM     16  C   UNL     1      -3.393  12.571  20.618  0.00  0.00    +0.000 C 
ATOM     17  C   UNL     1      -2.343  12.149  19.559  0.00  0.00    +0.000 C 
ATOM     18  N   UNL     1      -1.054  11.918  20.228  0.00  0.00    +0.000 N 
ATOM     19  C   UNL     1      -0.587  13.093  20.981  0.00  0.00    +0.000 C 
ATOM     20  C   UNL     1      -1.646  13.443  22.052  0.00  0.00    +0.000 C 
ENDBRANCH   7  18
ENDBRANCH   1  10
BRANCH   3  21
ATOM     21  C   UNL     1       5.164   5.610  17.500  0.00  0.00    +0.000 A 
ATOM     22  C   UNL     1       6.130   5.188  18.425  0.00  0.00    +0.000 A 
ATOM     23  C   UNL     1       7.334   4.633  17.993  0.00  0.00    +0.000 A 
ATOM     24  C   UNL     1       7.587   4.496  16.628  0.00  0.00    +0.000 A 
ATOM     25  C   UNL     1       6.637   4.912  15.681  0.00  0.00    +0.000 A 
ATOM     26  C   UNL     1       5.433   5.460  16.129  0.00  0.00    +0.000 A 
BRANCH  25  27
ATOM     27  C   UNL     1       6.961   4.750  14.231  0.00  0.00    +0.000 C 
ATOM     28  O   UNL     1       7.787   5.484  13.693  0.00  0.00    +0.000 OA
ATOM     29  N   UNL     1       6.302   3.766  13.528  0.00  0.00    +0.000 N 
ATOM     30  H   UNL     1       5.596   3.187  13.959  0.00  0.00    +0.000 HD
BRANCH  29  31
ATOM     31  C   UNL     1       6.551   3.573  12.110  0.00  0.00    +0.000 C 
BRANCH  31  32
ATOM     32  C   UNL     1       6.136   2.241  11.653  0.00  0.00    +0.000 C 
ATOM     33  N   UNL     1       5.804   1.181  11.317  0.00  0.00    +0.000 NA
ENDBRANCH  31  32
ENDBRANCH  29  31
ENDBRANCH  25  27
ENDBRANCH   3  21
TORSDOF 6
ENDMDL
MODEL 7
REMARK VINA RESULT:      -8.0      7.733     10.531
REMARK  Name = 
REMARK  7 active torsions:
REMARK  status: ('A' for Active; 'I' for Inactive)
REMARK    1  A    between atoms: C_1  and  N_2
REMARK    2  A    between atoms: N_5  and  C_6
REMARK    3  A    between atoms: C_9  and  C_10
REMARK    4  A    between atoms: C_12  and  C_13
REMARK    5  A    between atoms: C_17  and  C_18
REMARK    6  A    between atoms: N_20  and  C_21
REMARK    7  A    between atoms: C_21  and  C_22
REMARK                            x       y       z     vdW  Elec       q    Type
REMARK                         _______ _______ _______ _____ _____    ______ ____
ROOT
ATOM      1  C   UNL     1       0.705  10.052  18.581  0.00  0.00    +0.000 A 
ATOM      2  C   UNL     1       0.998   8.728  18.832  0.00  0.00    +0.000 A 
ATOM      3  C   UNL     1       2.192   8.440  18.132  0.00  0.00    +0.000 A 
ATOM      4  N   UNL     1       2.621   9.533  17.480  0.00  0.00    +0.000 NA
ATOM      5  N   UNL     1       1.713  10.480  17.765  0.00  0.00    +0.000 N 
ATOM      6  H   UNL     1       1.853  11.409  17.384  0.00  0.00    +0.000 HD
ENDROOT
BRANCH   1  10
ATOM      7  C   UNL     1      -2.585  12.329  20.184  0.00  0.00    +0.000 A 
ATOM      8  C   UNL     1      -2.548  11.950  18.827  0.00  0.00    +0.000 A 
ATOM      9  C   UNL     1      -1.481  11.227  18.275  0.00  0.00    +0.000 A 
ATOM     10  C   UNL     1      -0.395  10.870  19.070  0.00  0.00    +0.000 A 
ATOM     11  C   UNL     1      -0.398  11.252  20.412  0.00  0.00    +0.000 A 
ATOM     12  C   UNL     1      -1.477  11.942  20.969  0.00  0.00    +0.000 A 
ATOM     13 BR   UNL     1      -1.393  12.118  22.870  0.00  0.00    +0.000 Br
BRANCH   7  18
ATOM     14  C   UNL     1      -6.527  14.342  23.519  0.00  0.00    +0.000 C 
ATOM     15  N   UNL     1      -5.823  14.182  22.250  0.00  0.00    +0.000 NA
ATOM     16  C   UNL     1      -5.872  12.769  21.802  0.00  0.00    +0.000 C 
ATOM     17  C   UNL     1      -5.061  12.508  20.506  0.00  0.00    +0.000 C 
ATOM     18  N   UNL     1      -3.685  12.988  20.698  0.00  0.00    +0.000 N 
ATOM     19  C   UNL     1      -3.625  14.411  21.069  0.00  0.00    +0.000 C 
ATOM     20  C   UNL     1      -4.408  14.607  22.388  0.00  0.00    +0.000 C 
ENDBRANCH   7  18
ENDBRANCH   1  10
BRANCH   3  21
ATOM     21  C   UNL     1       2.916   7.170  18.086  0.00  0.00    +0.000 A 
ATOM     22  C   UNL     1       2.600   6.107  18.944  0.00  0.00    +0.000 A 
ATOM     23  C   UNL     1       3.310   4.908  18.883  0.00  0.00    +0.000 A 
ATOM     24  C   UNL     1       4.349   4.760  17.963  0.00  0.00    +0.000 A 
ATOM     25  C   UNL     1       4.686   5.811  17.094  0.00  0.00    +0.000 A 
ATOM     26  C   UNL     1       3.962   7.003  17.162  0.00  0.00    +0.000 A 
BRANCH  25  27
ATOM     27  C   UNL     1       5.812   5.604  16.133  0.00  0.00    +0.000 C 
ATOM     28  O   UNL     1       6.889   6.170  16.307  0.00  0.00    +0.000 OA
ATOM     29  N   UNL     1       5.598   4.772  15.057  0.00  0.00    +0.000 N 
ATOM     30  H   UNL     1       4.702   4.336  14.892  0.00  0.00    +0.000 HD
BRANCH  29  31
ATOM     31  C   UNL     1       6.641   4.548  14.072  0.00  0.00    +0.000 C 
BRANCH  31  32
ATOM     32  C   UNL     1       6.189   3.683  12.974  0.00  0.00    +0.000 C 
ATOM     33  N   UNL     1       5.842   2.979  12.120  0.00  0.00    +0.000 NA
ENDBRANCH  31  32
ENDBRANCH  29  31
ENDBRANCH  25  27
ENDBRANCH   3  21
TORSDOF 6
ENDMDL
MODEL 8
REMARK VINA RESULT:      -8.0      7.307      9.656
REMARK  Name = 
REMARK  7 active torsions:
REMARK  status: ('A' for Active; 'I' for Inactive)
REMARK    1  A    between atoms: C_1  and  N_2
REMARK    2  A    between atoms: N_5  and  C_6
REMARK    3  A    between atoms: C_9  and  C_10
REMARK    4  A    between atoms: C_12  and  C_13
REMARK    5  A    between atoms: C_17  and  C_18
REMARK    6  A    between atoms: N_20  and  C_21
REMARK    7  A    between atoms: C_21  and  C_22
REMARK                            x       y       z     vdW  Elec       q    Type
REMARK                         _______ _______ _______ _____ _____    ______ ____
ROOT
ATOM      1  C   UNL     1       1.327   9.220  19.135  0.00  0.00    +0.000 A 
ATOM      2  C   UNL     1       1.994   8.061  19.477  0.00  0.00    +0.000 A 
ATOM      3  C   UNL     1       2.735   7.672  18.337  0.00  0.00    +0.000 A 
ATOM      4  N   UNL     1       2.540   8.547  17.337  0.00  0.00    +0.000 NA
ATOM      5  N   UNL     1       1.695   9.460  17.841  0.00  0.00    +0.000 N 
ATOM      6  H   UNL     1       1.422  10.238  17.252  0.00  0.00    +0.000 HD
ENDROOT
BRANCH   1  10
ATOM      7  C   UNL     1      -1.139  11.857  21.488  0.00  0.00    +0.000 A 
ATOM      8  C   UNL     1      -0.767  10.583  21.963  0.00  0.00    +0.000 A 
ATOM      9  C   UNL     1       0.017   9.697  21.210  0.00  0.00    +0.000 A 
ATOM     10  C   UNL     1       0.446  10.057  19.935  0.00  0.00    +0.000 A 
ATOM     11  C   UNL     1       0.074  11.304  19.434  0.00  0.00    +0.000 A 
ATOM     12  C   UNL     1      -0.678  12.200  20.198  0.00  0.00    +0.000 A 
ATOM     13 BR   UNL     1      -0.836  13.942  19.429  0.00  0.00    +0.000 Br
BRANCH   7  18
ATOM     14  C   UNL     1      -4.061  16.139  23.450  0.00  0.00    +0.000 C 
ATOM     15  N   UNL     1      -3.427  14.825  23.524  0.00  0.00    +0.000 NA
ATOM     16  C   UNL     1      -1.960  14.944  23.335  0.00  0.00    +0.000 C 
ATOM     17  C   UNL     1      -1.232  13.575  23.307  0.00  0.00    +0.000 C 
ATOM     18  N   UNL     1      -1.861  12.721  22.289  0.00  0.00    +0.000 N 
ATOM     19  C   UNL     1      -3.304  12.536  22.513  0.00  0.00    +0.000 C 
ATOM     20  C   UNL     1      -3.985  13.924  22.486  0.00  0.00    +0.000 C 
ENDBRANCH   7  18
ENDBRANCH   1  10
BRANCH   3  21
ATOM     21  C   UNL     1       3.611   6.510  18.197  0.00  0.00    +0.000 A 
ATOM     22  C   UNL     1       3.661   5.499  19.169  0.00  0.00    +0.000 A 
ATOM     23  C   UNL     1       4.510   4.404  19.013  0.00  0.00    +0.000 A 
ATOM     24  C   UNL     1       5.323   4.308  17.883  0.00  0.00    +0.000 A 
ATOM     25  C   UNL     1       5.293   5.308  16.897  0.00  0.00    +0.000 A 
ATOM     26  C   UNL     1       4.433   6.396  17.063  0.00  0.00    +0.000 A 
BRANCH  25  27
ATOM     27  C   UNL     1       6.190   5.161  15.710  0.00  0.00    +0.000 C 
ATOM     28  O   UNL     1       7.284   5.721  15.684  0.00  0.00    +0.000 OA
ATOM     29  N   UNL     1       5.747   4.392  14.657  0.00  0.00    +0.000 N 
ATOM     30  H   UNL     1       4.834   3.962  14.660  0.00  0.00    +0.000 HD
BRANCH  29  31
ATOM     31  C   UNL     1       6.558   4.230  13.463  0.00  0.00    +0.000 C 
BRANCH  31  32
ATOM     32  C   UNL     1       5.935   3.320  12.492  0.00  0.00    +0.000 C 
ATOM     33  N   UNL     1       5.420   2.613  11.730  0.00  0.00    +0.000 NA
ENDBRANCH  31  32
ENDBRANCH  29  31
ENDBRANCH  25  27
ENDBRANCH   3  21
TORSDOF 6
ENDMDL
MODEL 9
REMARK VINA RESULT:      -8.0      7.421      9.942
REMARK  Name = 
REMARK  7 active torsions:
REMARK  status: ('A' for Active; 'I' for Inactive)
REMARK    1  A    between atoms: C_1  and  N_2
REMARK    2  A    between atoms: N_5  and  C_6
REMARK    3  A    between atoms: C_9  and  C_10
REMARK    4  A    between atoms: C_12  and  C_13
REMARK    5  A    between atoms: C_17  and  C_18
REMARK    6  A    between atoms: N_20  and  C_21
REMARK    7  A    between atoms: C_21  and  C_22
REMARK                            x       y       z     vdW  Elec       q    Type
REMARK                         _______ _______ _______ _____ _____    ______ ____
ROOT
ATOM      1  C   UNL     1       1.409   9.100  18.942  0.00  0.00    +0.000 A 
ATOM      2  C   UNL     1       2.000   7.931  19.373  0.00  0.00    +0.000 A 
ATOM      3  C   UNL     1       2.852   7.502  18.330  0.00  0.00    +0.000 A 
ATOM      4  N   UNL     1       2.796   8.363  17.302  0.00  0.00    +0.000 NA
ATOM      5  N   UNL     1       1.926   9.308  17.694  0.00  0.00    +0.000 N 
ATOM      6  H   UNL     1       1.743  10.083  17.066  0.00  0.00    +0.000 HD
ENDROOT
BRANCH   1  10
ATOM      7  C   UNL     1      -1.383  11.814  20.790  0.00  0.00    +0.000 A 
ATOM      8  C   UNL     1      -0.165  11.477  21.416  0.00  0.00    +0.000 A 
ATOM      9  C   UNL     1       0.751  10.581  20.846  0.00  0.00    +0.000 A 
ATOM     10  C   UNL     1       0.468   9.975  19.625  0.00  0.00    +0.000 A 
ATOM     11  C   UNL     1      -0.740  10.276  18.997  0.00  0.00    +0.000 A 
ATOM     12  C   UNL     1      -1.638  11.194  19.548  0.00  0.00    +0.000 A 
ATOM     13 BR   UNL     1      -3.087  11.659  18.393  0.00  0.00    +0.000 Br
BRANCH   7  18
ATOM     14  C   UNL     1      -5.756  14.944  22.131  0.00  0.00    +0.000 C 
ATOM     15  N   UNL     1      -4.377  14.478  22.249  0.00  0.00    +0.000 NA
ATOM     16  C   UNL     1      -3.633  14.731  20.990  0.00  0.00    +0.000 C 
ATOM     17  C   UNL     1      -2.186  14.175  21.010  0.00  0.00    +0.000 C 
ATOM     18  N   UNL     1      -2.227  12.748  21.359  0.00  0.00    +0.000 N 
ATOM     19  C   UNL     1      -2.897  12.496  22.645  0.00  0.00    +0.000 C 
ATOM     20  C   UNL     1      -4.347  13.026  22.555  0.00  0.00    +0.000 C 
ENDBRANCH   7  18
ENDBRANCH   1  10
BRANCH   3  21
ATOM     21  C   UNL     1       3.705   6.314  18.306  0.00  0.00    +0.000 A 
ATOM     22  C   UNL     1       3.699   5.378  19.351  0.00  0.00    +0.000 A 
ATOM     23  C   UNL     1       4.527   4.256  19.305  0.00  0.00    +0.000 A 
ATOM     24  C   UNL     1       5.374   4.060  18.215  0.00  0.00    +0.000 A 
ATOM     25  C   UNL     1       5.400   4.984  17.157  0.00  0.00    +0.000 A 
ATOM     26  C   UNL     1       4.561   6.099  17.213  0.00  0.00    +0.000 A 
BRANCH  25  27
ATOM     27  C   UNL     1       6.332   4.731  16.016  0.00  0.00    +0.000 C 
ATOM     28  O   UNL     1       7.548   4.713  16.198  0.00  0.00    +0.000 OA
ATOM     29  N   UNL     1       5.785   4.528  14.768  0.00  0.00    +0.000 N 
ATOM     30  H   UNL     1       4.789   4.579  14.610  0.00  0.00    +0.000 HD
BRANCH  29  31
ATOM     31  C   UNL     1       6.635   4.302  13.612  0.00  0.00    +0.000 C 
BRANCH  31  32
ATOM     32  C   UNL     1       5.995   3.432  12.617  0.00  0.00    +0.000 C 
ATOM     33  N   UNL     1       5.474   2.766  11.823  0.00  0.00    +0.000 NA
ENDBRANCH  31  32
ENDBRANCH  29  31
ENDBRANCH  25  27
ENDBRANCH   3  21
TORSDOF 6
ENDMDL
