MODEL 1
REMARK VINA RESULT:      -6.3      0.000      0.000
REMARK  Name = 
REMARK  9 active torsions:
REMARK  status: ('A' for Active; 'I' for Inactive)
REMARK    1  A    between atoms: C_1  and  C_2
REMARK    2  A    between atoms: C_2  and  C_3
REMARK    3  A    between atoms: C_2  and  N_4
REMARK    4  A    between atoms: N_4  and  C_5
REMARK    5  A    between atoms: C_5  and  C_6
REMARK    6  A    between atoms: C_6  and  O_7
REMARK    7  A    between atoms: C_6  and  C_8
REMARK    8  A    between atoms: C_11  and  O_12
REMARK    9  A    between atoms: C_13  and  N_14
REMARK                            x       y       z     vdW  Elec       q    Type
REMARK                         _______ _______ _______ _____ _____    ______ ____
ROOT
ATOM      1  C   UNL     1       5.325   4.375  17.839  0.00  0.00    +0.000 A 
ATOM      2  C   UNL     1       5.219   3.661  16.632  0.00  0.00    +0.000 A 
ATOM      3  C   UNL     1       5.949   4.047  15.507  0.00  0.00    +0.000 A 
ATOM      4  C   UNL     1       6.802   5.143  15.590  0.00  0.00    +0.000 A 
ATOM      5  C   UNL     1       6.958   5.853  16.787  0.00  0.00    +0.000 A 
ATOM      6  C   UNL     1       6.185   5.486  17.891  0.00  0.00    +0.000 A 
ENDROOT
BRANCH   5   7
ATOM      7  N   UNL     1       7.720   7.034  16.817  0.00  0.00    +0.000 N 
ATOM      8  H   UNL     1       7.233   7.753  17.348  0.00  0.00    +0.000 HD
ATOM      9  H   UNL     1       8.036   7.347  15.907  0.00  0.00    +0.000 HD
ENDBRANCH   5   7
BRANCH   4  10
ATOM     10  O   UNL     1       7.544   5.535  14.506  0.00  0.00    +0.000 OA
ATOM     11  H   UNL     1       8.177   6.210  14.799  0.00  0.00    +0.000 HD
ENDBRANCH   4  10
BRANCH   1  12
ATOM     12  C   UNL     1       4.577   3.880  19.063  0.00  0.00    +0.000 C 
BRANCH  12  13
ATOM     13  O   UNL     1       5.169   2.686  19.580  0.00  0.00    +0.000 OA
ATOM     14  H   UNL     1       6.132   2.782  19.508  0.00  0.00    +0.000 HD
ENDBRANCH  12  13
BRANCH  12  15
ATOM     15  C   UNL     1       3.083   3.651  18.710  0.00  0.00    +0.000 C 
BRANCH  15  16
ATOM     16  N   UNL     1       2.552   2.426  19.325  0.00  0.00    +0.000 NA
ATOM     17  H   UNL     1       2.160   1.828  18.594  0.00  0.00    +0.000 HD
BRANCH  16  19
ATOM     18  C   UNL     1       2.253   2.646  21.729  0.00  0.00    +0.000 C 
ATOM     19  C   UNL     1       1.552   2.683  20.369  0.00  0.00    +0.000 C 
ATOM     20  C   UNL     1       0.866   4.041  20.190  0.00  0.00    +0.000 C 
ENDBRANCH  16  19
ENDBRANCH  15  16
ENDBRANCH  12  15
ENDBRANCH   1  12
TORSDOF 7
ENDMDL
MODEL 2
REMARK VINA RESULT:      -6.3      2.533      5.757
REMARK  Name = 
REMARK  9 active torsions:
REMARK  status: ('A' for Active; 'I' for Inactive)
REMARK    1  A    between atoms: C_1  and  C_2
REMARK    2  A    between atoms: C_2  and  C_3
REMARK    3  A    between atoms: C_2  and  N_4
REMARK    4  A    between atoms: N_4  and  C_5
REMARK    5  A    between atoms: C_5  and  C_6
REMARK    6  A    between atoms: C_6  and  O_7
REMARK    7  A    between atoms: C_6  and  C_8
REMARK    8  A    between atoms: C_11  and  O_12
REMARK    9  A    between atoms: C_13  and  N_14
REMARK                            x       y       z     vdW  Elec       q    Type
REMARK                         _______ _______ _______ _____ _____    ______ ____
ROOT
ATOM      1  C   UNL     1       3.557   5.031  17.731  0.00  0.00    +0.000 A 
ATOM      2  C   UNL     1       2.160   5.086  17.882  0.00  0.00    +0.000 A 
ATOM      3  C   UNL     1       1.423   3.930  18.145  0.00  0.00    +0.000 A 
ATOM      4  C   UNL     1       2.086   2.714  18.271  0.00  0.00    +0.000 A 
ATOM      5  C   UNL     1       3.479   2.629  18.162  0.00  0.00    +0.000 A 
ATOM      6  C   UNL     1       4.199   3.786  17.851  0.00  0.00    +0.000 A 
ENDROOT
BRANCH   5   7
ATOM      7  N   UNL     1       4.116   1.377  18.160  0.00  0.00    +0.000 N 
ATOM      8  H   UNL     1       3.548   0.692  18.655  0.00  0.00    +0.000 HD
ATOM      9  H   UNL     1       5.081   1.401  18.468  0.00  0.00    +0.000 HD
ENDBRANCH   5   7
BRANCH   4  10
ATOM     10  O   UNL     1       1.390   1.564  18.545  0.00  0.00    +0.000 OA
ATOM     11  H   UNL     1       1.792   0.838  18.041  0.00  0.00    +0.000 HD
ENDBRANCH   4  10
BRANCH   1  12
ATOM     12  C   UNL     1       4.334   6.319  17.524  0.00  0.00    +0.000 C 
BRANCH  12  13
ATOM     13  O   UNL     1       3.463   7.453  17.545  0.00  0.00    +0.000 OA
ATOM     14  H   UNL     1       2.608   7.159  17.896  0.00  0.00    +0.000 HD
ENDBRANCH  12  13
BRANCH  12  15
ATOM     15  C   UNL     1       5.124   6.249  16.191  0.00  0.00    +0.000 C 
BRANCH  15  16
ATOM     16  N   UNL     1       6.577   6.295  16.408  0.00  0.00    +0.000 NA
ATOM     17  H   UNL     1       6.965   5.358  16.274  0.00  0.00    +0.000 HD
BRANCH  16  19
ATOM     18  C   UNL     1       7.720   5.737  18.481  0.00  0.00    +0.000 C 
ATOM     19  C   UNL     1       6.955   6.825  17.723  0.00  0.00    +0.000 C 
ATOM     20  C   UNL     1       7.832   8.076  17.612  0.00  0.00    +0.000 C 
ENDBRANCH  16  19
ENDBRANCH  15  16
ENDBRANCH  12  15
ENDBRANCH   1  12
TORSDOF 7
ENDMDL
MODEL 3
REMARK VINA RESULT:      -6.2      1.946      2.316
REMARK  Name = 
REMARK  9 active torsions:
REMARK  status: ('A' for Active; 'I' for Inactive)
REMARK    1  A    between atoms: C_1  and  C_2
REMARK    2  A    between atoms: C_2  and  C_3
REMARK    3  A    between atoms: C_2  and  N_4
REMARK    4  A    between atoms: N_4  and  C_5
REMARK    5  A    between atoms: C_5  and  C_6
REMARK    6  A    between atoms: C_6  and  O_7
REMARK    7  A    between atoms: C_6  and  C_8
REMARK    8  A    between atoms: C_11  and  O_12
REMARK    9  A    between atoms: C_13  and  N_14
REMARK                            x       y       z     vdW  Elec       q    Type
REMARK                         _______ _______ _______ _____ _____    ______ ____
ROOT
ATOM      1  C   UNL     1       3.803   4.261  17.291  0.00  0.00    +0.000 A 
ATOM      2  C   UNL     1       3.528   5.580  17.693  0.00  0.00    +0.000 A 
ATOM      3  C   UNL     1       4.477   6.591  17.528  0.00  0.00    +0.000 A 
ATOM      4  C   UNL     1       5.702   6.286  16.944  0.00  0.00    +0.000 A 
ATOM      5  C   UNL     1       5.994   4.991  16.499  0.00  0.00    +0.000 A 
ATOM      6  C   UNL     1       5.055   3.980  16.714  0.00  0.00    +0.000 A 
ENDROOT
BRANCH   5   7
ATOM      7  N   UNL     1       7.282   4.674  16.034  0.00  0.00    +0.000 N 
ATOM      8  H   UNL     1       7.610   5.391  15.390  0.00  0.00    +0.000 HD
ATOM      9  H   UNL     1       7.372   3.733  15.672  0.00  0.00    +0.000 HD
ENDBRANCH   5   7
BRANCH   4  10
ATOM     10  O   UNL     1       6.647   7.262  16.753  0.00  0.00    +0.000 OA
ATOM     11  H   UNL     1       6.188   8.108  16.624  0.00  0.00    +0.000 HD
ENDBRANCH   4  10
BRANCH   1  12
ATOM     12  C   UNL     1       2.720   3.206  17.414  0.00  0.00    +0.000 C 
BRANCH  12  13
ATOM     13  O   UNL     1       1.429   3.761  17.149  0.00  0.00    +0.000 OA
ATOM     14  H   UNL     1       1.213   3.569  16.223  0.00  0.00    +0.000 HD
ENDBRANCH  12  13
BRANCH  12  15
ATOM     15  C   UNL     1       2.769   2.563  18.825  0.00  0.00    +0.000 C 
BRANCH  15  16
ATOM     16  N   UNL     1       1.428   2.395  19.403  0.00  0.00    +0.000 NA
ATOM     17  H   UNL     1       0.731   2.721  18.730  0.00  0.00    +0.000 HD
BRANCH  16  19
ATOM     18  C   UNL     1       2.417   2.679  21.608  0.00  0.00    +0.000 C 
ATOM     19  C   UNL     1       1.258   3.079  20.691  0.00  0.00    +0.000 C 
ATOM     20  C   UNL     1       1.238   4.603  20.537  0.00  0.00    +0.000 C 
ENDBRANCH  16  19
ENDBRANCH  15  16
ENDBRANCH  12  15
ENDBRANCH   1  12
TORSDOF 7
ENDMDL
MODEL 4
REMARK VINA RESULT:      -6.2      0.851      1.189
REMARK  Name = 
REMARK  9 active torsions:
REMARK  status: ('A' for Active; 'I' for Inactive)
REMARK    1  A    between atoms: C_1  and  C_2
REMARK    2  A    between atoms: C_2  and  C_3
REMARK    3  A    between atoms: C_2  and  N_4
REMARK    4  A    between atoms: N_4  and  C_5
REMARK    5  A    between atoms: C_5  and  C_6
REMARK    6  A    between atoms: C_6  and  O_7
REMARK    7  A    between atoms: C_6  and  C_8
REMARK    8  A    between atoms: C_11  and  O_12
REMARK    9  A    between atoms: C_13  and  N_14
REMARK                            x       y       z     vdW  Elec       q    Type
REMARK                         _______ _______ _______ _____ _____    ______ ____
ROOT
ATOM      1  C   UNL     1       5.112   4.405  17.524  0.00  0.00    +0.000 A 
ATOM      2  C   UNL     1       5.085   3.693  16.311  0.00  0.00    +0.000 A 
ATOM      3  C   UNL     1       5.923   4.049  15.254  0.00  0.00    +0.000 A 
ATOM      4  C   UNL     1       6.804   5.114  15.411  0.00  0.00    +0.000 A 
ATOM      5  C   UNL     1       6.882   5.821  16.617  0.00  0.00    +0.000 A 
ATOM      6  C   UNL     1       6.004   5.485  17.651  0.00  0.00    +0.000 A 
ENDROOT
BRANCH   5   7
ATOM      7  N   UNL     1       7.680   6.973  16.714  0.00  0.00    +0.000 N 
ATOM      8  H   UNL     1       7.982   7.113  17.677  0.00  0.00    +0.000 HD
ATOM      9  H   UNL     1       7.270   7.799  16.295  0.00  0.00    +0.000 HD
ENDBRANCH   5   7
BRANCH   4  10
ATOM     10  O   UNL     1       7.652   5.476  14.395  0.00  0.00    +0.000 OA
ATOM     11  H   UNL     1       8.467   5.825  14.790  0.00  0.00    +0.000 HD
ENDBRANCH   4  10
BRANCH   1  12
ATOM     12  C   UNL     1       4.243   3.940  18.678  0.00  0.00    +0.000 C 
BRANCH  12  13
ATOM     13  O   UNL     1       4.531   2.583  19.024  0.00  0.00    +0.000 OA
ATOM     14  H   UNL     1       5.195   2.256  18.397  0.00  0.00    +0.000 HD
ENDBRANCH  12  13
BRANCH  12  15
ATOM     15  C   UNL     1       2.746   4.115  18.313  0.00  0.00    +0.000 C 
BRANCH  15  16
ATOM     16  N   UNL     1       1.940   4.534  19.469  0.00  0.00    +0.000 NA
ATOM     17  H   UNL     1       2.565   4.812  20.229  0.00  0.00    +0.000 HD
BRANCH  16  19
ATOM     18  C   UNL     1       0.874   2.441  18.836  0.00  0.00    +0.000 C 
ATOM     19  C   UNL     1       0.999   3.505  19.928  0.00  0.00    +0.000 C 
ATOM     20  C   UNL     1       1.458   2.842  21.231  0.00  0.00    +0.000 C 
ENDBRANCH  16  19
ENDBRANCH  15  16
ENDBRANCH  12  15
ENDBRANCH   1  12
TORSDOF 7
ENDMDL
MODEL 5
REMARK VINA RESULT:      -6.2      1.543      2.111
REMARK  Name = 
REMARK  9 active torsions:
REMARK  status: ('A' for Active; 'I' for Inactive)
REMARK    1  A    between atoms: C_1  and  C_2
REMARK    2  A    between atoms: C_2  and  C_3
REMARK    3  A    between atoms: C_2  and  N_4
REMARK    4  A    between atoms: N_4  and  C_5
REMARK    5  A    between atoms: C_5  and  C_6
REMARK    6  A    between atoms: C_6  and  O_7
REMARK    7  A    between atoms: C_6  and  C_8
REMARK    8  A    between atoms: C_11  and  O_12
REMARK    9  A    between atoms: C_13  and  N_14
REMARK                            x       y       z     vdW  Elec       q    Type
REMARK                         _______ _______ _______ _____ _____    ______ ____
ROOT
ATOM      1  C   UNL     1       5.278   4.279  18.407  0.00  0.00    +0.000 A 
ATOM      2  C   UNL     1       6.254   4.936  19.178  0.00  0.00    +0.000 A 
ATOM      3  C   UNL     1       7.027   5.961  18.630  0.00  0.00    +0.000 A 
ATOM      4  C   UNL     1       6.816   6.343  17.309  0.00  0.00    +0.000 A 
ATOM      5  C   UNL     1       5.828   5.735  16.525  0.00  0.00    +0.000 A 
ATOM      6  C   UNL     1       5.094   4.678  17.071  0.00  0.00    +0.000 A 
ENDROOT
BRANCH   5   7
ATOM      7  N   UNL     1       5.718   6.041  15.158  0.00  0.00    +0.000 N 
ATOM      8  H   UNL     1       6.357   6.795  14.914  0.00  0.00    +0.000 HD
ATOM      9  H   UNL     1       4.769   6.196  14.842  0.00  0.00    +0.000 HD
ENDBRANCH   5   7
BRANCH   4  10
ATOM     10  O   UNL     1       7.549   7.358  16.749  0.00  0.00    +0.000 OA
ATOM     11  H   UNL     1       7.154   8.202  17.019  0.00  0.00    +0.000 HD
ENDBRANCH   4  10
BRANCH   1  12
ATOM     12  C   UNL     1       4.403   3.224  19.058  0.00  0.00    +0.000 C 
BRANCH  12  13
ATOM     13  O   UNL     1       5.193   2.276  19.781  0.00  0.00    +0.000 OA
ATOM     14  H   UNL     1       5.072   1.412  19.357  0.00  0.00    +0.000 HD
ENDBRANCH  12  13
BRANCH  12  15
ATOM     15  C   UNL     1       3.537   2.520  17.981  0.00  0.00    +0.000 C 
BRANCH  15  16
ATOM     16  N   UNL     1       2.330   1.908  18.555  0.00  0.00    +0.000 NA
ATOM     17  H   UNL     1       2.113   1.051  18.042  0.00  0.00    +0.000 HD
BRANCH  16  19
ATOM     18  C   UNL     1       0.882   3.202  20.020  0.00  0.00    +0.000 C 
ATOM     19  C   UNL     1       1.170   2.807  18.570  0.00  0.00    +0.000 C 
ATOM     20  C   UNL     1       1.409   4.072  17.738  0.00  0.00    +0.000 C 
ENDBRANCH  16  19
ENDBRANCH  15  16
ENDBRANCH  12  15
ENDBRANCH   1  12
TORSDOF 7
ENDMDL
MODEL 6
REMARK VINA RESULT:      -6.2      2.022      2.324
REMARK  Name = 
REMARK  9 active torsions:
REMARK  status: ('A' for Active; 'I' for Inactive)
REMARK    1  A    between atoms: C_1  and  C_2
REMARK    2  A    between atoms: C_2  and  C_3
REMARK    3  A    between atoms: C_2  and  N_4
REMARK    4  A    between atoms: N_4  and  C_5
REMARK    5  A    between atoms: C_5  and  C_6
REMARK    6  A    between atoms: C_6  and  O_7
REMARK    7  A    between atoms: C_6  and  C_8
REMARK    8  A    between atoms: C_11  and  O_12
REMARK    9  A    between atoms: C_13  and  N_14
REMARK                            x       y       z     vdW  Elec       q    Type
REMARK                         _______ _______ _______ _____ _____    ______ ____
ROOT
ATOM      1  C   UNL     1       4.192   5.336  18.310  0.00  0.00    +0.000 A 
ATOM      2  C   UNL     1       4.409   4.768  17.042  0.00  0.00    +0.000 A 
ATOM      3  C   UNL     1       5.688   4.378  16.643  0.00  0.00    +0.000 A 
ATOM      4  C   UNL     1       6.756   4.542  17.519  0.00  0.00    +0.000 A 
ATOM      5  C   UNL     1       6.568   5.071  18.802  0.00  0.00    +0.000 A 
ATOM      6  C   UNL     1       5.291   5.502  19.171  0.00  0.00    +0.000 A 
ENDROOT
BRANCH   5   7
ATOM      7  N   UNL     1       7.674   5.352  19.622  0.00  0.00    +0.000 N 
ATOM      8  H   UNL     1       7.362   5.685  20.532  0.00  0.00    +0.000 HD
ATOM      9  H   UNL     1       8.371   5.947  19.191  0.00  0.00    +0.000 HD
ENDBRANCH   5   7
BRANCH   4  10
ATOM     10  O   UNL     1       8.021   4.153  17.161  0.00  0.00    +0.000 OA
ATOM     11  H   UNL     1       8.129   3.217  17.396  0.00  0.00    +0.000 HD
ENDBRANCH   4  10
BRANCH   1  12
ATOM     12  C   UNL     1       2.776   5.675  18.740  0.00  0.00    +0.000 C 
BRANCH  12  13
ATOM     13  O   UNL     1       2.740   6.089  20.108  0.00  0.00    +0.000 OA
ATOM     14  H   UNL     1       2.953   7.035  20.133  0.00  0.00    +0.000 HD
ENDBRANCH  12  13
BRANCH  12  15
ATOM     15  C   UNL     1       1.848   4.455  18.504  0.00  0.00    +0.000 C 
BRANCH  15  16
ATOM     16  N   UNL     1       1.108   4.081  19.718  0.00  0.00    +0.000 NA
ATOM     17  H   UNL     1       1.276   4.783  20.442  0.00  0.00    +0.000 HD
BRANCH  16  19
ATOM     18  C   UNL     1       2.276   2.024  19.150  0.00  0.00    +0.000 C 
ATOM     19  C   UNL     1       1.442   2.740  20.214  0.00  0.00    +0.000 C 
ATOM     20  C   UNL     1       2.230   2.790  21.527  0.00  0.00    +0.000 C 
ENDBRANCH  16  19
ENDBRANCH  15  16
ENDBRANCH  12  15
ENDBRANCH   1  12
TORSDOF 7
ENDMDL
MODEL 7
REMARK VINA RESULT:      -6.2      1.213      1.441
REMARK  Name = 
REMARK  9 active torsions:
REMARK  status: ('A' for Active; 'I' for Inactive)
REMARK    1  A    between atoms: C_1  and  C_2
REMARK    2  A    between atoms: C_2  and  C_3
REMARK    3  A    between atoms: C_2  and  N_4
REMARK    4  A    between atoms: N_4  and  C_5
REMARK    5  A    between atoms: C_5  and  C_6
REMARK    6  A    between atoms: C_6  and  O_7
REMARK    7  A    between atoms: C_6  and  C_8
REMARK    8  A    between atoms: C_11  and  O_12
REMARK    9  A    between atoms: C_13  and  N_14
REMARK                            x       y       z     vdW  Elec       q    Type
REMARK                         _______ _______ _______ _____ _____    ______ ____
ROOT
ATOM      1  C   UNL     1       5.177   3.959  18.447  0.00  0.00    +0.000 A 
ATOM      2  C   UNL     1       5.009   3.923  17.051  0.00  0.00    +0.000 A 
ATOM      3  C   UNL     1       5.800   4.711  16.214  0.00  0.00    +0.000 A 
ATOM      4  C   UNL     1       6.775   5.532  16.773  0.00  0.00    +0.000 A 
ATOM      5  C   UNL     1       6.993   5.565  18.156  0.00  0.00    +0.000 A 
ATOM      6  C   UNL     1       6.162   4.807  18.985  0.00  0.00    +0.000 A 
ENDROOT
BRANCH   5   7
ATOM      7  N   UNL     1       7.889   6.494  18.711  0.00  0.00    +0.000 N 
ATOM      8  H   UNL     1       7.403   7.362  18.933  0.00  0.00    +0.000 HD
ATOM      9  H   UNL     1       8.734   6.631  18.170  0.00  0.00    +0.000 HD
ENDBRANCH   5   7
BRANCH   4  10
ATOM     10  O   UNL     1       7.579   6.305  15.975  0.00  0.00    +0.000 OA
ATOM     11  H   UNL     1       7.760   7.137  16.441  0.00  0.00    +0.000 HD
ENDBRANCH   4  10
BRANCH   1  12
ATOM     12  C   UNL     1       4.353   3.030  19.319  0.00  0.00    +0.000 C 
BRANCH  12  13
ATOM     13  O   UNL     1       5.188   2.094  20.005  0.00  0.00    +0.000 OA
ATOM     14  H   UNL     1       5.093   1.237  19.561  0.00  0.00    +0.000 HD
ENDBRANCH  12  13
BRANCH  12  15
ATOM     15  C   UNL     1       3.293   2.299  18.454  0.00  0.00    +0.000 C 
BRANCH  15  16
ATOM     16  N   UNL     1       2.043   2.067  19.192  0.00  0.00    +0.000 NA
ATOM     17  H   UNL     1       1.664   1.154  18.930  0.00  0.00    +0.000 HD
BRANCH  16  19
ATOM     18  C   UNL     1       0.920   3.934  20.274  0.00  0.00    +0.000 C 
ATOM     19  C   UNL     1       1.038   3.118  18.985  0.00  0.00    +0.000 C 
ATOM     20  C   UNL     1       1.408   4.050  17.827  0.00  0.00    +0.000 C 
ENDBRANCH  16  19
ENDBRANCH  15  16
ENDBRANCH  12  15
ENDBRANCH   1  12
TORSDOF 7
ENDMDL
MODEL 8
REMARK VINA RESULT:      -6.1      2.292      5.675
REMARK  Name = 
REMARK  9 active torsions:
REMARK  status: ('A' for Active; 'I' for Inactive)
REMARK    1  A    between atoms: C_1  and  C_2
REMARK    2  A    between atoms: C_2  and  C_3
REMARK    3  A    between atoms: C_2  and  N_4
REMARK    4  A    between atoms: N_4  and  C_5
REMARK    5  A    between atoms: C_5  and  C_6
REMARK    6  A    between atoms: C_6  and  O_7
REMARK    7  A    between atoms: C_6  and  C_8
REMARK    8  A    between atoms: C_11  and  O_12
REMARK    9  A    between atoms: C_13  and  N_14
REMARK                            x       y       z     vdW  Elec       q    Type
REMARK                         _______ _______ _______ _____ _____    ______ ____
ROOT
ATOM      1  C   UNL     1       3.668   4.315  17.404  0.00  0.00    +0.000 A 
ATOM      2  C   UNL     1       2.724   3.280  17.281  0.00  0.00    +0.000 A 
ATOM      3  C   UNL     1       1.693   3.137  18.212  0.00  0.00    +0.000 A 
ATOM      4  C   UNL     1       1.596   4.041  19.265  0.00  0.00    +0.000 A 
ATOM      5  C   UNL     1       2.497   5.104  19.396  0.00  0.00    +0.000 A 
ATOM      6  C   UNL     1       3.552   5.207  18.486  0.00  0.00    +0.000 A 
ENDROOT
BRANCH   5   7
ATOM      7  N   UNL     1       2.464   5.926  20.536  0.00  0.00    +0.000 N 
ATOM      8  H   UNL     1       3.406   6.068  20.895  0.00  0.00    +0.000 HD
ATOM      9  H   UNL     1       1.802   5.630  21.243  0.00  0.00    +0.000 HD
ENDBRANCH   5   7
BRANCH   4  10
ATOM     10  O   UNL     1       0.584   3.936  20.185  0.00  0.00    +0.000 OA
ATOM     11  H   UNL     1       0.942   4.165  21.057  0.00  0.00    +0.000 HD
ENDBRANCH   4  10
BRANCH   1  12
ATOM     12  C   UNL     1       4.727   4.487  16.331  0.00  0.00    +0.000 C 
BRANCH  12  13
ATOM     13  O   UNL     1       5.846   3.630  16.572  0.00  0.00    +0.000 OA
ATOM     14  H   UNL     1       5.875   3.448  17.524  0.00  0.00    +0.000 HD
ENDBRANCH  12  13
BRANCH  12  15
ATOM     15  C   UNL     1       5.168   5.972  16.260  0.00  0.00    +0.000 C 
BRANCH  15  16
ATOM     16  N   UNL     1       6.612   6.131  16.483  0.00  0.00    +0.000 NA
ATOM     17  H   UNL     1       7.063   5.215  16.424  0.00  0.00    +0.000 HD
BRANCH  16  19
ATOM     18  C   UNL     1       7.695   5.779  18.633  0.00  0.00    +0.000 C 
ATOM     19  C   UNL     1       6.938   6.781  17.759  0.00  0.00    +0.000 C 
ATOM     20  C   UNL     1       7.797   8.035  17.564  0.00  0.00    +0.000 C 
ENDBRANCH  16  19
ENDBRANCH  15  16
ENDBRANCH  12  15
ENDBRANCH   1  12
TORSDOF 7
ENDMDL
MODEL 9
REMARK VINA RESULT:      -6.1      2.009      5.831
REMARK  Name = 
REMARK  9 active torsions:
REMARK  status: ('A' for Active; 'I' for Inactive)
REMARK    1  A    between atoms: C_1  and  C_2
REMARK    2  A    between atoms: C_2  and  C_3
REMARK    3  A    between atoms: C_2  and  N_4
REMARK    4  A    between atoms: N_4  and  C_5
REMARK    5  A    between atoms: C_5  and  C_6
REMARK    6  A    between atoms: C_6  and  O_7
REMARK    7  A    between atoms: C_6  and  C_8
REMARK    8  A    between atoms: C_11  and  O_12
REMARK    9  A    between atoms: C_13  and  N_14
REMARK                            x       y       z     vdW  Elec       q    Type
REMARK                         _______ _______ _______ _____ _____    ______ ____
ROOT
ATOM      1  C   UNL     1       4.060   4.325  17.004  0.00  0.00    +0.000 A 
ATOM      2  C   UNL     1       3.561   5.486  17.621  0.00  0.00    +0.000 A 
ATOM      3  C   UNL     1       2.533   5.410  18.561  0.00  0.00    +0.000 A 
ATOM      4  C   UNL     1       2.008   4.167  18.899  0.00  0.00    +0.000 A 
ATOM      5  C   UNL     1       2.506   2.988  18.330  0.00  0.00    +0.000 A 
ATOM      6  C   UNL     1       3.502   3.083  17.355  0.00  0.00    +0.000 A 
ENDROOT
BRANCH   5   7
ATOM      7  N   UNL     1       1.877   1.757  18.582  0.00  0.00    +0.000 N 
ATOM      8  H   UNL     1       0.895   1.804  18.318  0.00  0.00    +0.000 HD
ATOM      9  H   UNL     1       2.029   1.397  19.516  0.00  0.00    +0.000 HD
ENDBRANCH   5   7
BRANCH   4  10
ATOM     10  O   UNL     1       1.008   4.060  19.832  0.00  0.00    +0.000 OA
ATOM     11  H   UNL     1       0.218   4.502  19.482  0.00  0.00    +0.000 HD
ENDBRANCH   4  10
BRANCH   1  12
ATOM     12  C   UNL     1       5.231   4.438  16.045  0.00  0.00    +0.000 C 
BRANCH  12  13
ATOM     13  O   UNL     1       6.319   3.610  16.463  0.00  0.00    +0.000 OA
ATOM     14  H   UNL     1       6.202   3.428  17.408  0.00  0.00    +0.000 HD
ENDBRANCH  12  13
BRANCH  12  15
ATOM     15  C   UNL     1       5.674   5.920  15.928  0.00  0.00    +0.000 C 
BRANCH  15  16
ATOM     16  N   UNL     1       7.040   6.130  16.428  0.00  0.00    +0.000 NA
ATOM     17  H   UNL     1       7.512   5.226  16.501  0.00  0.00    +0.000 HD
BRANCH  16  19
ATOM     18  C   UNL     1       7.727   5.916  18.752  0.00  0.00    +0.000 C 
ATOM     19  C   UNL     1       7.089   6.840  17.713  0.00  0.00    +0.000 C 
ATOM     20  C   UNL     1       7.897   8.139  17.624  0.00  0.00    +0.000 C 
ENDBRANCH  16  19
ENDBRANCH  15  16
ENDBRANCH  12  15
ENDBRANCH   1  12
TORSDOF 7
ENDMDL
