MODEL 1
REMARK VINA RESULT:      -8.7      0.000      0.000
REMARK  Name = 
REMARK  6 active torsions:
REMARK  status: ('A' for Active; 'I' for Inactive)
REMARK    1  A    between atoms: C_1  and  C_2
REMARK    2  A    between atoms: C_2  and  C_4
REMARK    3  A    between atoms: C_7  and  N_8
REMARK    4  A    between atoms: C_13  and  C_14
REMARK    5  A    between atoms: C_17  and  S_18
REMARK    6  A    between atoms: S_18  and  N_21
REMARK                            x       y       z     vdW  Elec       q    Type
REMARK                         _______ _______ _______ _____ _____    ______ ____
ROOT
ATOM      1  N   UNL     1       0.114  11.268  21.866  0.00  0.00    +0.000 N 
ATOM      2  C   UNL     1       0.198  10.810  20.549  0.00  0.00    +0.000 A 
ATOM      3  N   UNL     1      -0.522  11.377  19.571  0.00  0.00    +0.000 NA
ATOM      4  C   UNL     1      -0.432  10.858  18.339  0.00  0.00    +0.000 A 
ATOM      5  C   UNL     1       0.367   9.789  18.037  0.00  0.00    +0.000 A 
ATOM      6  C   UNL     1       1.096   9.265  19.086  0.00  0.00    +0.000 A 
ATOM      7  N   UNL     1       1.010   9.765  20.342  0.00  0.00    +0.000 NA
ATOM      8  H   UNL     1       0.636  10.643  22.463  0.00  0.00    +0.000 HD
ENDROOT
BRANCH   1  12
ATOM      9  C   UNL     1      -2.816  13.761  23.630  0.00  0.00    +0.000 A 
ATOM     10  C   UNL     1      -2.983  12.373  23.595  0.00  0.00    +0.000 A 
ATOM     11  C   UNL     1      -1.981  11.554  23.046  0.00  0.00    +0.000 A 
ATOM     12  C   UNL     1      -0.818  12.110  22.486  0.00  0.00    +0.000 A 
ATOM     13  C   UNL     1      -0.658  13.497  22.578  0.00  0.00    +0.000 A 
ATOM     14  C   UNL     1      -1.641  14.321  23.133  0.00  0.00    +0.000 A 
BRANCH   9  16
ATOM     15  C   UNL     1      -3.532  15.821  24.987  0.00  0.00    +0.000 C 
ATOM     16  C   UNL     1      -3.907  14.613  24.170  0.00  0.00    +0.000 C 
ATOM     17  O   UNL     1      -5.079  14.313  23.955  0.00  0.00    +0.000 OA
ENDBRANCH   9  16
ENDBRANCH   1  12
BRANCH   6  18
ATOM     18  C   UNL     1       2.041   8.144  18.920  0.00  0.00    +0.000 A 
ATOM     19  C   UNL     1       2.175   7.143  19.899  0.00  0.00    +0.000 A 
ATOM     20  C   UNL     1       3.025   6.048  19.705  0.00  0.00    +0.000 A 
ATOM     21  C   UNL     1       3.752   5.928  18.516  0.00  0.00    +0.000 A 
ATOM     22  C   UNL     1       3.684   6.939  17.557  0.00  0.00    +0.000 A 
ATOM     23  C   UNL     1       2.824   8.028  17.755  0.00  0.00    +0.000 A 
BRANCH  21  24
ATOM     24  S   UNL     1       4.899   4.575  18.317  0.00  0.00    +0.000 S 
ATOM     25  O   UNL     1       5.550   4.762  17.037  0.00  0.00    +0.000 OA
ATOM     26  O   UNL     1       5.677   4.513  19.539  0.00  0.00    +0.000 OA
BRANCH  24  27
ATOM     27  N   UNL     1       3.972   3.175  18.236  0.00  0.00    +0.000 NA
ATOM     28  C   UNL     1       3.886   2.259  19.393  0.00  0.00    +0.000 C 
ATOM     29  C   UNL     1       2.614   2.525  20.217  0.00  0.00    +0.000 C 
ATOM     30  N   UNL     1       1.367   2.569  19.438  0.00  0.00    +0.000 NA
ATOM     31  C   UNL     1       1.486   3.366  18.207  0.00  0.00    +0.000 C 
ATOM     32  C   UNL     1       2.761   3.109  17.389  0.00  0.00    +0.000 C 
ATOM     33  H   UNL     1       0.629   2.970  20.020  0.00  0.00    +0.000 HD
ENDBRANCH  24  27
ENDBRANCH  21  24
ENDBRANCH   6  18
TORSDOF 5
ENDMDL
MODEL 2
REMARK VINA RESULT:      -8.5      0.562      1.060
REMARK  Name = 
REMARK  6 active torsions:
REMARK  status: ('A' for Active; 'I' for Inactive)
REMARK    1  A    between atoms: C_1  and  C_2
REMARK    2  A    between atoms: C_2  and  C_4
REMARK    3  A    between atoms: C_7  and  N_8
REMARK    4  A    between atoms: C_13  and  C_14
REMARK    5  A    between atoms: C_17  and  S_18
REMARK    6  A    between atoms: S_18  and  N_21
REMARK                            x       y       z     vdW  Elec       q    Type
REMARK                         _______ _______ _______ _____ _____    ______ ____
ROOT
ATOM      1  N   UNL     1       0.064  11.382  21.806  0.00  0.00    +0.000 N 
ATOM      2  C   UNL     1       0.129  10.864  20.511  0.00  0.00    +0.000 A 
ATOM      3  N   UNL     1      -0.630  11.362  19.525  0.00  0.00    +0.000 NA
ATOM      4  C   UNL     1      -0.554  10.787  18.318  0.00  0.00    +0.000 A 
ATOM      5  C   UNL     1       0.268   9.727  18.046  0.00  0.00    +0.000 A 
ATOM      6  C   UNL     1       1.037   9.275  19.101  0.00  0.00    +0.000 A 
ATOM      7  N   UNL     1       0.967   9.833  20.334  0.00  0.00    +0.000 NA
ATOM      8  H   UNL     1       0.618  10.801  22.419  0.00  0.00    +0.000 HD
ENDROOT
BRANCH   1  12
ATOM      9  C   UNL     1      -2.669  13.969  23.744  0.00  0.00    +0.000 A 
ATOM     10  C   UNL     1      -1.460  14.454  23.236  0.00  0.00    +0.000 A 
ATOM     11  C   UNL     1      -0.582  13.593  22.555  0.00  0.00    +0.000 A 
ATOM     12  C   UNL     1      -0.877  12.227  22.409  0.00  0.00    +0.000 A 
ATOM     13  C   UNL     1      -2.115  11.780  22.886  0.00  0.00    +0.000 A 
ATOM     14  C   UNL     1      -3.002  12.629  23.553  0.00  0.00    +0.000 A 
BRANCH   9  16
ATOM     15  C   UNL     1      -4.946  15.134  23.969  0.00  0.00    +0.000 C 
ATOM     16  C   UNL     1      -3.561  14.883  24.502  0.00  0.00    +0.000 C 
ATOM     17  O   UNL     1      -3.152  15.422  25.528  0.00  0.00    +0.000 OA
ENDBRANCH   9  16
ENDBRANCH   1  12
BRANCH   6  18
ATOM     18  C   UNL     1       2.009   8.174  18.964  0.00  0.00    +0.000 A 
ATOM     19  C   UNL     1       2.157   7.194  19.963  0.00  0.00    +0.000 A 
ATOM     20  C   UNL     1       3.034   6.116  19.797  0.00  0.00    +0.000 A 
ATOM     21  C   UNL     1       3.776   5.992  18.618  0.00  0.00    +0.000 A 
ATOM     22  C   UNL     1       3.695   6.984  17.640  0.00  0.00    +0.000 A 
ATOM     23  C   UNL     1       2.808   8.056  17.810  0.00  0.00    +0.000 A 
BRANCH  21  24
ATOM     24  S   UNL     1       4.957   4.663  18.455  0.00  0.00    +0.000 S 
ATOM     25  O   UNL     1       5.641   4.863  17.195  0.00  0.00    +0.000 OA
ATOM     26  O   UNL     1       5.700   4.619  19.699  0.00  0.00    +0.000 OA
BRANCH  24  27
ATOM     27  N   UNL     1       4.062   3.244  18.349  0.00  0.00    +0.000 NA
ATOM     28  C   UNL     1       3.959   2.329  19.506  0.00  0.00    +0.000 C 
ATOM     29  C   UNL     1       2.657   2.570  20.290  0.00  0.00    +0.000 C 
ATOM     30  N   UNL     1       1.434   2.586  19.473  0.00  0.00    +0.000 NA
ATOM     31  C   UNL     1       1.574   3.383  18.244  0.00  0.00    +0.000 C 
ATOM     32  C   UNL     1       2.880   3.151  17.466  0.00  0.00    +0.000 C 
ATOM     33  H   UNL     1       0.670   2.972  20.030  0.00  0.00    +0.000 HD
ENDBRANCH  24  27
ENDBRANCH  21  24
ENDBRANCH   6  18
TORSDOF 5
ENDMDL
MODEL 3
REMARK VINA RESULT:      -8.4      0.322      1.264
REMARK  Name = 
REMARK  6 active torsions:
REMARK  status: ('A' for Active; 'I' for Inactive)
REMARK    1  A    between atoms: C_1  and  C_2
REMARK    2  A    between atoms: C_2  and  C_4
REMARK    3  A    between atoms: C_7  and  N_8
REMARK    4  A    between atoms: C_13  and  C_14
REMARK    5  A    between atoms: C_17  and  S_18
REMARK    6  A    between atoms: S_18  and  N_21
REMARK                            x       y       z     vdW  Elec       q    Type
REMARK                         _______ _______ _______ _____ _____    ______ ____
ROOT
ATOM      1  N   UNL     1       0.162  11.243  21.769  0.00  0.00    +0.000 N 
ATOM      2  C   UNL     1       0.239  10.763  20.460  0.00  0.00    +0.000 A 
ATOM      3  N   UNL     1      -0.482  11.316  19.474  0.00  0.00    +0.000 NA
ATOM      4  C   UNL     1      -0.398  10.776  18.252  0.00  0.00    +0.000 A 
ATOM      5  C   UNL     1       0.395   9.698  17.965  0.00  0.00    +0.000 A 
ATOM      6  C   UNL     1       1.126   9.189  19.021  0.00  0.00    +0.000 A 
ATOM      7  N   UNL     1       1.046   9.711  20.269  0.00  0.00    +0.000 NA
ATOM      8  H   UNL     1       0.682  10.626  22.376  0.00  0.00    +0.000 HD
ENDROOT
BRANCH   1  12
ATOM      9  C   UNL     1      -2.522  13.874  23.717  0.00  0.00    +0.000 A 
ATOM     10  C   UNL     1      -1.353  14.355  23.122  0.00  0.00    +0.000 A 
ATOM     11  C   UNL     1      -0.493  13.477  22.439  0.00  0.00    +0.000 A 
ATOM     12  C   UNL     1      -0.765  12.100  22.378  0.00  0.00    +0.000 A 
ATOM     13  C   UNL     1      -1.966  11.654  22.942  0.00  0.00    +0.000 A 
ATOM     14  C   UNL     1      -2.835  12.520  23.612  0.00  0.00    +0.000 A 
BRANCH   9  16
ATOM     15  C   UNL     1      -2.819  15.502  25.681  0.00  0.00    +0.000 C 
ATOM     16  C   UNL     1      -3.393  14.809  24.475  0.00  0.00    +0.000 C 
ATOM     17  O   UNL     1      -4.555  14.985  24.116  0.00  0.00    +0.000 OA
ENDBRANCH   9  16
ENDBRANCH   1  12
BRANCH   6  18
ATOM     18  C   UNL     1       2.065   8.061  18.871  0.00  0.00    +0.000 A 
ATOM     19  C   UNL     1       2.873   7.924  17.728  0.00  0.00    +0.000 A 
ATOM     20  C   UNL     1       3.809   6.889  17.621  0.00  0.00    +0.000 A 
ATOM     21  C   UNL     1       3.962   5.972  18.666  0.00  0.00    +0.000 A 
ATOM     22  C   UNL     1       3.128   6.049  19.783  0.00  0.00    +0.000 A 
ATOM     23  C   UNL     1       2.199   7.094  19.885  0.00  0.00    +0.000 A 
BRANCH  21  24
ATOM     24  S   UNL     1       5.094   4.605  18.482  0.00  0.00    +0.000 S 
ATOM     25  O   UNL     1       5.802   4.813  17.236  0.00  0.00    +0.000 OA
ATOM     26  O   UNL     1       5.816   4.497  19.734  0.00  0.00    +0.000 OA
BRANCH  24  27
ATOM     27  N   UNL     1       4.147   3.225  18.324  0.00  0.00    +0.000 NA
ATOM     28  C   UNL     1       3.956   2.306  19.466  0.00  0.00    +0.000 C 
ATOM     29  C   UNL     1       2.632   2.595  20.195  0.00  0.00    +0.000 C 
ATOM     30  N   UNL     1       1.448   2.667  19.326  0.00  0.00    +0.000 NA
ATOM     31  C   UNL     1       1.674   3.466  18.111  0.00  0.00    +0.000 C 
ATOM     32  C   UNL     1       3.001   3.187  17.389  0.00  0.00    +0.000 C 
ATOM     33  H   UNL     1       0.676   3.081  19.853  0.00  0.00    +0.000 HD
ENDBRANCH  24  27
ENDBRANCH  21  24
ENDBRANCH   6  18
TORSDOF 5
ENDMDL
MODEL 4
REMARK VINA RESULT:      -8.3      0.607      1.065
REMARK  Name = 
REMARK  6 active torsions:
REMARK  status: ('A' for Active; 'I' for Inactive)
REMARK    1  A    between atoms: C_1  and  C_2
REMARK    2  A    between atoms: C_2  and  C_4
REMARK    3  A    between atoms: C_7  and  N_8
REMARK    4  A    between atoms: C_13  and  C_14
REMARK    5  A    between atoms: C_17  and  S_18
REMARK    6  A    between atoms: S_18  and  N_21
REMARK                            x       y       z     vdW  Elec       q    Type
REMARK                         _______ _______ _______ _____ _____    ______ ____
ROOT
ATOM      1  N   UNL     1       0.013  11.048  22.046  0.00  0.00    +0.000 N 
ATOM      2  C   UNL     1       0.276  10.732  20.711  0.00  0.00    +0.000 A 
ATOM      3  N   UNL     1      -0.145  11.525  19.715  0.00  0.00    +0.000 NA
ATOM      4  C   UNL     1       0.098  11.139  18.456  0.00  0.00    +0.000 A 
ATOM      5  C   UNL     1       0.764   9.984  18.145  0.00  0.00    +0.000 A 
ATOM      6  C   UNL     1       1.187   9.224  19.218  0.00  0.00    +0.000 A 
ATOM      7  N   UNL     1       0.940   9.588  20.499  0.00  0.00    +0.000 NA
ATOM      8  H   UNL     1       0.306  10.277  22.628  0.00  0.00    +0.000 HD
ENDROOT
BRANCH   1  12
ATOM      9  C   UNL     1      -2.794  13.783  23.644  0.00  0.00    +0.000 A 
ATOM     10  C   UNL     1      -3.053  12.410  23.642  0.00  0.00    +0.000 A 
ATOM     11  C   UNL     1      -2.093  11.509  23.149  0.00  0.00    +0.000 A 
ATOM     12  C   UNL     1      -0.878  11.968  22.612  0.00  0.00    +0.000 A 
ATOM     13  C   UNL     1      -0.627  13.344  22.671  0.00  0.00    +0.000 A 
ATOM     14  C   UNL     1      -1.568  14.248  23.170  0.00  0.00    +0.000 A 
BRANCH   9  16
ATOM     15  C   UNL     1      -3.461  15.742  25.165  0.00  0.00    +0.000 C 
ATOM     16  C   UNL     1      -3.840  14.723  24.124  0.00  0.00    +0.000 C 
ATOM     17  O   UNL     1      -4.982  14.642  23.679  0.00  0.00    +0.000 OA
ENDBRANCH   9  16
ENDBRANCH   1  12
BRANCH   6  18
ATOM     18  C   UNL     1       1.960   7.979  19.056  0.00  0.00    +0.000 A 
ATOM     19  C   UNL     1       2.565   7.640  17.832  0.00  0.00    +0.000 A 
ATOM     20  C   UNL     1       3.351   6.490  17.704  0.00  0.00    +0.000 A 
ATOM     21  C   UNL     1       3.557   5.657  18.808  0.00  0.00    +0.000 A 
ATOM     22  C   UNL     1       2.916   5.936  20.016  0.00  0.00    +0.000 A 
ATOM     23  C   UNL     1       2.137   7.095  20.138  0.00  0.00    +0.000 A 
BRANCH  21  24
ATOM     24  S   UNL     1       4.487   4.146  18.611  0.00  0.00    +0.000 S 
ATOM     25  O   UNL     1       4.764   4.006  17.197  0.00  0.00    +0.000 OA
ATOM     26  O   UNL     1       5.569   4.201  19.574  0.00  0.00    +0.000 OA
BRANCH  24  27
ATOM     27  N   UNL     1       3.463   2.895  19.073  0.00  0.00    +0.000 NA
ATOM     28  C   UNL     1       3.417   2.437  20.478  0.00  0.00    +0.000 C 
ATOM     29  C   UNL     1       2.245   3.085  21.235  0.00  0.00    +0.000 C 
ATOM     30  N   UNL     1       0.939   2.981  20.565  0.00  0.00    +0.000 NA
ATOM     31  C   UNL     1       1.002   3.300  19.130  0.00  0.00    +0.000 C 
ATOM     32  C   UNL     1       2.179   2.663  18.375  0.00  0.00    +0.000 C 
ATOM     33  H   UNL     1       0.285   3.623  21.016  0.00  0.00    +0.000 HD
ENDBRANCH  24  27
ENDBRANCH  21  24
ENDBRANCH   6  18
TORSDOF 5
ENDMDL
MODEL 5
REMARK VINA RESULT:      -8.3      1.895      3.061
REMARK  Name = 
REMARK  6 active torsions:
REMARK  status: ('A' for Active; 'I' for Inactive)
REMARK    1  A    between atoms: C_1  and  C_2
REMARK    2  A    between atoms: C_2  and  C_4
REMARK    3  A    between atoms: C_7  and  N_8
REMARK    4  A    between atoms: C_13  and  C_14
REMARK    5  A    between atoms: C_17  and  S_18
REMARK    6  A    between atoms: S_18  and  N_21
REMARK                            x       y       z     vdW  Elec       q    Type
REMARK                         _______ _______ _______ _____ _____    ______ ____
ROOT
ATOM      1  N   UNL     1       0.262  10.752  21.813  0.00  0.00    +0.000 N 
ATOM      2  C   UNL     1       0.513  10.409  20.483  0.00  0.00    +0.000 A 
ATOM      3  N   UNL     1       0.043  11.155  19.473  0.00  0.00    +0.000 NA
ATOM      4  C   UNL     1       0.279  10.743  18.221  0.00  0.00    +0.000 A 
ATOM      5  C   UNL     1       0.985   9.608  17.930  0.00  0.00    +0.000 A 
ATOM      6  C   UNL     1       1.458   8.897  19.015  0.00  0.00    +0.000 A 
ATOM      7  N   UNL     1       1.220   9.287  20.290  0.00  0.00    +0.000 NA
ATOM      8  H   UNL     1       0.596  10.010  22.411  0.00  0.00    +0.000 HD
ENDROOT
BRANCH   1  12
ATOM      9  C   UNL     1      -2.395  13.520  23.600  0.00  0.00    +0.000 A 
ATOM     10  C   UNL     1      -1.227  13.954  22.966  0.00  0.00    +0.000 A 
ATOM     11  C   UNL     1      -0.377  13.028  22.337  0.00  0.00    +0.000 A 
ATOM     12  C   UNL     1      -0.656  11.652  22.370  0.00  0.00    +0.000 A 
ATOM     13  C   UNL     1      -1.855  11.251  22.971  0.00  0.00    +0.000 A 
ATOM     14  C   UNL     1      -2.715  12.164  23.588  0.00  0.00    +0.000 A 
BRANCH   9  16
ATOM     15  C   UNL     1      -4.728  14.524  23.983  0.00  0.00    +0.000 C 
ATOM     16  C   UNL     1      -3.256  14.508  24.300  0.00  0.00    +0.000 C 
ATOM     17  O   UNL     1      -2.755  15.293  25.102  0.00  0.00    +0.000 OA
ENDBRANCH   9  16
ENDBRANCH   1  12
BRANCH   6  18
ATOM     18  C   UNL     1       2.278   7.679  18.874  0.00  0.00    +0.000 A 
ATOM     19  C   UNL     1       2.995   7.406  17.695  0.00  0.00    +0.000 A 
ATOM     20  C   UNL     1       3.823   6.282  17.592  0.00  0.00    +0.000 A 
ATOM     21  C   UNL     1       3.959   5.411  18.677  0.00  0.00    +0.000 A 
ATOM     22  C   UNL     1       3.209   5.625  19.835  0.00  0.00    +0.000 A 
ATOM     23  C   UNL     1       2.389   6.757  19.933  0.00  0.00    +0.000 A 
BRANCH  21  24
ATOM     24  S   UNL     1       4.946   3.934  18.504  0.00  0.00    +0.000 S 
ATOM     25  O   UNL     1       4.928   3.265  19.789  0.00  0.00    +0.000 OA
ATOM     26  O   UNL     1       4.470   3.259  17.313  0.00  0.00    +0.000 OA
BRANCH  24  27
ATOM     27  N   UNL     1       6.517   4.447  18.201  0.00  0.00    +0.000 NA
ATOM     28  C   UNL     1       7.126   4.266  16.866  0.00  0.00    +0.000 C 
ATOM     29  C   UNL     1       7.015   5.551  16.027  0.00  0.00    +0.000 C 
ATOM     30  N   UNL     1       7.482   6.774  16.699  0.00  0.00    +0.000 NA
ATOM     31  C   UNL     1       6.994   6.893  18.082  0.00  0.00    +0.000 C 
ATOM     32  C   UNL     1       7.094   5.606  18.917  0.00  0.00    +0.000 C 
ATOM     33  H   UNL     1       7.163   7.585  16.167  0.00  0.00    +0.000 HD
ENDBRANCH  24  27
ENDBRANCH  21  24
ENDBRANCH   6  18
TORSDOF 5
ENDMDL
MODEL 6
REMARK VINA RESULT:      -8.2      1.827      2.744
REMARK  Name = 
REMARK  6 active torsions:
REMARK  status: ('A' for Active; 'I' for Inactive)
REMARK    1  A    between atoms: C_1  and  C_2
REMARK    2  A    between atoms: C_2  and  C_4
REMARK    3  A    between atoms: C_7  and  N_8
REMARK    4  A    between atoms: C_13  and  C_14
REMARK    5  A    between atoms: C_17  and  S_18
REMARK    6  A    between atoms: S_18  and  N_21
REMARK                            x       y       z     vdW  Elec       q    Type
REMARK                         _______ _______ _______ _____ _____    ______ ____
ROOT
ATOM      1  N   UNL     1       0.365  10.779  21.800  0.00  0.00    +0.000 N 
ATOM      2  C   UNL     1       0.558  10.388  20.473  0.00  0.00    +0.000 A 
ATOM      3  N   UNL     1       0.002  11.068  19.461  0.00  0.00    +0.000 NA
ATOM      4  C   UNL     1       0.187  10.611  18.216  0.00  0.00    +0.000 A 
ATOM      5  C   UNL     1       0.925   9.493  17.934  0.00  0.00    +0.000 A 
ATOM      6  C   UNL     1       1.487   8.852  19.020  0.00  0.00    +0.000 A 
ATOM      7  N   UNL     1       1.301   9.289  20.289  0.00  0.00    +0.000 NA
ATOM      8  H   UNL     1       0.763  10.080  22.409  0.00  0.00    +0.000 HD
ENDROOT
BRANCH   1  12
ATOM      9  C   UNL     1      -2.547  13.391  23.420  0.00  0.00    +0.000 A 
ATOM     10  C   UNL     1      -2.678  12.004  23.545  0.00  0.00    +0.000 A 
ATOM     11  C   UNL     1      -1.682  11.150  23.042  0.00  0.00    +0.000 A 
ATOM     12  C   UNL     1      -0.561  11.665  22.369  0.00  0.00    +0.000 A 
ATOM     13  C   UNL     1      -0.432  13.057  22.300  0.00  0.00    +0.000 A 
ATOM     14  C   UNL     1      -1.411  13.916  22.808  0.00  0.00    +0.000 A 
BRANCH   9  16
ATOM     15  C   UNL     1      -3.277  15.373  24.880  0.00  0.00    +0.000 C 
ATOM     16  C   UNL     1      -3.633  14.274  23.915  0.00  0.00    +0.000 C 
ATOM     17  O   UNL     1      -4.789  14.085  23.544  0.00  0.00    +0.000 OA
ENDBRANCH   9  16
ENDBRANCH   1  12
BRANCH   6  18
ATOM     18  C   UNL     1       2.350   7.663  18.885  0.00  0.00    +0.000 A 
ATOM     19  C   UNL     1       2.479   6.725  19.926  0.00  0.00    +0.000 A 
ATOM     20  C   UNL     1       3.248   5.566  19.767  0.00  0.00    +0.000 A 
ATOM     21  C   UNL     1       3.896   5.317  18.553  0.00  0.00    +0.000 A 
ATOM     22  C   UNL     1       3.836   6.263  17.528  0.00  0.00    +0.000 A 
ATOM     23  C   UNL     1       3.057   7.417  17.693  0.00  0.00    +0.000 A 
BRANCH  21  24
ATOM     24  S   UNL     1       4.946   3.883  18.392  0.00  0.00    +0.000 S 
ATOM     25  O   UNL     1       4.902   3.187  19.661  0.00  0.00    +0.000 OA
ATOM     26  O   UNL     1       4.544   3.215  17.170  0.00  0.00    +0.000 OA
BRANCH  24  27
ATOM     27  N   UNL     1       6.507   4.461  18.163  0.00  0.00    +0.000 NA
ATOM     28  C   UNL     1       7.189   4.297  16.861  0.00  0.00    +0.000 C 
ATOM     29  C   UNL     1       7.066   5.570  16.006  0.00  0.00    +0.000 C 
ATOM     30  N   UNL     1       7.446   6.816  16.688  0.00  0.00    +0.000 NA
ATOM     31  C   UNL     1       6.885   6.924  18.044  0.00  0.00    +0.000 C 
ATOM     32  C   UNL     1       6.997   5.649  18.895  0.00  0.00    +0.000 C 
ATOM     33  H   UNL     1       7.120   7.609  16.133  0.00  0.00    +0.000 HD
ENDBRANCH  24  27
ENDBRANCH  21  24
ENDBRANCH   6  18
TORSDOF 5
ENDMDL
MODEL 7
REMARK VINA RESULT:      -8.2      1.509      2.227
REMARK  Name = 
REMARK  6 active torsions:
REMARK  status: ('A' for Active; 'I' for Inactive)
REMARK    1  A    between atoms: C_1  and  C_2
REMARK    2  A    between atoms: C_2  and  C_4
REMARK    3  A    between atoms: C_7  and  N_8
REMARK    4  A    between atoms: C_13  and  C_14
REMARK    5  A    between atoms: C_17  and  S_18
REMARK    6  A    between atoms: S_18  and  N_21
REMARK                            x       y       z     vdW  Elec       q    Type
REMARK                         _______ _______ _______ _____ _____    ______ ____
ROOT
ATOM      1  N   UNL     1      -1.513  12.015  22.325  0.00  0.00    +0.000 N 
ATOM      2  C   UNL     1      -0.876  11.986  21.082  0.00  0.00    +0.000 A 
ATOM      3  N   UNL     1      -0.934  13.034  20.248  0.00  0.00    +0.000 NA
ATOM      4  C   UNL     1      -0.343  12.921  19.051  0.00  0.00    +0.000 A 
ATOM      5  C   UNL     1       0.323  11.795  18.651  0.00  0.00    +0.000 A 
ATOM      6  C   UNL     1       0.362  10.760  19.565  0.00  0.00    +0.000 A 
ATOM      7  N   UNL     1      -0.241  10.846  20.776  0.00  0.00    +0.000 NA
ATOM      8  H   UNL     1      -1.451  11.099  22.746  0.00  0.00    +0.000 HD
ENDROOT
BRANCH   1  12
ATOM      9  C   UNL     1      -4.478  14.695  23.718  0.00  0.00    +0.000 A 
ATOM     10  C   UNL     1      -4.808  13.647  22.853  0.00  0.00    +0.000 A 
ATOM     11  C   UNL     1      -3.822  12.737  22.434  0.00  0.00    +0.000 A 
ATOM     12  C   UNL     1      -2.484  12.885  22.837  0.00  0.00    +0.000 A 
ATOM     13  C   UNL     1      -2.192  13.915  23.739  0.00  0.00    +0.000 A 
ATOM     14  C   UNL     1      -3.167  14.818  24.173  0.00  0.00    +0.000 A 
BRANCH   9  16
ATOM     15  C   UNL     1      -6.948  15.400  23.704  0.00  0.00    +0.000 C 
ATOM     16  C   UNL     1      -5.524  15.673  24.111  0.00  0.00    +0.000 C 
ATOM     17  O   UNL     1      -5.211  16.681  24.740  0.00  0.00    +0.000 OA
ENDBRANCH   9  16
ENDBRANCH   1  12
BRANCH   6  18
ATOM     18  C   UNL     1       1.080   9.497  19.310  0.00  0.00    +0.000 A 
ATOM     19  C   UNL     1       1.584   9.182  18.035  0.00  0.00    +0.000 A 
ATOM     20  C   UNL     1       2.321   8.013  17.815  0.00  0.00    +0.000 A 
ATOM     21  C   UNL     1       2.579   7.138  18.875  0.00  0.00    +0.000 A 
ATOM     22  C   UNL     1       2.036   7.396  20.135  0.00  0.00    +0.000 A 
ATOM     23  C   UNL     1       1.306   8.573  20.348  0.00  0.00    +0.000 A 
BRANCH  21  24
ATOM     24  S   UNL     1       3.443   5.606  18.565  0.00  0.00    +0.000 S 
ATOM     25  O   UNL     1       4.241   5.810  17.374  0.00  0.00    +0.000 OA
ATOM     26  O   UNL     1       4.067   5.226  19.817  0.00  0.00    +0.000 OA
BRANCH  24  27
ATOM     27  N   UNL     1       2.264   4.460  18.219  0.00  0.00    +0.000 NA
ATOM     28  C   UNL     1       2.498   3.424  17.190  0.00  0.00    +0.000 C 
ATOM     29  C   UNL     1       2.967   2.104  17.828  0.00  0.00    +0.000 C 
ATOM     30  N   UNL     1       2.131   1.619  18.936  0.00  0.00    +0.000 NA
ATOM     31  C   UNL     1       1.774   2.678  19.894  0.00  0.00    +0.000 C 
ATOM     32  C   UNL     1       1.316   4.000  19.257  0.00  0.00    +0.000 C 
ATOM     33  H   UNL     1       2.636   0.883  19.433  0.00  0.00    +0.000 HD
ENDBRANCH  24  27
ENDBRANCH  21  24
ENDBRANCH   6  18
TORSDOF 5
ENDMDL
MODEL 8
REMARK VINA RESULT:      -8.2      2.395      3.095
REMARK  Name = 
REMARK  6 active torsions:
REMARK  status: ('A' for Active; 'I' for Inactive)
REMARK    1  A    between atoms: C_1  and  C_2
REMARK    2  A    between atoms: C_2  and  C_4
REMARK    3  A    between atoms: C_7  and  N_8
REMARK    4  A    between atoms: C_13  and  C_14
REMARK    5  A    between atoms: C_17  and  S_18
REMARK    6  A    between atoms: S_18  and  N_21
REMARK                            x       y       z     vdW  Elec       q    Type
REMARK                         _______ _______ _______ _____ _____    ______ ____
ROOT
ATOM      1  N   UNL     1      -1.862  11.509  21.929  0.00  0.00    +0.000 N 
ATOM      2  C   UNL     1      -1.011  11.642  20.829  0.00  0.00    +0.000 A 
ATOM      3  N   UNL     1      -0.961  12.781  20.125  0.00  0.00    +0.000 NA
ATOM      4  C   UNL     1      -0.160  12.825  19.052  0.00  0.00    +0.000 A 
ATOM      5  C   UNL     1       0.613  11.768  18.654  0.00  0.00    +0.000 A 
ATOM      6  C   UNL     1       0.529  10.632  19.435  0.00  0.00    +0.000 A 
ATOM      7  N   UNL     1      -0.284  10.560  20.516  0.00  0.00    +0.000 NA
ATOM      8  H   UNL     1      -1.839  10.551  22.247  0.00  0.00    +0.000 HD
ENDROOT
BRANCH   1  12
ATOM      9  C   UNL     1      -5.191  13.744  23.282  0.00  0.00    +0.000 A 
ATOM     10  C   UNL     1      -4.289  13.182  24.190  0.00  0.00    +0.000 A 
ATOM     11  C   UNL     1      -3.163  12.480  23.726  0.00  0.00    +0.000 A 
ATOM     12  C   UNL     1      -2.944  12.292  22.351  0.00  0.00    +0.000 A 
ATOM     13  C   UNL     1      -3.838  12.906  21.465  0.00  0.00    +0.000 A 
ATOM     14  C   UNL     1      -4.954  13.617  21.915  0.00  0.00    +0.000 A 
BRANCH   9  16
ATOM     15  C   UNL     1      -7.590  13.608  24.192  0.00  0.00    +0.000 C 
ATOM     16  C   UNL     1      -6.401  14.441  23.792  0.00  0.00    +0.000 C 
ATOM     17  O   UNL     1      -6.413  15.667  23.863  0.00  0.00    +0.000 OA
ENDBRANCH   9  16
ENDBRANCH   1  12
BRANCH   6  18
ATOM     18  C   UNL     1       1.333   9.424  19.173  0.00  0.00    +0.000 A 
ATOM     19  C   UNL     1       1.481   8.413  20.141  0.00  0.00    +0.000 A 
ATOM     20  C   UNL     1       2.190   7.240  19.863  0.00  0.00    +0.000 A 
ATOM     21  C   UNL     1       2.759   7.049  18.599  0.00  0.00    +0.000 A 
ATOM     22  C   UNL     1       2.682   8.063  17.644  0.00  0.00    +0.000 A 
ATOM     23  C   UNL     1       1.962   9.232  17.928  0.00  0.00    +0.000 A 
BRANCH  21  24
ATOM     24  S   UNL     1       3.737   5.589  18.284  0.00  0.00    +0.000 S 
ATOM     25  O   UNL     1       4.358   5.221  19.540  0.00  0.00    +0.000 OA
ATOM     26  O   UNL     1       2.873   4.658  17.587  0.00  0.00    +0.000 OA
BRANCH  24  27
ATOM     27  N   UNL     1       4.949   6.052  17.215  0.00  0.00    +0.000 NA
ATOM     28  C   UNL     1       6.201   6.663  17.712  0.00  0.00    +0.000 C 
ATOM     29  C   UNL     1       7.320   5.614  17.834  0.00  0.00    +0.000 C 
ATOM     30  N   UNL     1       7.532   4.790  16.635  0.00  0.00    +0.000 NA
ATOM     31  C   UNL     1       6.278   4.292  16.049  0.00  0.00    +0.000 C 
ATOM     32  C   UNL     1       5.155   5.336  15.937  0.00  0.00    +0.000 C 
ATOM     33  H   UNL     1       8.119   3.992  16.883  0.00  0.00    +0.000 HD
ENDBRANCH  24  27
ENDBRANCH  21  24
ENDBRANCH   6  18
TORSDOF 5
ENDMDL
MODEL 9
REMARK VINA RESULT:      -8.1      2.149      2.744
REMARK  Name = 
REMARK  6 active torsions:
REMARK  status: ('A' for Active; 'I' for Inactive)
REMARK    1  A    between atoms: C_1  and  C_2
REMARK    2  A    between atoms: C_2  and  C_4
REMARK    3  A    between atoms: C_7  and  N_8
REMARK    4  A    between atoms: C_13  and  C_14
REMARK    5  A    between atoms: C_17  and  S_18
REMARK    6  A    between atoms: S_18  and  N_21
REMARK                            x       y       z     vdW  Elec       q    Type
REMARK                         _______ _______ _______ _____ _____    ______ ____
ROOT
ATOM      1  N   UNL     1      -0.564  12.253  22.110  0.00  0.00    +0.000 N 
ATOM      2  C   UNL     1      -0.536  11.776  20.798  0.00  0.00    +0.000 A 
ATOM      3  N   UNL     1      -1.284  12.340  19.838  0.00  0.00    +0.000 NA
ATOM      4  C   UNL     1      -1.247  11.803  18.612  0.00  0.00    +0.000 A 
ATOM      5  C   UNL     1      -0.475  10.719  18.295  0.00  0.00    +0.000 A 
ATOM      6  C   UNL     1       0.286  10.199  19.324  0.00  0.00    +0.000 A 
ATOM      7  N   UNL     1       0.254  10.717  20.576  0.00  0.00    +0.000 NA
ATOM      8  H   UNL     1      -0.030  11.628  22.697  0.00  0.00    +0.000 HD
ENDROOT
BRANCH   1  12
ATOM      9  C   UNL     1      -3.378  14.844  23.923  0.00  0.00    +0.000 A 
ATOM     10  C   UNL     1      -3.704  13.513  23.645  0.00  0.00    +0.000 A 
ATOM     11  C   UNL     1      -2.746  12.652  23.084  0.00  0.00    +0.000 A 
ATOM     12  C   UNL     1      -1.461  13.116  22.753  0.00  0.00    +0.000 A 
ATOM     13  C   UNL     1      -1.148  14.439  23.086  0.00  0.00    +0.000 A 
ATOM     14  C   UNL     1      -2.089  15.301  23.656  0.00  0.00    +0.000 A 
BRANCH   9  16
ATOM     15  C   UNL     1      -5.823  15.631  23.942  0.00  0.00    +0.000 C 
ATOM     16  C   UNL     1      -4.419  15.751  24.471  0.00  0.00    +0.000 C 
ATOM     17  O   UNL     1      -4.115  16.581  25.325  0.00  0.00    +0.000 OA
ENDBRANCH   9  16
ENDBRANCH   1  12
BRANCH   6  18
ATOM     18  C   UNL     1       1.208   9.063  19.138  0.00  0.00    +0.000 A 
ATOM     19  C   UNL     1       1.443   8.129  20.165  0.00  0.00    +0.000 A 
ATOM     20  C   UNL     1       2.268   7.018  19.960  0.00  0.00    +0.000 A 
ATOM     21  C   UNL     1       2.868   6.811  18.713  0.00  0.00    +0.000 A 
ATOM     22  C   UNL     1       2.702   7.756  17.700  0.00  0.00    +0.000 A 
ATOM     23  C   UNL     1       1.867   8.862  17.910  0.00  0.00    +0.000 A 
BRANCH  21  24
ATOM     24  S   UNL     1       3.989   5.440  18.491  0.00  0.00    +0.000 S 
ATOM     25  O   UNL     1       4.793   5.357  19.692  0.00  0.00    +0.000 OA
ATOM     26  O   UNL     1       3.181   4.315  18.063  0.00  0.00    +0.000 OA
BRANCH  24  27
ATOM     27  N   UNL     1       4.997   5.855  17.211  0.00  0.00    +0.000 NA
ATOM     28  C   UNL     1       6.253   6.598  17.451  0.00  0.00    +0.000 C 
ATOM     29  C   UNL     1       7.458   5.644  17.513  0.00  0.00    +0.000 C 
ATOM     30  N   UNL     1       7.565   4.704  16.387  0.00  0.00    +0.000 NA
ATOM     31  C   UNL     1       6.285   4.063  16.049  0.00  0.00    +0.000 C 
ATOM     32  C   UNL     1       5.078   5.013  15.998  0.00  0.00    +0.000 C 
ATOM     33  H   UNL     1       8.243   3.978  16.626  0.00  0.00    +0.000 HD
ENDBRANCH  24  27
ENDBRANCH  21  24
ENDBRANCH   6  18
TORSDOF 5
ENDMDL
