MODEL 1
REMARK VINA RESULT:      -6.9      0.000      0.000
REMARK  Name = 
REMARK  6 active torsions:
REMARK  status: ('A' for Active; 'I' for Inactive)
REMARK    1  A    between atoms: C_2  and  C_3
REMARK    2  A    between atoms: C_3  and  O_4
REMARK    3  A    between atoms: O_4  and  N_5
REMARK    4  A    between atoms: N_7  and  C_8
REMARK    5  A    between atoms: C_12  and  C_13
REMARK    6  A    between atoms: C_13  and  C_14
REMARK                            x       y       z     vdW  Elec       q    Type
REMARK                         _______ _______ _______ _____ _____    ______ ____
ROOT
ATOM      1  C   UNL     1       5.168   4.711  16.798  0.00  0.00    +0.000 A 
ATOM      2  C   UNL     1       4.469   5.841  17.209  0.00  0.00    +0.000 A 
ATOM      3  C   UNL     1       3.237   5.740  17.905  0.00  0.00    +0.000 A 
ATOM      4 CL   UNL     1       2.575   7.301  18.265  0.00  0.00    +0.000 Cl
ATOM      5  C   UNL     1       2.652   4.487  18.249  0.00  0.00    +0.000 A 
ATOM      6  C   UNL     1       3.348   3.364  17.742  0.00  0.00    +0.000 A 
ATOM      7 CL   UNL     1       2.773   1.747  17.980  0.00  0.00    +0.000 Cl
ATOM      8  C   UNL     1       4.572   3.487  17.041  0.00  0.00    +0.000 A 
ENDROOT
BRANCH   1  11
ATOM      9  N   UNL     1       6.057   3.990  14.022  0.00  0.00    +0.000 NA
ATOM     10  C   UNL     1       6.707   4.688  14.870  0.00  0.00    +0.000 C 
ATOM     11  N   UNL     1       6.449   4.845  16.217  0.00  0.00    +0.000 N 
ATOM     12  H   UNL     1       7.233   4.895  16.842  0.00  0.00    +0.000 HD
BRANCH   9  13
ATOM     13  O   UNL     1       6.685   4.079  12.755  0.00  0.00    +0.000 OA
BRANCH  13  14
ATOM     14  C   UNL     1       6.338   2.932  11.967  0.00  0.00    +0.000 C 
BRANCH  14  16
ATOM     15  C   UNL     1       3.694   3.216  11.018  0.00  0.00    +0.000 C 
ATOM     16  C   UNL     1       4.916   3.085  11.457  0.00  0.00    +0.000 C 
ENDBRANCH  14  16
ENDBRANCH  13  14
ENDBRANCH   9  13
ENDBRANCH   1  11
BRANCH   5  17
ATOM     17  C   UNL     1       1.332   4.237  19.069  0.00  0.00    +0.000 C 
BRANCH  17  18
ATOM     18  C   UNL     1       1.732   3.781  20.463  0.00  0.00    +0.000 C 
ATOM     19  C   UNL     1       2.074   3.389  21.658  0.00  0.00    +0.000 C 
ENDBRANCH  17  18
ENDBRANCH   5  17
TORSDOF 6
ENDMDL
MODEL 2
REMARK VINA RESULT:      -6.9      0.793      2.306
REMARK  Name = 
REMARK  6 active torsions:
REMARK  status: ('A' for Active; 'I' for Inactive)
REMARK    1  A    between atoms: C_2  and  C_3
REMARK    2  A    between atoms: C_3  and  O_4
REMARK    3  A    between atoms: O_4  and  N_5
REMARK    4  A    between atoms: N_7  and  C_8
REMARK    5  A    between atoms: C_12  and  C_13
REMARK    6  A    between atoms: C_13  and  C_14
REMARK                            x       y       z     vdW  Elec       q    Type
REMARK                         _______ _______ _______ _____ _____    ______ ____
ROOT
ATOM      1  C   UNL     1       5.629   5.237  16.291  0.00  0.00    +0.000 A 
ATOM      2  C   UNL     1       5.154   3.996  16.701  0.00  0.00    +0.000 A 
ATOM      3  C   UNL     1       3.960   3.871  17.457  0.00  0.00    +0.000 A 
ATOM      4 CL   UNL     1       3.625   2.217  17.855  0.00  0.00    +0.000 Cl
ATOM      5  C   UNL     1       3.163   4.993  17.822  0.00  0.00    +0.000 A 
ATOM      6  C   UNL     1       3.721   6.243  17.460  0.00  0.00    +0.000 A 
ATOM      7 CL   UNL     1       2.954   7.741  17.870  0.00  0.00    +0.000 Cl
ATOM      8  C   UNL     1       4.919   6.346  16.713  0.00  0.00    +0.000 A 
ENDROOT
BRANCH   1  11
ATOM      9  N   UNL     1       6.108   3.829  13.683  0.00  0.00    +0.000 NA
ATOM     10  C   UNL     1       6.785   4.801  14.156  0.00  0.00    +0.000 C 
ATOM     11  N   UNL     1       6.751   5.317  15.436  0.00  0.00    +0.000 N 
ATOM     12  H   UNL     1       7.617   5.619  15.844  0.00  0.00    +0.000 HD
BRANCH   9  13
ATOM     13  O   UNL     1       6.479   3.605  12.334  0.00  0.00    +0.000 OA
BRANCH  13  14
ATOM     14  C   UNL     1       5.725   2.506  11.805  0.00  0.00    +0.000 C 
BRANCH  14  16
ATOM     15  C   UNL     1       3.362   3.487  10.610  0.00  0.00    +0.000 C 
ATOM     16  C   UNL     1       4.454   3.033  11.162  0.00  0.00    +0.000 C 
ENDBRANCH  14  16
ENDBRANCH  13  14
ENDBRANCH   9  13
ENDBRANCH   1  11
BRANCH   5  17
ATOM     17  C   UNL     1       1.794   4.987  18.599  0.00  0.00    +0.000 C 
BRANCH  17  18
ATOM     18  C   UNL     1       2.071   4.535  20.024  0.00  0.00    +0.000 C 
ATOM     19  C   UNL     1       2.309   4.146  21.246  0.00  0.00    +0.000 C 
ENDBRANCH  17  18
ENDBRANCH   5  17
TORSDOF 6
ENDMDL
MODEL 3
REMARK VINA RESULT:      -6.7      1.272      2.444
REMARK  Name = 
REMARK  6 active torsions:
REMARK  status: ('A' for Active; 'I' for Inactive)
REMARK    1  A    between atoms: C_2  and  C_3
REMARK    2  A    between atoms: C_3  and  O_4
REMARK    3  A    between atoms: O_4  and  N_5
REMARK    4  A    between atoms: N_7  and  C_8
REMARK    5  A    between atoms: C_12  and  C_13
REMARK    6  A    between atoms: C_13  and  C_14
REMARK                            x       y       z     vdW  Elec       q    Type
REMARK                         _______ _______ _______ _____ _____    ______ ____
ROOT
ATOM      1  C   UNL     1       6.066   5.267  17.033  0.00  0.00    +0.000 A 
ATOM      2  C   UNL     1       5.803   4.212  17.900  0.00  0.00    +0.000 A 
ATOM      3  C   UNL     1       4.631   4.183  18.700  0.00  0.00    +0.000 A 
ATOM      4 CL   UNL     1       4.577   2.772  19.706  0.00  0.00    +0.000 Cl
ATOM      5  C   UNL     1       3.643   5.208  18.650  0.00  0.00    +0.000 A 
ATOM      6  C   UNL     1       3.985   6.302  17.819  0.00  0.00    +0.000 A 
ATOM      7 CL   UNL     1       2.961   7.691  17.668  0.00  0.00    +0.000 Cl
ATOM      8  C   UNL     1       5.164   6.316  17.037  0.00  0.00    +0.000 A 
ENDROOT
BRANCH   1  11
ATOM      9  N   UNL     1       6.193   4.236  14.216  0.00  0.00    +0.000 NA
ATOM     10  C   UNL     1       7.089   4.917  14.816  0.00  0.00    +0.000 C 
ATOM     11  N   UNL     1       7.177   5.206  16.163  0.00  0.00    +0.000 N 
ATOM     12  H   UNL     1       8.089   5.212  16.584  0.00  0.00    +0.000 HD
BRANCH   9  13
ATOM     13  O   UNL     1       6.505   4.153  12.836  0.00  0.00    +0.000 OA
BRANCH  13  14
ATOM     14  C   UNL     1       6.005   2.918  12.305  0.00  0.00    +0.000 C 
BRANCH  14  16
ATOM     15  C   UNL     1       3.610   3.410  10.893  0.00  0.00    +0.000 C 
ATOM     16  C   UNL     1       4.717   3.183  11.545  0.00  0.00    +0.000 C 
ENDBRANCH  14  16
ENDBRANCH  13  14
ENDBRANCH   9  13
ENDBRANCH   1  11
BRANCH   5  17
ATOM     17  C   UNL     1       2.278   5.265  19.430  0.00  0.00    +0.000 C 
BRANCH  17  18
ATOM     18  C   UNL     1       1.499   4.003  19.096  0.00  0.00    +0.000 C 
ATOM     19  C   UNL     1       0.831   2.920  18.809  0.00  0.00    +0.000 C 
ENDBRANCH  17  18
ENDBRANCH   5  17
TORSDOF 6
ENDMDL
MODEL 4
REMARK VINA RESULT:      -6.7      0.756      2.378
REMARK  Name = 
REMARK  6 active torsions:
REMARK  status: ('A' for Active; 'I' for Inactive)
REMARK    1  A    between atoms: C_2  and  C_3
REMARK    2  A    between atoms: C_3  and  O_4
REMARK    3  A    between atoms: O_4  and  N_5
REMARK    4  A    between atoms: N_7  and  C_8
REMARK    5  A    between atoms: C_12  and  C_13
REMARK    6  A    between atoms: C_13  and  C_14
REMARK                            x       y       z     vdW  Elec       q    Type
REMARK                         _______ _______ _______ _____ _____    ______ ____
ROOT
ATOM      1  C   UNL     1       5.337   5.016  16.742  0.00  0.00    +0.000 A 
ATOM      2  C   UNL     1       4.953   3.713  17.043  0.00  0.00    +0.000 A 
ATOM      3  C   UNL     1       3.741   3.436  17.727  0.00  0.00    +0.000 A 
ATOM      4 CL   UNL     1       3.532   1.736  17.995  0.00  0.00    +0.000 Cl
ATOM      5  C   UNL     1       2.834   4.460  18.124  0.00  0.00    +0.000 A 
ATOM      6  C   UNL     1       3.297   5.773  17.876  0.00  0.00    +0.000 A 
ATOM      7 CL   UNL     1       2.386   7.170  18.345  0.00  0.00    +0.000 Cl
ATOM      8  C   UNL     1       4.515   6.029  17.200  0.00  0.00    +0.000 A 
ENDROOT
BRANCH   1  11
ATOM      9  N   UNL     1       6.048   3.853  14.067  0.00  0.00    +0.000 NA
ATOM     10  C   UNL     1       6.621   4.837  14.644  0.00  0.00    +0.000 C 
ATOM     11  N   UNL     1       6.487   5.249  15.954  0.00  0.00    +0.000 N 
ATOM     12  H   UNL     1       7.305   5.586  16.427  0.00  0.00    +0.000 HD
BRANCH   9  13
ATOM     13  O   UNL     1       6.497   3.763  12.726  0.00  0.00    +0.000 OA
BRANCH  13  14
ATOM     14  C   UNL     1       5.461   3.199  11.910  0.00  0.00    +0.000 C 
BRANCH  14  16
ATOM     15  C   UNL     1       6.230   0.611  11.083  0.00  0.00    +0.000 C 
ATOM     16  C   UNL     1       5.875   1.806  11.466  0.00  0.00    +0.000 C 
ENDBRANCH  14  16
ENDBRANCH  13  14
ENDBRANCH   9  13
ENDBRANCH   1  11
BRANCH   5  17
ATOM     17  C   UNL     1       1.437   4.285  18.827  0.00  0.00    +0.000 C 
BRANCH  17  18
ATOM     18  C   UNL     1       1.689   3.827  20.255  0.00  0.00    +0.000 C 
ATOM     19  C   UNL     1       1.905   3.435  21.479  0.00  0.00    +0.000 C 
ENDBRANCH  17  18
ENDBRANCH   5  17
TORSDOF 6
ENDMDL
MODEL 5
REMARK VINA RESULT:      -6.6      0.762      1.018
REMARK  Name = 
REMARK  6 active torsions:
REMARK  status: ('A' for Active; 'I' for Inactive)
REMARK    1  A    between atoms: C_2  and  C_3
REMARK    2  A    between atoms: C_3  and  O_4
REMARK    3  A    between atoms: O_4  and  N_5
REMARK    4  A    between atoms: N_7  and  C_8
REMARK    5  A    between atoms: C_12  and  C_13
REMARK    6  A    between atoms: C_13  and  C_14
REMARK                            x       y       z     vdW  Elec       q    Type
REMARK                         _______ _______ _______ _____ _____    ______ ____
ROOT
ATOM      1  C   UNL     1       4.846   5.150  16.771  0.00  0.00    +0.000 A 
ATOM      2  C   UNL     1       4.193   6.183  17.436  0.00  0.00    +0.000 A 
ATOM      3  C   UNL     1       3.031   5.947  18.214  0.00  0.00    +0.000 A 
ATOM      4 CL   UNL     1       2.411   7.413  18.901  0.00  0.00    +0.000 Cl
ATOM      5  C   UNL     1       2.475   4.647  18.386  0.00  0.00    +0.000 A 
ATOM      6  C   UNL     1       3.116   3.637  17.630  0.00  0.00    +0.000 A 
ATOM      7 CL   UNL     1       2.559   1.997  17.633  0.00  0.00    +0.000 Cl
ATOM      8  C   UNL     1       4.270   3.896  16.851  0.00  0.00    +0.000 A 
ENDROOT
BRANCH   1  11
ATOM      9  N   UNL     1       5.900   3.909  14.248  0.00  0.00    +0.000 NA
ATOM     10  C   UNL     1       6.366   4.940  14.840  0.00  0.00    +0.000 C 
ATOM     11  N   UNL     1       6.068   5.400  16.106  0.00  0.00    +0.000 N 
ATOM     12  H   UNL     1       6.814   5.791  16.652  0.00  0.00    +0.000 HD
BRANCH   9  13
ATOM     13  O   UNL     1       6.502   3.783  12.971  0.00  0.00    +0.000 OA
BRANCH  13  14
ATOM     14  C   UNL     1       5.526   3.328  12.025  0.00  0.00    +0.000 C 
BRANCH  14  16
ATOM     15  C   UNL     1       6.288   0.792  11.043  0.00  0.00    +0.000 C 
ATOM     16  C   UNL     1       5.936   1.964  11.497  0.00  0.00    +0.000 C 
ENDBRANCH  14  16
ENDBRANCH  13  14
ENDBRANCH   9  13
ENDBRANCH   1  11
BRANCH   5  17
ATOM     17  C   UNL     1       1.237   4.241  19.269  0.00  0.00    +0.000 C 
BRANCH  17  18
ATOM     18  C   UNL     1       1.764   3.681  20.580  0.00  0.00    +0.000 C 
ATOM     19  C   UNL     1       2.217   3.201  21.704  0.00  0.00    +0.000 C 
ENDBRANCH  17  18
ENDBRANCH   5  17
TORSDOF 6
ENDMDL
MODEL 6
REMARK VINA RESULT:      -6.4      3.246      5.003
REMARK  Name = 
REMARK  6 active torsions:
REMARK  status: ('A' for Active; 'I' for Inactive)
REMARK    1  A    between atoms: C_2  and  C_3
REMARK    2  A    between atoms: C_3  and  O_4
REMARK    3  A    between atoms: O_4  and  N_5
REMARK    4  A    between atoms: N_7  and  C_8
REMARK    5  A    between atoms: C_12  and  C_13
REMARK    6  A    between atoms: C_13  and  C_14
REMARK                            x       y       z     vdW  Elec       q    Type
REMARK                         _______ _______ _______ _____ _____    ______ ____
ROOT
ATOM      1  C   UNL     1       5.152   5.111  16.880  0.00  0.00    +0.000 A 
ATOM      2  C   UNL     1       4.257   6.097  17.284  0.00  0.00    +0.000 A 
ATOM      3  C   UNL     1       3.030   5.772  17.916  0.00  0.00    +0.000 A 
ATOM      4 CL   UNL     1       2.102   7.190  18.282  0.00  0.00    +0.000 Cl
ATOM      5  C   UNL     1       2.645   4.429  18.199  0.00  0.00    +0.000 A 
ATOM      6  C   UNL     1       3.539   3.453  17.699  0.00  0.00    +0.000 A 
ATOM      7 CL   UNL     1       3.230   1.757  17.867  0.00  0.00    +0.000 Cl
ATOM      8  C   UNL     1       4.756   3.799  17.062  0.00  0.00    +0.000 A 
ENDROOT
BRANCH   1  11
ATOM      9  N   UNL     1       7.056   7.205  17.881  0.00  0.00    +0.000 NA
ATOM     10  C   UNL     1       7.310   6.295  17.023  0.00  0.00    +0.000 C 
ATOM     11  N   UNL     1       6.417   5.473  16.366  0.00  0.00    +0.000 N 
ATOM     12  H   UNL     1       6.601   5.252  15.405  0.00  0.00    +0.000 HD
BRANCH   9  13
ATOM     13  O   UNL     1       8.263   7.834  18.277  0.00  0.00    +0.000 OA
BRANCH  13  14
ATOM     14  C   UNL     1       8.226   9.218  17.902  0.00  0.00    +0.000 C 
BRANCH  14  16
ATOM     15  C   UNL     1       9.715  10.729  19.766  0.00  0.00    +0.000 C 
ATOM     16  C   UNL     1       9.027  10.031  18.905  0.00  0.00    +0.000 C 
ENDBRANCH  14  16
ENDBRANCH  13  14
ENDBRANCH   9  13
ENDBRANCH   1  11
BRANCH   5  17
ATOM     17  C   UNL     1       1.350   3.938  18.946  0.00  0.00    +0.000 C 
BRANCH  17  18
ATOM     18  C   UNL     1       1.724   3.671  20.395  0.00  0.00    +0.000 C 
ATOM     19  C   UNL     1       2.044   3.443  21.638  0.00  0.00    +0.000 C 
ENDBRANCH  17  18
ENDBRANCH   5  17
TORSDOF 6
ENDMDL
MODEL 7
REMARK VINA RESULT:      -6.3      2.246      3.011
REMARK  Name = 
REMARK  6 active torsions:
REMARK  status: ('A' for Active; 'I' for Inactive)
REMARK    1  A    between atoms: C_2  and  C_3
REMARK    2  A    between atoms: C_3  and  O_4
REMARK    3  A    between atoms: O_4  and  N_5
REMARK    4  A    between atoms: N_7  and  C_8
REMARK    5  A    between atoms: C_12  and  C_13
REMARK    6  A    between atoms: C_13  and  C_14
REMARK                            x       y       z     vdW  Elec       q    Type
REMARK                         _______ _______ _______ _____ _____    ______ ____
ROOT
ATOM      1  C   UNL     1       5.940   4.247  15.063  0.00  0.00    +0.000 A 
ATOM      2  C   UNL     1       6.476   5.389  15.650  0.00  0.00    +0.000 A 
ATOM      3  C   UNL     1       5.915   5.953  16.824  0.00  0.00    +0.000 A 
ATOM      4 CL   UNL     1       6.763   7.383  17.316  0.00  0.00    +0.000 Cl
ATOM      5  C   UNL     1       4.792   5.382  17.488  0.00  0.00    +0.000 A 
ATOM      6  C   UNL     1       4.224   4.273  16.816  0.00  0.00    +0.000 A 
ATOM      7 CL   UNL     1       2.808   3.470  17.409  0.00  0.00    +0.000 Cl
ATOM      8  C   UNL     1       4.794   3.730  15.640  0.00  0.00    +0.000 A 
ENDROOT
BRANCH   1  11
ATOM      9  N   UNL     1       4.805   3.454  12.399  0.00  0.00    +0.000 NA
ATOM     10  C   UNL     1       6.041   3.514  12.710  0.00  0.00    +0.000 C 
ATOM     11  N   UNL     1       6.596   3.642  13.968  0.00  0.00    +0.000 N 
ATOM     12  H   UNL     1       7.440   3.135  14.163  0.00  0.00    +0.000 HD
BRANCH   9  13
ATOM     13  O   UNL     1       4.677   3.286  10.997  0.00  0.00    +0.000 OA
BRANCH  13  14
ATOM     14  C   UNL     1       3.303   3.044  10.668  0.00  0.00    +0.000 C 
BRANCH  14  16
ATOM     15  C   UNL     1       2.418   5.020   8.855  0.00  0.00    +0.000 C 
ATOM     16  C   UNL     1       2.826   4.107   9.692  0.00  0.00    +0.000 C 
ENDBRANCH  14  16
ENDBRANCH  13  14
ENDBRANCH   9  13
ENDBRANCH   1  11
BRANCH   5  17
ATOM     17  C   UNL     1       4.115   5.868  18.823  0.00  0.00    +0.000 C 
BRANCH  17  18
ATOM     18  C   UNL     1       3.067   6.908  18.460  0.00  0.00    +0.000 C 
ATOM     19  C   UNL     1       2.168   7.800  18.150  0.00  0.00    +0.000 C 
ENDBRANCH  17  18
ENDBRANCH   5  17
TORSDOF 6
ENDMDL
MODEL 8
REMARK VINA RESULT:      -6.3      1.472      2.792
REMARK  Name = 
REMARK  6 active torsions:
REMARK  status: ('A' for Active; 'I' for Inactive)
REMARK    1  A    between atoms: C_2  and  C_3
REMARK    2  A    between atoms: C_3  and  O_4
REMARK    3  A    between atoms: O_4  and  N_5
REMARK    4  A    between atoms: N_7  and  C_8
REMARK    5  A    between atoms: C_12  and  C_13
REMARK    6  A    between atoms: C_13  and  C_14
REMARK                            x       y       z     vdW  Elec       q    Type
REMARK                         _______ _______ _______ _____ _____    ______ ____
ROOT
ATOM      1  C   UNL     1       4.007   5.858  17.550  0.00  0.00    +0.000 A 
ATOM      2  C   UNL     1       3.637   4.538  17.314  0.00  0.00    +0.000 A 
ATOM      3  C   UNL     1       2.630   3.899  18.082  0.00  0.00    +0.000 A 
ATOM      4 CL   UNL     1       2.398   2.252  17.592  0.00  0.00    +0.000 Cl
ATOM      5  C   UNL     1       1.920   4.568  19.121  0.00  0.00    +0.000 A 
ATOM      6  C   UNL     1       2.380   5.879  19.387  0.00  0.00    +0.000 A 
ATOM      7 CL   UNL     1       1.706   6.846  20.656  0.00  0.00    +0.000 Cl
ATOM      8  C   UNL     1       3.393   6.495  18.613  0.00  0.00    +0.000 A 
ENDROOT
BRANCH   1  11
ATOM      9  N   UNL     1       6.458   4.727  16.237  0.00  0.00    +0.000 NA
ATOM     10  C   UNL     1       5.895   5.839  15.964  0.00  0.00    +0.000 C 
ATOM     11  N   UNL     1       4.923   6.500  16.688  0.00  0.00    +0.000 N 
ATOM     12  H   UNL     1       4.972   7.501  16.735  0.00  0.00    +0.000 HD
BRANCH   9  13
ATOM     13  O   UNL     1       7.427   4.430  15.245  0.00  0.00    +0.000 OA
BRANCH  13  14
ATOM     14  C   UNL     1       7.052   5.052  14.008  0.00  0.00    +0.000 C 
BRANCH  14  16
ATOM     15  C   UNL     1       6.038   3.090  12.248  0.00  0.00    +0.000 C 
ATOM     16  C   UNL     1       6.507   3.996  13.061  0.00  0.00    +0.000 C 
ENDBRANCH  14  16
ENDBRANCH  13  14
ENDBRANCH   9  13
ENDBRANCH   1  11
BRANCH   5  17
ATOM     17  C   UNL     1       0.745   3.999  20.000  0.00  0.00    +0.000 C 
BRANCH  17  18
ATOM     18  C   UNL     1       1.359   3.142  21.097  0.00  0.00    +0.000 C 
ATOM     19  C   UNL     1       1.885   2.408  22.037  0.00  0.00    +0.000 C 
ENDBRANCH  17  18
ENDBRANCH   5  17
TORSDOF 6
ENDMDL
MODEL 9
REMARK VINA RESULT:      -6.2      3.038      5.174
REMARK  Name = 
REMARK  6 active torsions:
REMARK  status: ('A' for Active; 'I' for Inactive)
REMARK    1  A    between atoms: C_2  and  C_3
REMARK    2  A    between atoms: C_3  and  O_4
REMARK    3  A    between atoms: O_4  and  N_5
REMARK    4  A    between atoms: N_7  and  C_8
REMARK    5  A    between atoms: C_12  and  C_13
REMARK    6  A    between atoms: C_13  and  C_14
REMARK                            x       y       z     vdW  Elec       q    Type
REMARK                         _______ _______ _______ _____ _____    ______ ____
ROOT
ATOM      1  C   UNL     1       5.067   4.795  17.383  0.00  0.00    +0.000 A 
ATOM      2  C   UNL     1       4.444   3.551  17.353  0.00  0.00    +0.000 A 
ATOM      3  C   UNL     1       3.208   3.324  18.010  0.00  0.00    +0.000 A 
ATOM      4 CL   UNL     1       2.682   1.681  17.834  0.00  0.00    +0.000 Cl
ATOM      5  C   UNL     1       2.515   4.349  18.715  0.00  0.00    +0.000 A 
ATOM      6  C   UNL     1       3.217   5.575  18.794  0.00  0.00    +0.000 A 
ATOM      7 CL   UNL     1       2.591   6.935  19.666  0.00  0.00    +0.000 Cl
ATOM      8  C   UNL     1       4.455   5.779  18.139  0.00  0.00    +0.000 A 
ENDROOT
BRANCH   1  11
ATOM      9  N   UNL     1       6.650   7.327  17.071  0.00  0.00    +0.000 NA
ATOM     10  C   UNL     1       7.009   6.157  16.710  0.00  0.00    +0.000 C 
ATOM     11  N   UNL     1       6.233   5.020  16.618  0.00  0.00    +0.000 N 
ATOM     12  H   UNL     1       6.408   4.392  15.855  0.00  0.00    +0.000 HD
BRANCH   9  13
ATOM     13  O   UNL     1       7.755   8.210  16.987  0.00  0.00    +0.000 OA
BRANCH  13  14
ATOM     14  C   UNL     1       8.301   8.421  18.296  0.00  0.00    +0.000 C 
BRANCH  14  16
ATOM     15  C   UNL     1       9.296  11.057  18.477  0.00  0.00    +0.000 C 
ATOM     16  C   UNL     1       8.836   9.840  18.394  0.00  0.00    +0.000 C 
ENDBRANCH  14  16
ENDBRANCH  13  14
ENDBRANCH   9  13
ENDBRANCH   1  11
BRANCH   5  17
ATOM     17  C   UNL     1       1.115   4.247  19.428  0.00  0.00    +0.000 C 
BRANCH  17  18
ATOM     18  C   UNL     1       1.285   3.375  20.661  0.00  0.00    +0.000 C 
ATOM     19  C   UNL     1       1.431   2.627  21.719  0.00  0.00    +0.000 C 
ENDBRANCH  17  18
ENDBRANCH   5  17
TORSDOF 6
ENDMDL
