MODEL 1
REMARK VINA RESULT:      -9.3      0.000      0.000
REMARK  Name = 
REMARK  6 active torsions:
REMARK  status: ('A' for Active; 'I' for Inactive)
REMARK    1  A    between atoms: C_1  and  C_2
REMARK    2  A    between atoms: C_5  and  C_6
REMARK    3  A    between atoms: C_9  and  C_10
REMARK    4  A    between atoms: C_11  and  C_12
REMARK    5  A    between atoms: C_21  and  C_22
REMARK    6  A    between atoms: C_21  and  C_23
REMARK                            x       y       z     vdW  Elec       q    Type
REMARK                         _______ _______ _______ _____ _____    ______ ____
ROOT
ATOM      1  C   UNL     1       4.528   5.355  17.522  0.00  0.00    +0.000 A 
ATOM      2  C   UNL     1       4.307   4.246  18.339  0.00  0.00    +0.000 A 
ATOM      3  C   UNL     1       3.389   4.303  19.377  0.00  0.00    +0.000 A 
ATOM      4  C   UNL     1       2.636   5.471  19.615  0.00  0.00    +0.000 A 
ATOM      5  C   UNL     1       1.592   5.412  20.694  0.00  0.00    +0.000 C 
ATOM      6  C   UNL     1       2.842   6.623  18.813  0.00  0.00    +0.000 A 
ATOM      7  C   UNL     1       3.803   6.536  17.778  0.00  0.00    +0.000 A 
ENDROOT
BRANCH   6   8
ATOM      8  C   UNL     1       2.031   7.867  18.977  0.00  0.00    +0.000 A 
ATOM      9  C   UNL     1       1.715   8.435  20.223  0.00  0.00    +0.000 A 
ATOM     10  C   UNL     1       0.720   9.414  20.372  0.00  0.00    +0.000 A 
ATOM     11  C   UNL     1       0.190  10.053  19.207  0.00  0.00    +0.000 A 
ATOM     12  C   UNL     1       0.936   9.823  18.079  0.00  0.00    +0.000 A 
ATOM     13  C   UNL     1       1.544   8.582  17.882  0.00  0.00    +0.000 A 
ATOM     14  N   UNL     1       1.826  10.980  18.140  0.00  0.00    +0.000 N 
ATOM     15  C   UNL     1       1.364  11.802  19.301  0.00  0.00    +0.000 C 
ATOM     16  O   UNL     1       2.009  12.440  20.065  0.00  0.00    +0.000 OA
ATOM     17  C   UNL     1      -0.160  11.582  19.222  0.00  0.00    +0.000 C 
ATOM     18  C   UNL     1      -0.186  12.811  18.162  0.00  0.00    +0.000 C 
ATOM     19  C   UNL     1      -1.630  11.583  19.585  0.00  0.00    +0.000 C 
ATOM     20  H   UNL     1       1.678  11.467  17.259  0.00  0.00    +0.000 HD
ENDBRANCH   6   8
BRANCH   1  25
ATOM     21  C   UNL     1       6.620   4.030  13.204  0.00  0.00    +0.000 C 
ATOM     22  C   UNL     1       6.406   4.687  14.510  0.00  0.00    +0.000 A 
ATOM     23  N   UNL     1       7.171   5.602  15.077  0.00  0.00    +0.000 NA
ATOM     24  N   UNL     1       6.586   5.969  16.265  0.00  0.00    +0.000 NA
ATOM     25  C   UNL     1       5.478   5.256  16.421  0.00  0.00    +0.000 A 
ATOM     26  N   UNL     1       5.350   4.445  15.332  0.00  0.00    +0.000 N 
ATOM     27  H   UNL     1       4.566   3.820  15.146  0.00  0.00    +0.000 HD
ENDBRANCH   1  25
TORSDOF 2
ENDMDL
MODEL 2
REMARK VINA RESULT:      -9.0      1.316      1.815
REMARK  Name = 
REMARK  6 active torsions:
REMARK  status: ('A' for Active; 'I' for Inactive)
REMARK    1  A    between atoms: C_1  and  C_2
REMARK    2  A    between atoms: C_5  and  C_6
REMARK    3  A    between atoms: C_9  and  C_10
REMARK    4  A    between atoms: C_11  and  C_12
REMARK    5  A    between atoms: C_21  and  C_22
REMARK    6  A    between atoms: C_21  and  C_23
REMARK                            x       y       z     vdW  Elec       q    Type
REMARK                         _______ _______ _______ _____ _____    ______ ____
ROOT
ATOM      1  C   UNL     1       4.561   5.254  17.346  0.00  0.00    +0.000 A 
ATOM      2  C   UNL     1       4.275   4.147  18.144  0.00  0.00    +0.000 A 
ATOM      3  C   UNL     1       3.362   4.241  19.185  0.00  0.00    +0.000 A 
ATOM      4  C   UNL     1       2.680   5.447  19.443  0.00  0.00    +0.000 A 
ATOM      5  C   UNL     1       1.634   5.431  20.522  0.00  0.00    +0.000 C 
ATOM      6  C   UNL     1       2.953   6.598  18.660  0.00  0.00    +0.000 A 
ATOM      7  C   UNL     1       3.907   6.472  17.623  0.00  0.00    +0.000 A 
ENDROOT
BRANCH   6   8
ATOM      8  C   UNL     1       2.218   7.885  18.846  0.00  0.00    +0.000 A 
ATOM      9  C   UNL     1       1.818   8.717  17.786  0.00  0.00    +0.000 A 
ATOM     10  C   UNL     1       1.404  10.043  17.988  0.00  0.00    +0.000 A 
ATOM     11  C   UNL     1       1.122  10.492  19.316  0.00  0.00    +0.000 A 
ATOM     12  C   UNL     1       1.020   9.468  20.221  0.00  0.00    +0.000 A 
ATOM     13  C   UNL     1       1.846   8.348  20.109  0.00  0.00    +0.000 A 
ATOM     14  N   UNL     1      -0.418   9.223  20.147  0.00  0.00    +0.000 N 
ATOM     15  C   UNL     1      -0.974  10.271  19.236  0.00  0.00    +0.000 C 
ATOM     16  O   UNL     1      -1.863  10.185  18.456  0.00  0.00    +0.000 OA
ATOM     17  C   UNL     1      -0.073  11.471  19.593  0.00  0.00    +0.000 C 
ATOM     18  C   UNL     1      -1.114  11.770  20.802  0.00  0.00    +0.000 C 
ATOM     19  C   UNL     1       0.593  12.830  19.544  0.00  0.00    +0.000 C 
ATOM     20  H   UNL     1      -0.753   9.346  21.100  0.00  0.00    +0.000 HD
ENDBRANCH   6   8
BRANCH   1  25
ATOM     21  C   UNL     1       6.575   3.867  13.011  0.00  0.00    +0.000 C 
ATOM     22  C   UNL     1       6.397   4.521  14.324  0.00  0.00    +0.000 A 
ATOM     23  N   UNL     1       7.209   5.389  14.898  0.00  0.00    +0.000 NA
ATOM     24  N   UNL     1       6.646   5.774  16.090  0.00  0.00    +0.000 NA
ATOM     25  C   UNL     1       5.502   5.117  16.242  0.00  0.00    +0.000 A 
ATOM     26  N   UNL     1       5.331   4.325  15.146  0.00  0.00    +0.000 N 
ATOM     27  H   UNL     1       4.516   3.743  14.955  0.00  0.00    +0.000 HD
ENDBRANCH   1  25
TORSDOF 2
ENDMDL
MODEL 3
REMARK VINA RESULT:      -8.2      3.546      8.628
REMARK  Name = 
REMARK  6 active torsions:
REMARK  status: ('A' for Active; 'I' for Inactive)
REMARK    1  A    between atoms: C_1  and  C_2
REMARK    2  A    between atoms: C_5  and  C_6
REMARK    3  A    between atoms: C_9  and  C_10
REMARK    4  A    between atoms: C_11  and  C_12
REMARK    5  A    between atoms: C_21  and  C_22
REMARK    6  A    between atoms: C_21  and  C_23
REMARK                            x       y       z     vdW  Elec       q    Type
REMARK                         _______ _______ _______ _____ _____    ______ ____
ROOT
ATOM      1  C   UNL     1       0.712   9.937  20.504  0.00  0.00    +0.000 A 
ATOM      2  C   UNL     1       0.978  10.674  19.350  0.00  0.00    +0.000 A 
ATOM      3  C   UNL     1       1.683  10.111  18.297  0.00  0.00    +0.000 A 
ATOM      4  C   UNL     1       2.123   8.773  18.353  0.00  0.00    +0.000 A 
ATOM      5  C   UNL     1       2.789   8.213  17.127  0.00  0.00    +0.000 C 
ATOM      6  C   UNL     1       1.881   7.995  19.514  0.00  0.00    +0.000 A 
ATOM      7  C   UNL     1       1.180   8.609  20.578  0.00  0.00    +0.000 A 
ENDROOT
BRANCH   6   8
ATOM      8  C   UNL     1       2.268   6.555  19.607  0.00  0.00    +0.000 A 
ATOM      9  C   UNL     1       1.778   5.676  20.588  0.00  0.00    +0.000 A 
ATOM     10  C   UNL     1       2.370   4.429  20.842  0.00  0.00    +0.000 A 
ATOM     11  C   UNL     1       3.327   3.908  19.914  0.00  0.00    +0.000 A 
ATOM     12  C   UNL     1       3.342   4.582  18.720  0.00  0.00    +0.000 A 
ATOM     13  C   UNL     1       3.140   5.963  18.692  0.00  0.00    +0.000 A 
ATOM     14  N   UNL     1       2.384   3.771  17.974  0.00  0.00    +0.000 N 
ATOM     15  C   UNL     1       2.019   2.628  18.868  0.00  0.00    +0.000 C 
ATOM     16  O   UNL     1       0.974   2.079  18.986  0.00  0.00    +0.000 OA
ATOM     17  C   UNL     1       3.364   2.376  19.577  0.00  0.00    +0.000 C 
ATOM     18  C   UNL     1       3.751   1.443  18.308  0.00  0.00    +0.000 C 
ATOM     19  C   UNL     1       4.395   1.847  20.553  0.00  0.00    +0.000 C 
ATOM     20  H   UNL     1       2.895   3.451  17.155  0.00  0.00    +0.000 HD
ENDBRANCH   6   8
BRANCH   1  25
ATOM     21  C   UNL     1      -2.748  12.574  22.922  0.00  0.00    +0.000 C 
ATOM     22  C   UNL     1      -1.588  11.697  22.662  0.00  0.00    +0.000 A 
ATOM     23  N   UNL     1      -0.854  11.059  23.555  0.00  0.00    +0.000 NA
ATOM     24  N   UNL     1       0.094  10.328  22.883  0.00  0.00    +0.000 NA
ATOM     25  C   UNL     1      -0.057  10.545  21.582  0.00  0.00    +0.000 A 
ATOM     26  N   UNL     1      -1.105  11.403  21.425  0.00  0.00    +0.000 N 
ATOM     27  H   UNL     1      -1.491  11.711  20.532  0.00  0.00    +0.000 HD
ENDBRANCH   1  25
TORSDOF 2
ENDMDL
MODEL 4
REMARK VINA RESULT:      -7.9      2.999      4.399
REMARK  Name = 
REMARK  6 active torsions:
REMARK  status: ('A' for Active; 'I' for Inactive)
REMARK    1  A    between atoms: C_1  and  C_2
REMARK    2  A    between atoms: C_5  and  C_6
REMARK    3  A    between atoms: C_9  and  C_10
REMARK    4  A    between atoms: C_11  and  C_12
REMARK    5  A    between atoms: C_21  and  C_22
REMARK    6  A    between atoms: C_21  and  C_23
REMARK                            x       y       z     vdW  Elec       q    Type
REMARK                         _______ _______ _______ _____ _____    ______ ____
ROOT
ATOM      1  C   UNL     1       2.496   6.185  19.500  0.00  0.00    +0.000 A 
ATOM      2  C   UNL     1       3.116   6.559  18.308  0.00  0.00    +0.000 A 
ATOM      3  C   UNL     1       2.928   7.828  17.780  0.00  0.00    +0.000 A 
ATOM      4  C   UNL     1       2.131   8.779  18.449  0.00  0.00    +0.000 A 
ATOM      5  C   UNL     1       2.065  10.161  17.860  0.00  0.00    +0.000 C 
ATOM      6  C   UNL     1       1.476   8.432  19.658  0.00  0.00    +0.000 A 
ATOM      7  C   UNL     1       1.671   7.122  20.155  0.00  0.00    +0.000 A 
ENDROOT
BRANCH   6   8
ATOM      8  C   UNL     1       0.671   9.416  20.442  0.00  0.00    +0.000 A 
ATOM      9  C   UNL     1       0.912   9.724  21.792  0.00  0.00    +0.000 A 
ATOM     10  C   UNL     1      -0.022  10.410  22.584  0.00  0.00    +0.000 A 
ATOM     11  C   UNL     1      -1.134  11.052  21.955  0.00  0.00    +0.000 A 
ATOM     12  C   UNL     1      -0.997  11.156  20.594  0.00  0.00    +0.000 A 
ATOM     13  C   UNL     1      -0.383  10.132  19.872  0.00  0.00    +0.000 A 
ATOM     14  N   UNL     1      -0.370  12.473  20.516  0.00  0.00    +0.000 N 
ATOM     15  C   UNL     1      -0.332  13.002  21.914  0.00  0.00    +0.000 C 
ATOM     16  O   UNL     1       0.498  13.669  22.436  0.00  0.00    +0.000 OA
ATOM     17  C   UNL     1      -1.655  12.440  22.471  0.00  0.00    +0.000 C 
ATOM     18  C   UNL     1      -2.368  13.755  21.842  0.00  0.00    +0.000 C 
ATOM     19  C   UNL     1      -2.752  12.043  23.436  0.00  0.00    +0.000 C 
ATOM     20  H   UNL     1      -0.992  13.023  19.928  0.00  0.00    +0.000 HD
ENDBRANCH   6   8
BRANCH   1  25
ATOM     21  C   UNL     1       4.603   1.765  20.399  0.00  0.00    +0.000 C 
ATOM     22  C   UNL     1       3.664   2.904  20.460  0.00  0.00    +0.000 A 
ATOM     23  N   UNL     1       2.623   3.037  21.262  0.00  0.00    +0.000 NA
ATOM     24  N   UNL     1       2.050   4.261  21.015  0.00  0.00    +0.000 NA
ATOM     25  C   UNL     1       2.736   4.855  20.046  0.00  0.00    +0.000 A 
ATOM     26  N   UNL     1       3.749   4.018  19.683  0.00  0.00    +0.000 N 
ATOM     27  H   UNL     1       4.475   4.227  18.998  0.00  0.00    +0.000 HD
ENDBRANCH   1  25
TORSDOF 2
ENDMDL
MODEL 5
REMARK VINA RESULT:      -7.9      3.116      4.818
REMARK  Name = 
REMARK  6 active torsions:
REMARK  status: ('A' for Active; 'I' for Inactive)
REMARK    1  A    between atoms: C_1  and  C_2
REMARK    2  A    between atoms: C_5  and  C_6
REMARK    3  A    between atoms: C_9  and  C_10
REMARK    4  A    between atoms: C_11  and  C_12
REMARK    5  A    between atoms: C_21  and  C_22
REMARK    6  A    between atoms: C_21  and  C_23
REMARK                            x       y       z     vdW  Elec       q    Type
REMARK                         _______ _______ _______ _____ _____    ______ ____
ROOT
ATOM      1  C   UNL     1       2.272   6.804  19.403  0.00  0.00    +0.000 A 
ATOM      2  C   UNL     1       2.905   7.254  18.245  0.00  0.00    +0.000 A 
ATOM      3  C   UNL     1       2.706   8.549  17.787  0.00  0.00    +0.000 A 
ATOM      4  C   UNL     1       1.884   9.449  18.495  0.00  0.00    +0.000 A 
ATOM      5  C   UNL     1       1.806  10.861  17.985  0.00  0.00    +0.000 C 
ATOM      6  C   UNL     1       1.214   9.023  19.671  0.00  0.00    +0.000 A 
ATOM      7  C   UNL     1       1.421   7.689  20.095  0.00  0.00    +0.000 A 
ENDROOT
BRANCH   6   8
ATOM      8  C   UNL     1       0.381   9.948  20.496  0.00  0.00    +0.000 A 
ATOM      9  C   UNL     1       0.557  10.136  21.878  0.00  0.00    +0.000 A 
ATOM     10  C   UNL     1      -0.409  10.766  22.679  0.00  0.00    +0.000 A 
ATOM     11  C   UNL     1      -1.481  11.476  22.052  0.00  0.00    +0.000 A 
ATOM     12  C   UNL     1      -1.274  11.694  20.714  0.00  0.00    +0.000 A 
ATOM     13  C   UNL     1      -0.635  10.726  19.938  0.00  0.00    +0.000 A 
ATOM     14  N   UNL     1      -0.630  13.003  20.780  0.00  0.00    +0.000 N 
ATOM     15  C   UNL     1      -0.657  13.410  22.219  0.00  0.00    +0.000 C 
ATOM     16  O   UNL     1       0.152  14.018  22.837  0.00  0.00    +0.000 OA
ATOM     17  C   UNL     1      -2.013  12.822  22.659  0.00  0.00    +0.000 C 
ATOM     18  C   UNL     1      -2.679  14.197  22.112  0.00  0.00    +0.000 C 
ATOM     19  C   UNL     1      -3.161  12.361  23.532  0.00  0.00    +0.000 C 
ATOM     20  H   UNL     1      -1.216  13.610  20.212  0.00  0.00    +0.000 HD
ENDBRANCH   6   8
BRANCH   1  25
ATOM     21  C   UNL     1       1.773   2.490  21.835  0.00  0.00    +0.000 C 
ATOM     22  C   UNL     1       2.306   3.533  20.935  0.00  0.00    +0.000 A 
ATOM     23  N   UNL     1       3.330   3.426  20.109  0.00  0.00    +0.000 NA
ATOM     24  N   UNL     1       3.459   4.616  19.435  0.00  0.00    +0.000 NA
ATOM     25  C   UNL     1       2.523   5.448  19.875  0.00  0.00    +0.000 A 
ATOM     26  N   UNL     1       1.792   4.788  20.818  0.00  0.00    +0.000 N 
ATOM     27  H   UNL     1       0.970   5.155  21.296  0.00  0.00    +0.000 HD
ENDBRANCH   1  25
TORSDOF 2
ENDMDL
MODEL 6
REMARK VINA RESULT:      -7.7      3.524      5.737
REMARK  Name = 
REMARK  6 active torsions:
REMARK  status: ('A' for Active; 'I' for Inactive)
REMARK    1  A    between atoms: C_1  and  C_2
REMARK    2  A    between atoms: C_5  and  C_6
REMARK    3  A    between atoms: C_9  and  C_10
REMARK    4  A    between atoms: C_11  and  C_12
REMARK    5  A    between atoms: C_21  and  C_22
REMARK    6  A    between atoms: C_21  and  C_23
REMARK                            x       y       z     vdW  Elec       q    Type
REMARK                         _______ _______ _______ _____ _____    ______ ____
ROOT
ATOM      1  C   UNL     1       1.680   8.461  19.227  0.00  0.00    +0.000 A 
ATOM      2  C   UNL     1       2.228   9.196  18.176  0.00  0.00    +0.000 A 
ATOM      3  C   UNL     1       1.886  10.528  17.990  0.00  0.00    +0.000 A 
ATOM      4  C   UNL     1       1.001  11.179  18.874  0.00  0.00    +0.000 A 
ATOM      5  C   UNL     1       0.768  12.648  18.658  0.00  0.00    +0.000 C 
ATOM      6  C   UNL     1       0.416  10.461  19.948  0.00  0.00    +0.000 A 
ATOM      7  C   UNL     1       0.768   9.098  20.093  0.00  0.00    +0.000 A 
ENDROOT
BRANCH   6   8
ATOM      8  C   UNL     1      -0.478  11.112  20.952  0.00  0.00    +0.000 A 
ATOM      9  C   UNL     1      -0.340  10.952  22.341  0.00  0.00    +0.000 A 
ATOM     10  C   UNL     1      -1.352  11.319  23.243  0.00  0.00    +0.000 A 
ATOM     11  C   UNL     1      -2.443  12.119  22.781  0.00  0.00    +0.000 A 
ATOM     12  C   UNL     1      -2.219  12.676  21.548  0.00  0.00    +0.000 A 
ATOM     13  C   UNL     1      -1.518  11.963  20.574  0.00  0.00    +0.000 A 
ATOM     14  N   UNL     1      -1.640  13.951  21.962  0.00  0.00    +0.000 N 
ATOM     15  C   UNL     1      -1.718  13.981  23.456  0.00  0.00    +0.000 C 
ATOM     16  O   UNL     1      -0.952  14.445  24.232  0.00  0.00    +0.000 OA
ATOM     17  C   UNL     1      -3.052  13.245  23.689  0.00  0.00    +0.000 C 
ATOM     18  C   UNL     1      -3.773  14.684  23.484  0.00  0.00    +0.000 C 
ATOM     19  C   UNL     1      -4.195  12.531  24.380  0.00  0.00    +0.000 C 
ATOM     20  H   UNL     1      -2.243  14.658  21.546  0.00  0.00    +0.000 HD
ENDBRANCH   6   8
BRANCH   1  25
ATOM     21  C   UNL     1       2.362   3.991  21.307  0.00  0.00    +0.000 C 
ATOM     22  C   UNL     1       2.376   5.089  20.320  0.00  0.00    +0.000 A 
ATOM     23  N   UNL     1       2.786   5.029  19.066  0.00  0.00    +0.000 NA
ATOM     24  N   UNL     1       2.589   6.263  18.495  0.00  0.00    +0.000 NA
ATOM     25  C   UNL     1       2.080   7.072  19.416  0.00  0.00    +0.000 A 
ATOM     26  N   UNL     1       1.942   6.355  20.567  0.00  0.00    +0.000 N 
ATOM     27  H   UNL     1       1.526   6.697  21.433  0.00  0.00    +0.000 HD
ENDBRANCH   1  25
TORSDOF 2
ENDMDL
MODEL 7
REMARK VINA RESULT:      -7.6      7.513      8.606
REMARK  Name = 
REMARK  6 active torsions:
REMARK  status: ('A' for Active; 'I' for Inactive)
REMARK    1  A    between atoms: C_1  and  C_2
REMARK    2  A    between atoms: C_5  and  C_6
REMARK    3  A    between atoms: C_9  and  C_10
REMARK    4  A    between atoms: C_11  and  C_12
REMARK    5  A    between atoms: C_21  and  C_22
REMARK    6  A    between atoms: C_21  and  C_23
REMARK                            x       y       z     vdW  Elec       q    Type
REMARK                         _______ _______ _______ _____ _____    ______ ____
ROOT
ATOM      1  C   UNL     1       9.089  10.204  18.922  0.00  0.00    +0.000 A 
ATOM      2  C   UNL     1      10.095  10.863  18.216  0.00  0.00    +0.000 A 
ATOM      3  C   UNL     1      10.664  12.026  18.713  0.00  0.00    +0.000 A 
ATOM      4  C   UNL     1      10.261  12.555  19.956  0.00  0.00    +0.000 A 
ATOM      5  C   UNL     1      11.001  13.760  20.467  0.00  0.00    +0.000 C 
ATOM      6  C   UNL     1       9.233  11.919  20.698  0.00  0.00    +0.000 A 
ATOM      7  C   UNL     1       8.659  10.748  20.149  0.00  0.00    +0.000 A 
ENDROOT
BRANCH   6   8
ATOM      8  C   UNL     1       8.808  12.397  22.048  0.00  0.00    +0.000 A 
ATOM      9  C   UNL     1       8.293  13.681  22.296  0.00  0.00    +0.000 A 
ATOM     10  C   UNL     1       8.184  14.209  23.592  0.00  0.00    +0.000 A 
ATOM     11  C   UNL     1       8.343  13.338  24.716  0.00  0.00    +0.000 A 
ATOM     12  C   UNL     1       8.307  12.010  24.379  0.00  0.00    +0.000 A 
ATOM     13  C   UNL     1       8.868  11.577  23.176  0.00  0.00    +0.000 A 
ATOM     14  N   UNL     1       6.880  11.755  24.559  0.00  0.00    +0.000 N 
ATOM     15  C   UNL     1       6.295  13.019  25.103  0.00  0.00    +0.000 C 
ATOM     16  O   UNL     1       5.231  13.498  24.892  0.00  0.00    +0.000 OA
ATOM     17  C   UNL     1       7.451  13.511  25.996  0.00  0.00    +0.000 C 
ATOM     18  C   UNL     1       6.833  12.561  27.156  0.00  0.00    +0.000 C 
ATOM     19  C   UNL     1       8.306  14.397  26.878  0.00  0.00    +0.000 C 
ATOM     20  H   UNL     1       6.835  11.002  25.242  0.00  0.00    +0.000 HD
ENDBRANCH   6   8
BRANCH   1  25
ATOM     21  C   UNL     1       7.683   5.445  18.540  0.00  0.00    +0.000 C 
ATOM     22  C   UNL     1       7.894   6.870  18.214  0.00  0.00    +0.000 A 
ATOM     23  N   UNL     1       7.463   7.516  17.146  0.00  0.00    +0.000 NA
ATOM     24  N   UNL     1       7.848   8.829  17.259  0.00  0.00    +0.000 NA
ATOM     25  C   UNL     1       8.531   8.967  18.389  0.00  0.00    +0.000 A 
ATOM     26  N   UNL     1       8.573   7.749  18.999  0.00  0.00    +0.000 N 
ATOM     27  H   UNL     1       8.985   7.556  19.912  0.00  0.00    +0.000 HD
ENDBRANCH   1  25
TORSDOF 2
ENDMDL
MODEL 8
REMARK VINA RESULT:      -7.6      3.366      5.337
REMARK  Name = 
REMARK  6 active torsions:
REMARK  status: ('A' for Active; 'I' for Inactive)
REMARK    1  A    between atoms: C_1  and  C_2
REMARK    2  A    between atoms: C_5  and  C_6
REMARK    3  A    between atoms: C_9  and  C_10
REMARK    4  A    between atoms: C_11  and  C_12
REMARK    5  A    between atoms: C_21  and  C_22
REMARK    6  A    between atoms: C_21  and  C_23
REMARK                            x       y       z     vdW  Elec       q    Type
REMARK                         _______ _______ _______ _____ _____    ______ ____
ROOT
ATOM      1  C   UNL     1       1.869   8.034  19.393  0.00  0.00    +0.000 A 
ATOM      2  C   UNL     1       2.376   8.684  18.269  0.00  0.00    +0.000 A 
ATOM      3  C   UNL     1       2.000   9.986  17.973  0.00  0.00    +0.000 A 
ATOM      4  C   UNL     1       1.119  10.694  18.816  0.00  0.00    +0.000 A 
ATOM      5  C   UNL     1       0.847  12.133  18.477  0.00  0.00    +0.000 C 
ATOM      6  C   UNL     1       0.573  10.063  19.963  0.00  0.00    +0.000 A 
ATOM      7  C   UNL     1       0.961   8.726  20.220  0.00  0.00    +0.000 A 
ENDROOT
BRANCH   6   8
ATOM      8  C   UNL     1      -0.314  10.782  20.926  0.00  0.00    +0.000 A 
ATOM      9  C   UNL     1      -0.176  10.707  22.322  0.00  0.00    +0.000 A 
ATOM     10  C   UNL     1      -1.183  11.136  23.201  0.00  0.00    +0.000 A 
ATOM     11  C   UNL     1      -2.269  11.914  22.691  0.00  0.00    +0.000 A 
ATOM     12  C   UNL     1      -2.043  12.392  21.426  0.00  0.00    +0.000 A 
ATOM     13  C   UNL     1      -1.348  11.615  20.497  0.00  0.00    +0.000 A 
ATOM     14  N   UNL     1      -1.454  13.686  21.759  0.00  0.00    +0.000 N 
ATOM     15  C   UNL     1      -1.529  13.808  23.248  0.00  0.00    +0.000 C 
ATOM     16  O   UNL     1      -0.758  14.315  23.993  0.00  0.00    +0.000 OA
ATOM     17  C   UNL     1      -2.868  13.098  23.528  0.00  0.00    +0.000 C 
ATOM     18  C   UNL     1      -3.578  14.528  23.235  0.00  0.00    +0.000 C 
ATOM     19  C   UNL     1      -4.015  12.437  24.263  0.00  0.00    +0.000 C 
ATOM     20  H   UNL     1      -2.052  14.370  21.301  0.00  0.00    +0.000 HD
ENDBRANCH   6   8
BRANCH   1  25
ATOM     21  C   UNL     1       4.482   3.799  19.335  0.00  0.00    +0.000 C 
ATOM     22  C   UNL     1       3.459   4.804  19.686  0.00  0.00    +0.000 A 
ATOM     23  N   UNL     1       2.532   4.706  20.621  0.00  0.00    +0.000 NA
ATOM     24  N   UNL     1       1.819   5.879  20.638  0.00  0.00    +0.000 NA
ATOM     25  C   UNL     1       2.305   6.676  19.694  0.00  0.00    +0.000 A 
ATOM     26  N   UNL     1       3.331   6.018  19.085  0.00  0.00    +0.000 N 
ATOM     27  H   UNL     1       3.932   6.401  18.355  0.00  0.00    +0.000 HD
ENDBRANCH   1  25
TORSDOF 2
ENDMDL
MODEL 9
REMARK VINA RESULT:      -7.4      2.335      7.781
REMARK  Name = 
REMARK  6 active torsions:
REMARK  status: ('A' for Active; 'I' for Inactive)
REMARK    1  A    between atoms: C_1  and  C_2
REMARK    2  A    between atoms: C_5  and  C_6
REMARK    3  A    between atoms: C_9  and  C_10
REMARK    4  A    between atoms: C_11  and  C_12
REMARK    5  A    between atoms: C_21  and  C_22
REMARK    6  A    between atoms: C_21  and  C_23
REMARK                            x       y       z     vdW  Elec       q    Type
REMARK                         _______ _______ _______ _____ _____    ______ ____
ROOT
ATOM      1  C   UNL     1       0.913   9.546  20.455  0.00  0.00    +0.000 A 
ATOM      2  C   UNL     1       0.306   8.732  21.411  0.00  0.00    +0.000 A 
ATOM      3  C   UNL     1       0.569   7.370  21.451  0.00  0.00    +0.000 A 
ATOM      4  C   UNL     1       1.476   6.781  20.548  0.00  0.00    +0.000 A 
ATOM      5  C   UNL     1       1.779   5.320  20.729  0.00  0.00    +0.000 C 
ATOM      6  C   UNL     1       2.105   7.574  19.554  0.00  0.00    +0.000 A 
ATOM      7  C   UNL     1       1.795   8.955  19.527  0.00  0.00    +0.000 A 
ENDROOT
BRANCH   6   8
ATOM      8  C   UNL     1       3.120   7.018  18.610  0.00  0.00    +0.000 A 
ATOM      9  C   UNL     1       3.541   7.673  17.440  0.00  0.00    +0.000 A 
ATOM     10  C   UNL     1       4.257   7.015  16.428  0.00  0.00    +0.000 A 
ATOM     11  C   UNL     1       4.811   5.723  16.691  0.00  0.00    +0.000 A 
ATOM     12  C   UNL     1       4.812   5.398  18.023  0.00  0.00    +0.000 A 
ATOM     13  C   UNL     1       3.754   5.797  18.842  0.00  0.00    +0.000 A 
ATOM     14  N   UNL     1       6.138   5.888  18.389  0.00  0.00    +0.000 N 
ATOM     15  C   UNL     1       6.777   6.355  17.120  0.00  0.00    +0.000 C 
ATOM     16  O   UNL     1       7.509   7.271  16.948  0.00  0.00    +0.000 OA
ATOM     17  C   UNL     1       6.217   5.323  16.120  0.00  0.00    +0.000 C 
ATOM     18  C   UNL     1       7.455   4.370  16.557  0.00  0.00    +0.000 C 
ATOM     19  C   UNL     1       5.863   4.631  14.821  0.00  0.00    +0.000 C 
ATOM     20  H   UNL     1       6.619   5.077  18.770  0.00  0.00    +0.000 HD
ENDBRANCH   6   8
BRANCH   1  25
ATOM     21  C   UNL     1      -0.338  14.108  18.906  0.00  0.00    +0.000 C 
ATOM     22  C   UNL     1       0.078  12.995  19.785  0.00  0.00    +0.000 A 
ATOM     23  N   UNL     1       0.277  13.041  21.089  0.00  0.00    +0.000 NA
ATOM     24  N   UNL     1       0.615  11.779  21.513  0.00  0.00    +0.000 NA
ATOM     25  C   UNL     1       0.641  10.978  20.455  0.00  0.00    +0.000 A 
ATOM     26  N   UNL     1       0.310  11.723  19.362  0.00  0.00    +0.000 N 
ATOM     27  H   UNL     1       0.196  11.368  18.413  0.00  0.00    +0.000 HD
ENDBRANCH   1  25
TORSDOF 2
ENDMDL
