MODEL 1
REMARK VINA RESULT:      -8.1      0.000      0.000
REMARK  Name = 
REMARK  8 active torsions:
REMARK  status: ('A' for Active; 'I' for Inactive)
REMARK    1  A    between atoms: C_1  and  N_2
REMARK    2  A    between atoms: N_2  and  C_3
REMARK    3  A    between atoms: C_3  and  C_4
REMARK    4  A    between atoms: C_4  and  N_5
REMARK    5  A    between atoms: C_11  and  C_13
REMARK    6  A    between atoms: C_15  and  C_16
REMARK    7  A    between atoms: C_16  and  O_17
REMARK    8  A    between atoms: O_17  and  C_18
REMARK                            x       y       z     vdW  Elec       q    Type
REMARK                         _______ _______ _______ _____ _____    ______ ____
ROOT
ATOM      1  C   UNL     1       7.304   6.157  17.577  0.00  0.00    +0.000 A 
ATOM      2  C   UNL     1       7.236   7.489  17.072  0.00  0.00    +0.000 A 
ATOM      3  C   UNL     1       7.987   8.235  17.946  0.00  0.00    +0.000 A 
ATOM      4  O   UNL     1       8.427   7.437  18.946  0.00  0.00    +0.000 OA
ATOM      5  N   UNL     1       7.988   6.162  18.731  0.00  0.00    +0.000 NA
ENDROOT
BRANCH   1   8
ATOM      6  C   UNL     1       5.019   3.286  16.524  0.00  0.00    +0.000 C 
ATOM      7  N   UNL     1       5.483   4.418  17.311  0.00  0.00    +0.000 N 
ATOM      8  C   UNL     1       6.742   4.951  16.924  0.00  0.00    +0.000 C 
ATOM      9  O   UNL     1       7.407   4.387  16.049  0.00  0.00    +0.000 OA
BRANCH   7  10
ATOM     10  C   UNL     1       4.534   5.163  18.144  0.00  0.00    +0.000 C 
BRANCH  10  11
ATOM     11  C   UNL     1       3.898   4.466  19.357  0.00  0.00    +0.000 C 
BRANCH  11  12
ATOM     12  N   UNL     1       2.462   4.788  19.541  0.00  0.00    +0.000 NA
ATOM     13  C   UNL     1       2.012   4.832  20.954  0.00  0.00    +0.000 C 
ATOM     14  C   UNL     1       2.019   3.457  21.639  0.00  0.00    +0.000 C 
ATOM     15  O   UNL     1       1.192   2.526  20.928  0.00  0.00    +0.000 OA
ATOM     16  C   UNL     1       1.590   2.417  19.555  0.00  0.00    +0.000 C 
ATOM     17  C   UNL     1       1.614   3.788  18.852  0.00  0.00    +0.000 C 
ENDBRANCH  11  12
ENDBRANCH  10  11
ENDBRANCH   7  10
ENDBRANCH   1   8
BRANCH   3  18
ATOM     18  C   UNL     1       8.400   9.646  18.037  0.00  0.00    +0.000 C 
BRANCH  18  19
ATOM     19  O   UNL     1       9.247   9.724  19.176  0.00  0.00    +0.000 OA
BRANCH  19  20
ATOM     20  C   UNL     1       9.975  10.868  19.327  0.00  0.00    +0.000 A 
ATOM     21  C   UNL     1      10.086  11.620  20.500  0.00  0.00    +0.000 A 
ATOM     22  C   UNL     1      10.885  12.764  20.519  0.00  0.00    +0.000 A 
ATOM     23  C   UNL     1      11.565  13.154  19.369  0.00  0.00    +0.000 A 
ATOM     24  F   UNL     1      12.333  14.248  19.401  0.00  0.00    +0.000 F 
ATOM     25  C   UNL     1      11.443  12.412  18.200  0.00  0.00    +0.000 A 
ATOM     26  F   UNL     1      12.095  12.790  17.094  0.00  0.00    +0.000 F 
ATOM     27  C   UNL     1      10.649  11.274  18.173  0.00  0.00    +0.000 A 
ENDBRANCH  19  20
ENDBRANCH  18  19
ENDBRANCH   3  18
TORSDOF 7
ENDMDL
MODEL 2
REMARK VINA RESULT:      -8.0      1.190      1.744
REMARK  Name = 
REMARK  8 active torsions:
REMARK  status: ('A' for Active; 'I' for Inactive)
REMARK    1  A    between atoms: C_1  and  N_2
REMARK    2  A    between atoms: N_2  and  C_3
REMARK    3  A    between atoms: C_3  and  C_4
REMARK    4  A    between atoms: C_4  and  N_5
REMARK    5  A    between atoms: C_11  and  C_13
REMARK    6  A    between atoms: C_15  and  C_16
REMARK    7  A    between atoms: C_16  and  O_17
REMARK    8  A    between atoms: O_17  and  C_18
REMARK                            x       y       z     vdW  Elec       q    Type
REMARK                         _______ _______ _______ _____ _____    ______ ____
ROOT
ATOM      1  C   UNL     1       7.345   6.403  17.611  0.00  0.00    +0.000 A 
ATOM      2  C   UNL     1       7.347   7.750  17.143  0.00  0.00    +0.000 A 
ATOM      3  C   UNL     1       8.144   8.430  18.030  0.00  0.00    +0.000 A 
ATOM      4  O   UNL     1       8.547   7.583  19.004  0.00  0.00    +0.000 OA
ATOM      5  N   UNL     1       8.037   6.339  18.759  0.00  0.00    +0.000 NA
ENDROOT
BRANCH   1   8
ATOM      6  C   UNL     1       4.887   3.714  16.474  0.00  0.00    +0.000 C 
ATOM      7  N   UNL     1       5.413   4.801  17.284  0.00  0.00    +0.000 N 
ATOM      8  C   UNL     1       6.714   5.248  16.931  0.00  0.00    +0.000 C 
ATOM      9  O   UNL     1       7.356   4.648  16.062  0.00  0.00    +0.000 OA
BRANCH   7  10
ATOM     10  C   UNL     1       4.501   5.602  18.108  0.00  0.00    +0.000 C 
BRANCH  10  11
ATOM     11  C   UNL     1       4.053   5.055  19.473  0.00  0.00    +0.000 C 
BRANCH  11  12
ATOM     12  N   UNL     1       2.586   5.115  19.683  0.00  0.00    +0.000 NA
ATOM     13  C   UNL     1       2.133   4.680  21.027  0.00  0.00    +0.000 C 
ATOM     14  C   UNL     1       2.331   3.178  21.281  0.00  0.00    +0.000 C 
ATOM     15  O   UNL     1       1.643   2.396  20.295  0.00  0.00    +0.000 OA
ATOM     16  C   UNL     1       2.053   2.751  18.968  0.00  0.00    +0.000 C 
ATOM     17  C   UNL     1       1.886   4.259  18.697  0.00  0.00    +0.000 C 
ENDBRANCH  11  12
ENDBRANCH  10  11
ENDBRANCH   7  10
ENDBRANCH   1   8
BRANCH   3  18
ATOM     18  C   UNL     1       8.634   9.813  18.155  0.00  0.00    +0.000 C 
BRANCH  18  19
ATOM     19  O   UNL     1       9.275   9.879  19.422  0.00  0.00    +0.000 OA
BRANCH  19  20
ATOM     20  C   UNL     1       9.747  11.097  19.813  0.00  0.00    +0.000 A 
ATOM     21  C   UNL     1      10.627  11.907  19.089  0.00  0.00    +0.000 A 
ATOM     22  C   UNL     1      11.014  13.146  19.603  0.00  0.00    +0.000 A 
ATOM     23  C   UNL     1      10.527  13.567  20.836  0.00  0.00    +0.000 A 
ATOM     24  F   UNL     1      10.900  14.759  21.316  0.00  0.00    +0.000 F 
ATOM     25  C   UNL     1       9.663  12.755  21.561  0.00  0.00    +0.000 A 
ATOM     26  F   UNL     1       9.198  13.160  22.748  0.00  0.00    +0.000 F 
ATOM     27  C   UNL     1       9.274  11.522  21.058  0.00  0.00    +0.000 A 
ENDBRANCH  19  20
ENDBRANCH  18  19
ENDBRANCH   3  18
TORSDOF 7
ENDMDL
MODEL 3
REMARK VINA RESULT:      -7.9      0.817      1.243
REMARK  Name = 
REMARK  8 active torsions:
REMARK  status: ('A' for Active; 'I' for Inactive)
REMARK    1  A    between atoms: C_1  and  N_2
REMARK    2  A    between atoms: N_2  and  C_3
REMARK    3  A    between atoms: C_3  and  C_4
REMARK    4  A    between atoms: C_4  and  N_5
REMARK    5  A    between atoms: C_11  and  C_13
REMARK    6  A    between atoms: C_15  and  C_16
REMARK    7  A    between atoms: C_16  and  O_17
REMARK    8  A    between atoms: O_17  and  C_18
REMARK                            x       y       z     vdW  Elec       q    Type
REMARK                         _______ _______ _______ _____ _____    ______ ____
ROOT
ATOM      1  C   UNL     1       7.420   6.376  17.539  0.00  0.00    +0.000 A 
ATOM      2  C   UNL     1       7.409   7.722  17.067  0.00  0.00    +0.000 A 
ATOM      3  C   UNL     1       8.150   8.423  17.986  0.00  0.00    +0.000 A 
ATOM      4  O   UNL     1       8.530   7.588  18.979  0.00  0.00    +0.000 OA
ATOM      5  N   UNL     1       8.063   6.332  18.717  0.00  0.00    +0.000 NA
ENDROOT
BRANCH   1   8
ATOM      6  C   UNL     1       5.129   3.544  16.399  0.00  0.00    +0.000 C 
ATOM      7  N   UNL     1       5.609   4.633  17.235  0.00  0.00    +0.000 N 
ATOM      8  C   UNL     1       6.847   5.204  16.837  0.00  0.00    +0.000 C 
ATOM      9  O   UNL     1       7.486   4.700  15.906  0.00  0.00    +0.000 OA
BRANCH   7  10
ATOM     10  C   UNL     1       4.683   5.316  18.144  0.00  0.00    +0.000 C 
BRANCH  10  11
ATOM     11  C   UNL     1       3.306   4.690  18.416  0.00  0.00    +0.000 C 
BRANCH  11  12
ATOM     12  N   UNL     1       3.305   3.728  19.545  0.00  0.00    +0.000 NA
ATOM     13  C   UNL     1       2.799   2.375  19.208  0.00  0.00    +0.000 C 
ATOM     14  C   UNL     1       1.295   2.348  18.894  0.00  0.00    +0.000 C 
ATOM     15  O   UNL     1       0.532   2.857  19.996  0.00  0.00    +0.000 OA
ATOM     16  C   UNL     1       0.956   4.177  20.359  0.00  0.00    +0.000 C 
ATOM     17  C   UNL     1       2.467   4.235  20.657  0.00  0.00    +0.000 C 
ENDBRANCH  11  12
ENDBRANCH  10  11
ENDBRANCH   7  10
ENDBRANCH   1   8
BRANCH   3  18
ATOM     18  C   UNL     1       8.599   9.818  18.127  0.00  0.00    +0.000 C 
BRANCH  18  19
ATOM     19  O   UNL     1       9.237   9.887  19.396  0.00  0.00    +0.000 OA
BRANCH  19  20
ATOM     20  C   UNL     1       9.743  11.099  19.768  0.00  0.00    +0.000 A 
ATOM     21  C   UNL     1       9.543  11.727  21.000  0.00  0.00    +0.000 A 
ATOM     22  C   UNL     1      10.139  12.963  21.255  0.00  0.00    +0.000 A 
ATOM     23  C   UNL     1      10.926  13.567  20.280  0.00  0.00    +0.000 A 
ATOM     24  F   UNL     1      11.498  14.749  20.538  0.00  0.00    +0.000 F 
ATOM     25  C   UNL     1      11.113  12.947  19.051  0.00  0.00    +0.000 A 
ATOM     26  F   UNL     1      11.867  13.531  18.112  0.00  0.00    +0.000 F 
ATOM     27  C   UNL     1      10.523  11.719  18.788  0.00  0.00    +0.000 A 
ENDBRANCH  19  20
ENDBRANCH  18  19
ENDBRANCH   3  18
TORSDOF 7
ENDMDL
MODEL 4
REMARK VINA RESULT:      -7.8      1.263      1.804
REMARK  Name = 
REMARK  8 active torsions:
REMARK  status: ('A' for Active; 'I' for Inactive)
REMARK    1  A    between atoms: C_1  and  N_2
REMARK    2  A    between atoms: N_2  and  C_3
REMARK    3  A    between atoms: C_3  and  C_4
REMARK    4  A    between atoms: C_4  and  N_5
REMARK    5  A    between atoms: C_11  and  C_13
REMARK    6  A    between atoms: C_15  and  C_16
REMARK    7  A    between atoms: C_16  and  O_17
REMARK    8  A    between atoms: O_17  and  C_18
REMARK                            x       y       z     vdW  Elec       q    Type
REMARK                         _______ _______ _______ _____ _____    ______ ____
ROOT
ATOM      1  C   UNL     1       7.357   6.242  17.205  0.00  0.00    +0.000 A 
ATOM      2  C   UNL     1       7.596   7.648  17.201  0.00  0.00    +0.000 A 
ATOM      3  C   UNL     1       8.219   7.902  18.398  0.00  0.00    +0.000 A 
ATOM      4  O   UNL     1       8.297   6.755  19.110  0.00  0.00    +0.000 OA
ATOM      5  N   UNL     1       7.746   5.736  18.385  0.00  0.00    +0.000 NA
ENDROOT
BRANCH   1   8
ATOM      6  C   UNL     1       5.070   4.169  14.959  0.00  0.00    +0.000 C 
ATOM      7  N   UNL     1       5.523   4.837  16.169  0.00  0.00    +0.000 N 
ATOM      8  C   UNL     1       6.800   5.452  16.081  0.00  0.00    +0.000 C 
ATOM      9  O   UNL     1       7.486   5.305  15.063  0.00  0.00    +0.000 OA
BRANCH   7  10
ATOM     10  C   UNL     1       4.558   5.172  17.221  0.00  0.00    +0.000 C 
BRANCH  10  11
ATOM     11  C   UNL     1       3.339   4.260  17.433  0.00  0.00    +0.000 C 
BRANCH  11  12
ATOM     12  N   UNL     1       3.451   3.388  18.627  0.00  0.00    +0.000 NA
ATOM     13  C   UNL     1       2.569   2.195  18.611  0.00  0.00    +0.000 C 
ATOM     14  C   UNL     1       1.076   2.541  18.730  0.00  0.00    +0.000 C 
ATOM     15  O   UNL     1       0.815   3.282  19.929  0.00  0.00    +0.000 OA
ATOM     16  C   UNL     1       1.623   4.465  19.997  0.00  0.00    +0.000 C 
ATOM     17  C   UNL     1       3.124   4.147  19.856  0.00  0.00    +0.000 C 
ENDBRANCH  11  12
ENDBRANCH  10  11
ENDBRANCH   7  10
ENDBRANCH   1   8
BRANCH   3  18
ATOM     18  C   UNL     1       8.792   9.090  19.052  0.00  0.00    +0.000 C 
BRANCH  18  19
ATOM     19  O   UNL     1       8.558  10.169  18.157  0.00  0.00    +0.000 OA
BRANCH  19  20
ATOM     20  C   UNL     1       9.379  11.253  18.267  0.00  0.00    +0.000 A 
ATOM     21  C   UNL     1       9.247  12.458  17.571  0.00  0.00    +0.000 A 
ATOM     22  C   UNL     1      10.152  13.495  17.797  0.00  0.00    +0.000 A 
ATOM     23  C   UNL     1      11.186  13.325  18.712  0.00  0.00    +0.000 A 
ATOM     24  F   UNL     1      12.044  14.329  18.926  0.00  0.00    +0.000 F 
ATOM     25  C   UNL     1      11.324  12.122  19.394  0.00  0.00    +0.000 A 
ATOM     26  F   UNL     1      12.321  11.959  20.271  0.00  0.00    +0.000 F 
ATOM     27  C   UNL     1      10.429  11.085  19.174  0.00  0.00    +0.000 A 
ENDBRANCH  19  20
ENDBRANCH  18  19
ENDBRANCH   3  18
TORSDOF 7
ENDMDL
MODEL 5
REMARK VINA RESULT:      -7.7      5.693      8.568
REMARK  Name = 
REMARK  8 active torsions:
REMARK  status: ('A' for Active; 'I' for Inactive)
REMARK    1  A    between atoms: C_1  and  N_2
REMARK    2  A    between atoms: N_2  and  C_3
REMARK    3  A    between atoms: C_3  and  C_4
REMARK    4  A    between atoms: C_4  and  N_5
REMARK    5  A    between atoms: C_11  and  C_13
REMARK    6  A    between atoms: C_15  and  C_16
REMARK    7  A    between atoms: C_16  and  O_17
REMARK    8  A    between atoms: O_17  and  C_18
REMARK                            x       y       z     vdW  Elec       q    Type
REMARK                         _______ _______ _______ _____ _____    ______ ____
ROOT
ATOM      1  C   UNL     1       2.388   5.551  18.742  0.00  0.00    +0.000 A 
ATOM      2  C   UNL     1       1.985   5.870  20.072  0.00  0.00    +0.000 A 
ATOM      3  C   UNL     1       1.901   7.240  20.095  0.00  0.00    +0.000 A 
ATOM      4  O   UNL     1       2.287   7.728  18.894  0.00  0.00    +0.000 OA
ATOM      5  N   UNL     1       2.608   6.690  18.067  0.00  0.00    +0.000 NA
ENDROOT
BRANCH   1   8
ATOM      6  C   UNL     1       3.648   2.069  17.813  0.00  0.00    +0.000 C 
ATOM      7  N   UNL     1       3.700   3.421  18.345  0.00  0.00    +0.000 N 
ATOM      8  C   UNL     1       2.515   4.187  18.176  0.00  0.00    +0.000 C 
ATOM      9  O   UNL     1       1.575   3.729  17.517  0.00  0.00    +0.000 OA
BRANCH   7  10
ATOM     10  C   UNL     1       4.740   3.783  19.315  0.00  0.00    +0.000 C 
BRANCH  10  11
ATOM     11  C   UNL     1       5.551   5.069  19.094  0.00  0.00    +0.000 C 
BRANCH  11  12
ATOM     12  N   UNL     1       6.958   4.822  18.698  0.00  0.00    +0.000 NA
ATOM     13  C   UNL     1       7.870   5.976  18.894  0.00  0.00    +0.000 C 
ATOM     14  C   UNL     1       7.579   7.151  17.947  0.00  0.00    +0.000 C 
ATOM     15  O   UNL     1       7.658   6.736  16.577  0.00  0.00    +0.000 OA
ATOM     16  C   UNL     1       6.780   5.634  16.313  0.00  0.00    +0.000 C 
ATOM     17  C   UNL     1       7.038   4.451  17.267  0.00  0.00    +0.000 C 
ENDBRANCH  11  12
ENDBRANCH  10  11
ENDBRANCH   7  10
ENDBRANCH   1   8
BRANCH   3  18
ATOM     18  C   UNL     1       1.507   8.252  21.090  0.00  0.00    +0.000 C 
BRANCH  18  19
ATOM     19  O   UNL     1       0.587   9.106  20.423  0.00  0.00    +0.000 OA
BRANCH  19  20
ATOM     20  C   UNL     1      -0.154   9.944  21.203  0.00  0.00    +0.000 A 
ATOM     21  C   UNL     1      -0.418   9.779  22.565  0.00  0.00    +0.000 A 
ATOM     22  C   UNL     1      -1.180  10.729  23.247  0.00  0.00    +0.000 A 
ATOM     23  C   UNL     1      -1.677  11.835  22.566  0.00  0.00    +0.000 A 
ATOM     24  F   UNL     1      -2.400  12.744  23.231  0.00  0.00    +0.000 F 
ATOM     25  C   UNL     1      -1.425  11.992  21.209  0.00  0.00    +0.000 A 
ATOM     26  F   UNL     1      -1.907  13.055  20.555  0.00  0.00    +0.000 F 
ATOM     27  C   UNL     1      -0.670  11.051  20.523  0.00  0.00    +0.000 A 
ENDBRANCH  19  20
ENDBRANCH  18  19
ENDBRANCH   3  18
TORSDOF 7
ENDMDL
MODEL 6
REMARK VINA RESULT:      -7.6      1.030      1.232
REMARK  Name = 
REMARK  8 active torsions:
REMARK  status: ('A' for Active; 'I' for Inactive)
REMARK    1  A    between atoms: C_1  and  N_2
REMARK    2  A    between atoms: N_2  and  C_3
REMARK    3  A    between atoms: C_3  and  C_4
REMARK    4  A    between atoms: C_4  and  N_5
REMARK    5  A    between atoms: C_11  and  C_13
REMARK    6  A    between atoms: C_15  and  C_16
REMARK    7  A    between atoms: C_16  and  O_17
REMARK    8  A    between atoms: O_17  and  C_18
REMARK                            x       y       z     vdW  Elec       q    Type
REMARK                         _______ _______ _______ _____ _____    ______ ____
ROOT
ATOM      1  C   UNL     1       7.417   6.699  17.544  0.00  0.00    +0.000 A 
ATOM      2  C   UNL     1       7.453   8.077  17.179  0.00  0.00    +0.000 A 
ATOM      3  C   UNL     1       8.268   8.667  18.113  0.00  0.00    +0.000 A 
ATOM      4  O   UNL     1       8.648   7.739  19.020  0.00  0.00    +0.000 OA
ATOM      5  N   UNL     1       8.107   6.531  18.683  0.00  0.00    +0.000 NA
ENDROOT
BRANCH   1   8
ATOM      6  C   UNL     1       5.092   3.876  16.450  0.00  0.00    +0.000 C 
ATOM      7  N   UNL     1       5.704   4.845  17.345  0.00  0.00    +0.000 N 
ATOM      8  C   UNL     1       6.756   5.615  16.781  0.00  0.00    +0.000 C 
ATOM      9  O   UNL     1       7.160   5.362  15.640  0.00  0.00    +0.000 OA
BRANCH   7  10
ATOM     10  C   UNL     1       5.006   5.245  18.572  0.00  0.00    +0.000 C 
BRANCH  10  11
ATOM     11  C   UNL     1       3.885   4.348  19.119  0.00  0.00    +0.000 C 
BRANCH  11  12
ATOM     12  N   UNL     1       2.537   4.961  19.025  0.00  0.00    +0.000 NA
ATOM     13  C   UNL     1       1.763   4.956  20.291  0.00  0.00    +0.000 C 
ATOM     14  C   UNL     1       1.335   3.549  20.737  0.00  0.00    +0.000 C 
ATOM     15  O   UNL     1       0.552   2.905  19.723  0.00  0.00    +0.000 OA
ATOM     16  C   UNL     1       1.254   2.856  18.474  0.00  0.00    +0.000 C 
ATOM     17  C   UNL     1       1.715   4.253  18.016  0.00  0.00    +0.000 C 
ENDBRANCH  11  12
ENDBRANCH  10  11
ENDBRANCH   7  10
ENDBRANCH   1   8
BRANCH   3  18
ATOM     18  C   UNL     1       8.793  10.024  18.341  0.00  0.00    +0.000 C 
BRANCH  18  19
ATOM     19  O   UNL     1       9.162  10.066  19.713  0.00  0.00    +0.000 OA
BRANCH  19  20
ATOM     20  C   UNL     1       9.508  11.283  20.224  0.00  0.00    +0.000 A 
ATOM     21  C   UNL     1       9.097  11.804  21.453  0.00  0.00    +0.000 A 
ATOM     22  C   UNL     1       9.546  13.061  21.862  0.00  0.00    +0.000 A 
ATOM     23  C   UNL     1      10.397  13.792  21.040  0.00  0.00    +0.000 A 
ATOM     24  F   UNL     1      10.827  14.993  21.444  0.00  0.00    +0.000 F 
ATOM     25  C   UNL     1      10.795  13.279  19.812  0.00  0.00    +0.000 A 
ATOM     26  F   UNL     1      11.611  13.985  19.021  0.00  0.00    +0.000 F 
ATOM     27  C   UNL     1      10.352  12.030  19.398  0.00  0.00    +0.000 A 
ENDBRANCH  19  20
ENDBRANCH  18  19
ENDBRANCH   3  18
TORSDOF 7
ENDMDL
MODEL 7
REMARK VINA RESULT:      -7.6      5.652      8.622
REMARK  Name = 
REMARK  8 active torsions:
REMARK  status: ('A' for Active; 'I' for Inactive)
REMARK    1  A    between atoms: C_1  and  N_2
REMARK    2  A    between atoms: N_2  and  C_3
REMARK    3  A    between atoms: C_3  and  C_4
REMARK    4  A    between atoms: C_4  and  N_5
REMARK    5  A    between atoms: C_11  and  C_13
REMARK    6  A    between atoms: C_15  and  C_16
REMARK    7  A    between atoms: C_16  and  O_17
REMARK    8  A    between atoms: O_17  and  C_18
REMARK                            x       y       z     vdW  Elec       q    Type
REMARK                         _______ _______ _______ _____ _____    ______ ____
ROOT
ATOM      1  C   UNL     1       2.151   5.325  19.032  0.00  0.00    +0.000 A 
ATOM      2  C   UNL     1       1.808   5.725  20.358  0.00  0.00    +0.000 A 
ATOM      3  C   UNL     1       1.783   7.097  20.315  0.00  0.00    +0.000 A 
ATOM      4  O   UNL     1       2.147   7.510  19.080  0.00  0.00    +0.000 OA
ATOM      5  N   UNL     1       2.395   6.420  18.295  0.00  0.00    +0.000 NA
ENDROOT
BRANCH   1   8
ATOM      6  C   UNL     1       3.299   1.817  18.061  0.00  0.00    +0.000 C 
ATOM      7  N   UNL     1       3.417   3.200  18.494  0.00  0.00    +0.000 N 
ATOM      8  C   UNL     1       2.201   3.932  18.531  0.00  0.00    +0.000 C 
ATOM      9  O   UNL     1       1.160   3.417  18.107  0.00  0.00    +0.000 OA
BRANCH   7  10
ATOM     10  C   UNL     1       4.623   3.639  19.205  0.00  0.00    +0.000 C 
BRANCH  10  11
ATOM     11  C   UNL     1       5.753   4.313  18.411  0.00  0.00    +0.000 C 
BRANCH  11  12
ATOM     12  N   UNL     1       5.270   5.172  17.303  0.00  0.00    +0.000 NA
ATOM     13  C   UNL     1       5.601   4.677  15.944  0.00  0.00    +0.000 C 
ATOM     14  C   UNL     1       7.103   4.732  15.626  0.00  0.00    +0.000 C 
ATOM     15  O   UNL     1       7.607   6.068  15.758  0.00  0.00    +0.000 OA
ATOM     16  C   UNL     1       7.339   6.599  17.062  0.00  0.00    +0.000 C 
ATOM     17  C   UNL     1       5.841   6.534  17.415  0.00  0.00    +0.000 C 
ENDBRANCH  11  12
ENDBRANCH  10  11
ENDBRANCH   7  10
ENDBRANCH   1   8
BRANCH   3  18
ATOM     18  C   UNL     1       1.467   8.171  21.272  0.00  0.00    +0.000 C 
BRANCH  18  19
ATOM     19  O   UNL     1       0.755   9.150  20.526  0.00  0.00    +0.000 OA
BRANCH  19  20
ATOM     20  C   UNL     1      -0.055   9.994  21.228  0.00  0.00    +0.000 A 
ATOM     21  C   UNL     1      -0.373   9.886  22.584  0.00  0.00    +0.000 A 
ATOM     22  C   UNL     1      -1.203  10.836  23.182  0.00  0.00    +0.000 A 
ATOM     23  C   UNL     1      -1.714  11.884  22.424  0.00  0.00    +0.000 A 
ATOM     24  F   UNL     1      -2.503  12.792  23.008  0.00  0.00    +0.000 F 
ATOM     25  C   UNL     1      -1.408  11.983  21.072  0.00  0.00    +0.000 A 
ATOM     26  F   UNL     1      -1.902  12.990  20.342  0.00  0.00    +0.000 F 
ATOM     27  C   UNL     1      -0.584  11.042  20.470  0.00  0.00    +0.000 A 
ENDBRANCH  19  20
ENDBRANCH  18  19
ENDBRANCH   3  18
TORSDOF 7
ENDMDL
MODEL 8
REMARK VINA RESULT:      -7.6      5.227      8.379
REMARK  Name = 
REMARK  8 active torsions:
REMARK  status: ('A' for Active; 'I' for Inactive)
REMARK    1  A    between atoms: C_1  and  N_2
REMARK    2  A    between atoms: N_2  and  C_3
REMARK    3  A    between atoms: C_3  and  C_4
REMARK    4  A    between atoms: C_4  and  N_5
REMARK    5  A    between atoms: C_11  and  C_13
REMARK    6  A    between atoms: C_15  and  C_16
REMARK    7  A    between atoms: C_16  and  O_17
REMARK    8  A    between atoms: O_17  and  C_18
REMARK                            x       y       z     vdW  Elec       q    Type
REMARK                         _______ _______ _______ _____ _____    ______ ____
ROOT
ATOM      1  C   UNL     1       2.005   4.529  19.598  0.00  0.00    +0.000 A 
ATOM      2  C   UNL     1       2.055   5.800  18.955  0.00  0.00    +0.000 A 
ATOM      3  C   UNL     1       1.818   6.710  19.955  0.00  0.00    +0.000 A 
ATOM      4  O   UNL     1       1.576   6.047  21.109  0.00  0.00    +0.000 OA
ATOM      5  N   UNL     1       1.669   4.703  20.885  0.00  0.00    +0.000 NA
ENDROOT
BRANCH   1   8
ATOM      6  C   UNL     1       3.790   1.473  18.167  0.00  0.00    +0.000 C 
ATOM      7  N   UNL     1       3.643   2.814  18.709  0.00  0.00    +0.000 N 
ATOM      8  C   UNL     1       2.307   3.223  18.966  0.00  0.00    +0.000 C 
ATOM      9  O   UNL     1       1.365   2.496  18.629  0.00  0.00    +0.000 OA
BRANCH   7  10
ATOM     10  C   UNL     1       4.801   3.491  19.302  0.00  0.00    +0.000 C 
BRANCH  10  11
ATOM     11  C   UNL     1       5.418   4.693  18.570  0.00  0.00    +0.000 C 
BRANCH  11  12
ATOM     12  N   UNL     1       6.872   4.552  18.318  0.00  0.00    +0.000 NA
ATOM     13  C   UNL     1       7.692   5.714  18.743  0.00  0.00    +0.000 C 
ATOM     14  C   UNL     1       7.444   6.975  17.900  0.00  0.00    +0.000 C 
ATOM     15  O   UNL     1       7.699   6.723  16.512  0.00  0.00    +0.000 OA
ATOM     16  C   UNL     1       6.917   5.621  16.030  0.00  0.00    +0.000 C 
ATOM     17  C   UNL     1       7.131   4.350  16.874  0.00  0.00    +0.000 C 
ENDBRANCH  11  12
ENDBRANCH  10  11
ENDBRANCH   7  10
ENDBRANCH   1   8
BRANCH   3  18
ATOM     18  C   UNL     1       1.767   8.179  20.049  0.00  0.00    +0.000 C 
BRANCH  18  19
ATOM     19  O   UNL     1       1.600   8.468  21.430  0.00  0.00    +0.000 OA
BRANCH  19  20
ATOM     20  C   UNL     1       0.657   9.399  21.757  0.00  0.00    +0.000 A 
ATOM     21  C   UNL     1      -0.050   9.463  22.961  0.00  0.00    +0.000 A 
ATOM     22  C   UNL     1      -0.975  10.486  23.171  0.00  0.00    +0.000 A 
ATOM     23  C   UNL     1      -1.195  11.435  22.178  0.00  0.00    +0.000 A 
ATOM     24  F   UNL     1      -2.080  12.415  22.392  0.00  0.00    +0.000 F 
ATOM     25  C   UNL     1      -0.502  11.363  20.976  0.00  0.00    +0.000 A 
ATOM     26  F   UNL     1      -0.716  12.274  20.020  0.00  0.00    +0.000 F 
ATOM     27  C   UNL     1       0.420  10.348  20.759  0.00  0.00    +0.000 A 
ENDBRANCH  19  20
ENDBRANCH  18  19
ENDBRANCH   3  18
TORSDOF 7
ENDMDL
MODEL 9
REMARK VINA RESULT:      -7.5      1.603      2.215
REMARK  Name = 
REMARK  8 active torsions:
REMARK  status: ('A' for Active; 'I' for Inactive)
REMARK    1  A    between atoms: C_1  and  N_2
REMARK    2  A    between atoms: N_2  and  C_3
REMARK    3  A    between atoms: C_3  and  C_4
REMARK    4  A    between atoms: C_4  and  N_5
REMARK    5  A    between atoms: C_11  and  C_13
REMARK    6  A    between atoms: C_15  and  C_16
REMARK    7  A    between atoms: C_16  and  O_17
REMARK    8  A    between atoms: O_17  and  C_18
REMARK                            x       y       z     vdW  Elec       q    Type
REMARK                         _______ _______ _______ _____ _____    ______ ____
ROOT
ATOM      1  C   UNL     1       7.440   6.727  17.507  0.00  0.00    +0.000 A 
ATOM      2  C   UNL     1       7.462   8.103  17.133  0.00  0.00    +0.000 A 
ATOM      3  C   UNL     1       8.250   8.712  18.078  0.00  0.00    +0.000 A 
ATOM      4  O   UNL     1       8.628   7.796  18.998  0.00  0.00    +0.000 OA
ATOM      5  N   UNL     1       8.112   6.577  18.660  0.00  0.00    +0.000 NA
ENDROOT
BRANCH   1   8
ATOM      6  C   UNL     1       5.212   3.827  16.413  0.00  0.00    +0.000 C 
ATOM      7  N   UNL     1       5.800   4.808  17.312  0.00  0.00    +0.000 N 
ATOM      8  C   UNL     1       6.810   5.627  16.740  0.00  0.00    +0.000 C 
ATOM      9  O   UNL     1       7.203   5.407  15.589  0.00  0.00    +0.000 OA
BRANCH   7  10
ATOM     10  C   UNL     1       5.109   5.162  18.556  0.00  0.00    +0.000 C 
BRANCH  10  11
ATOM     11  C   UNL     1       3.585   4.990  18.638  0.00  0.00    +0.000 C 
BRANCH  11  12
ATOM     12  N   UNL     1       3.136   4.239  19.836  0.00  0.00    +0.000 NA
ATOM     13  C   UNL     1       3.683   2.864  19.948  0.00  0.00    +0.000 C 
ATOM     14  C   UNL     1       3.146   1.906  18.873  0.00  0.00    +0.000 C 
ATOM     15  O   UNL     1       1.715   1.831  18.921  0.00  0.00    +0.000 OA
ATOM     16  C   UNL     1       1.120   3.129  18.795  0.00  0.00    +0.000 C 
ATOM     17  C   UNL     1       1.660   4.116  19.848  0.00  0.00    +0.000 C 
ENDBRANCH  11  12
ENDBRANCH  10  11
ENDBRANCH   7  10
ENDBRANCH   1   8
BRANCH   3  18
ATOM     18  C   UNL     1       8.751  10.078  18.305  0.00  0.00    +0.000 C 
BRANCH  18  19
ATOM     19  O   UNL     1       9.298  10.071  19.617  0.00  0.00    +0.000 OA
BRANCH  19  20
ATOM     20  C   UNL     1       9.666  11.276  20.140  0.00  0.00    +0.000 A 
ATOM     21  C   UNL     1      10.565  12.179  19.565  0.00  0.00    +0.000 A 
ATOM     22  C   UNL     1      10.836  13.391  20.202  0.00  0.00    +0.000 A 
ATOM     23  C   UNL     1      10.215  13.693  21.409  0.00  0.00    +0.000 A 
ATOM     24  F   UNL     1      10.477  14.861  22.008  0.00  0.00    +0.000 F 
ATOM     25  C   UNL     1       9.332  12.789  21.986  0.00  0.00    +0.000 A 
ATOM     26  F   UNL     1       8.737  13.079  23.149  0.00  0.00    +0.000 F 
ATOM     27  C   UNL     1       9.057  11.581  21.360  0.00  0.00    +0.000 A 
ENDBRANCH  19  20
ENDBRANCH  18  19
ENDBRANCH   3  18
TORSDOF 7
ENDMDL
