MODEL 1
REMARK VINA RESULT:      -8.0      0.000      0.000
REMARK  Name = 
REMARK  6 active torsions:
REMARK  status: ('A' for Active; 'I' for Inactive)
REMARK    1  A    between atoms: O_1  and  N_2
REMARK    2  A    between atoms: C_3  and  C_4
REMARK    3  A    between atoms: N_5  and  C_6
REMARK    4  A    between atoms: C_6  and  C_7
REMARK    5  A    between atoms: N_15  and  C_16
REMARK    6  A    between atoms: C_16  and  C_17
REMARK                            x       y       z     vdW  Elec       q    Type
REMARK                         _______ _______ _______ _____ _____    ______ ____
ROOT
ATOM      1  C   UNL     1       4.991   5.218  18.061  0.00  0.00    +0.000 A 
ATOM      2  N   UNL     1       5.677   5.427  16.902  0.00  0.00    +0.000 N 
ATOM      3  C   UNL     1       5.199   6.561  16.263  0.00  0.00    +0.000 A 
ATOM      4  C   UNL     1       4.194   7.057  17.032  0.00  0.00    +0.000 A 
ATOM      5  N   UNL     1       4.067   6.216  18.123  0.00  0.00    +0.000 N 
ENDROOT
BRANCH   1   7
ATOM      6  N   UNL     1       4.780   2.992  18.962  0.00  0.00    +0.000 NA
ATOM      7  C   UNL     1       5.234   4.207  19.014  0.00  0.00    +0.000 C 
BRANCH   6   8
ATOM      8  O   UNL     1       5.206   2.289  20.093  0.00  0.00    +0.000 OA
ATOM      9  H   UNL     1       4.788   1.410  19.984  0.00  0.00    +0.000 HD
ENDBRANCH   6   8
ENDBRANCH   1   7
BRANCH   2  10
ATOM     10  C   UNL     1       6.833   4.646  16.438  0.00  0.00    +0.000 C 
BRANCH  10  11
ATOM     11  C   UNL     1       6.828   4.545  14.935  0.00  0.00    +0.000 A 
ATOM     12  C   UNL     1       7.737   5.283  14.159  0.00  0.00    +0.000 A 
ATOM     13  C   UNL     1       7.767   5.147  12.770  0.00  0.00    +0.000 A 
ATOM     14  C   UNL     1       6.892   4.268  12.137  0.00  0.00    +0.000 A 
ATOM     15  C   UNL     1       5.988   3.526  12.892  0.00  0.00    +0.000 A 
ATOM     16  C   UNL     1       5.956   3.659  14.282  0.00  0.00    +0.000 A 
ENDBRANCH  10  11
ENDBRANCH   2  10
BRANCH   5  17
ATOM     17  C   UNL     1       3.070   6.405  19.190  0.00  0.00    +0.000 C 
BRANCH  17  18
ATOM     18  C   UNL     1       2.216   5.170  19.323  0.00  0.00    +0.000 A 
ATOM     19  C   UNL     1       1.724   4.501  18.191  0.00  0.00    +0.000 A 
ATOM     20  C   UNL     1       0.983   3.324  18.324  0.00  0.00    +0.000 A 
ATOM     21  C   UNL     1       0.721   2.803  19.588  0.00  0.00    +0.000 A 
ATOM     22  C   UNL     1       1.189   3.463  20.722  0.00  0.00    +0.000 A 
ATOM     23  C   UNL     1       1.925   4.642  20.592  0.00  0.00    +0.000 A 
ENDBRANCH  17  18
ENDBRANCH   5  17
TORSDOF 6
ENDMDL
MODEL 2
REMARK VINA RESULT:      -7.9      0.112      6.274
REMARK  Name = 
REMARK  6 active torsions:
REMARK  status: ('A' for Active; 'I' for Inactive)
REMARK    1  A    between atoms: O_1  and  N_2
REMARK    2  A    between atoms: C_3  and  C_4
REMARK    3  A    between atoms: N_5  and  C_6
REMARK    4  A    between atoms: C_6  and  C_7
REMARK    5  A    between atoms: N_15  and  C_16
REMARK    6  A    between atoms: C_16  and  C_17
REMARK                            x       y       z     vdW  Elec       q    Type
REMARK                         _______ _______ _______ _____ _____    ______ ____
ROOT
ATOM      1  C   UNL     1       5.069   5.259  18.171  0.00  0.00    +0.000 A 
ATOM      2  N   UNL     1       4.121   6.238  18.220  0.00  0.00    +0.000 N 
ATOM      3  C   UNL     1       4.195   7.029  17.083  0.00  0.00    +0.000 A 
ATOM      4  C   UNL     1       5.210   6.540  16.323  0.00  0.00    +0.000 A 
ATOM      5  N   UNL     1       5.747   5.465  17.008  0.00  0.00    +0.000 N 
ENDROOT
BRANCH   1   7
ATOM      6  N   UNL     1       4.856   2.998  18.978  0.00  0.00    +0.000 NA
ATOM      7  C   UNL     1       5.261   4.224  19.109  0.00  0.00    +0.000 C 
BRANCH   6   8
ATOM      8  O   UNL     1       5.205   2.269  20.120  0.00  0.00    +0.000 OA
ATOM      9  H   UNL     1       4.354   2.170  20.594  0.00  0.00    +0.000 HD
ENDBRANCH   6   8
ENDBRANCH   1   7
BRANCH   2  10
ATOM     10  C   UNL     1       3.089   6.380  19.257  0.00  0.00    +0.000 C 
BRANCH  10  11
ATOM     11  C   UNL     1       2.235   5.141  19.321  0.00  0.00    +0.000 A 
ATOM     12  C   UNL     1       1.795   4.508  18.147  0.00  0.00    +0.000 A 
ATOM     13  C   UNL     1       1.049   3.329  18.207  0.00  0.00    +0.000 A 
ATOM     14  C   UNL     1       0.738   2.764  19.441  0.00  0.00    +0.000 A 
ATOM     15  C   UNL     1       1.170   3.377  20.614  0.00  0.00    +0.000 A 
ATOM     16  C   UNL     1       1.916   4.556  20.557  0.00  0.00    +0.000 A 
ENDBRANCH  10  11
ENDBRANCH   2  10
BRANCH   5  17
ATOM     17  C   UNL     1       6.886   4.670  16.520  0.00  0.00    +0.000 C 
BRANCH  17  18
ATOM     18  C   UNL     1       6.825   4.548  15.019  0.00  0.00    +0.000 A 
ATOM     19  C   UNL     1       7.729   5.240  14.197  0.00  0.00    +0.000 A 
ATOM     20  C   UNL     1       7.701   5.074  12.810  0.00  0.00    +0.000 A 
ATOM     21  C   UNL     1       6.771   4.217  12.227  0.00  0.00    +0.000 A 
ATOM     22  C   UNL     1       5.858   3.535  13.027  0.00  0.00    +0.000 A 
ATOM     23  C   UNL     1       5.880   3.704  14.414  0.00  0.00    +0.000 A 
ENDBRANCH  17  18
ENDBRANCH   5  17
TORSDOF 6
ENDMDL
MODEL 3
REMARK VINA RESULT:      -7.9      0.120      1.034
REMARK  Name = 
REMARK  6 active torsions:
REMARK  status: ('A' for Active; 'I' for Inactive)
REMARK    1  A    between atoms: O_1  and  N_2
REMARK    2  A    between atoms: C_3  and  C_4
REMARK    3  A    between atoms: N_5  and  C_6
REMARK    4  A    between atoms: C_6  and  C_7
REMARK    5  A    between atoms: N_15  and  C_16
REMARK    6  A    between atoms: C_16  and  C_17
REMARK                            x       y       z     vdW  Elec       q    Type
REMARK                         _______ _______ _______ _____ _____    ______ ____
ROOT
ATOM      1  C   UNL     1       5.029   5.240  18.110  0.00  0.00    +0.000 A 
ATOM      2  N   UNL     1       5.749   5.480  16.978  0.00  0.00    +0.000 N 
ATOM      3  C   UNL     1       5.281   6.625  16.350  0.00  0.00    +0.000 A 
ATOM      4  C   UNL     1       4.249   7.096  17.099  0.00  0.00    +0.000 A 
ATOM      5  N   UNL     1       4.096   6.230  18.166  0.00  0.00    +0.000 N 
ENDROOT
BRANCH   1   7
ATOM      6  N   UNL     1       4.810   2.992  18.953  0.00  0.00    +0.000 NA
ATOM      7  C   UNL     1       5.250   4.210  19.048  0.00  0.00    +0.000 C 
BRANCH   6   8
ATOM      8  O   UNL     1       5.206   2.267  20.081  0.00  0.00    +0.000 OA
ATOM      9  H   UNL     1       4.502   1.592  20.175  0.00  0.00    +0.000 HD
ENDBRANCH   6   8
ENDBRANCH   1   7
BRANCH   2  10
ATOM     10  C   UNL     1       6.925   4.718  16.533  0.00  0.00    +0.000 C 
BRANCH  10  11
ATOM     11  C   UNL     1       6.880   4.510  15.041  0.00  0.00    +0.000 A 
ATOM     12  C   UNL     1       5.923   3.662  14.460  0.00  0.00    +0.000 A 
ATOM     13  C   UNL     1       5.849   3.513  13.074  0.00  0.00    +0.000 A 
ATOM     14  C   UNL     1       6.725   4.214  12.249  0.00  0.00    +0.000 A 
ATOM     15  C   UNL     1       7.677   5.062  12.809  0.00  0.00    +0.000 A 
ATOM     16  C   UNL     1       7.754   5.213  14.196  0.00  0.00    +0.000 A 
ENDBRANCH  10  11
ENDBRANCH   2  10
BRANCH   5  17
ATOM     17  C   UNL     1       3.064   6.386  19.205  0.00  0.00    +0.000 C 
BRANCH  17  18
ATOM     18  C   UNL     1       2.215   5.143  19.282  0.00  0.00    +0.000 A 
ATOM     19  C   UNL     1       1.756   4.504  18.120  0.00  0.00    +0.000 A 
ATOM     20  C   UNL     1       1.019   3.320  18.202  0.00  0.00    +0.000 A 
ATOM     21  C   UNL     1       0.730   2.762  19.444  0.00  0.00    +0.000 A 
ATOM     22  C   UNL     1       1.165   3.392  20.607  0.00  0.00    +0.000 A 
ATOM     23  C   UNL     1       1.897   4.579  20.528  0.00  0.00    +0.000 A 
ENDBRANCH  17  18
ENDBRANCH   5  17
TORSDOF 6
ENDMDL
MODEL 4
REMARK VINA RESULT:      -7.8      0.063      6.311
REMARK  Name = 
REMARK  6 active torsions:
REMARK  status: ('A' for Active; 'I' for Inactive)
REMARK    1  A    between atoms: O_1  and  N_2
REMARK    2  A    between atoms: C_3  and  C_4
REMARK    3  A    between atoms: N_5  and  C_6
REMARK    4  A    between atoms: C_6  and  C_7
REMARK    5  A    between atoms: N_15  and  C_16
REMARK    6  A    between atoms: C_16  and  C_17
REMARK                            x       y       z     vdW  Elec       q    Type
REMARK                         _______ _______ _______ _____ _____    ______ ____
ROOT
ATOM      1  C   UNL     1       5.075   5.274  18.100  0.00  0.00    +0.000 A 
ATOM      2  N   UNL     1       4.127   6.253  18.139  0.00  0.00    +0.000 N 
ATOM      3  C   UNL     1       4.200   7.034  16.995  0.00  0.00    +0.000 A 
ATOM      4  C   UNL     1       5.216   6.538  16.239  0.00  0.00    +0.000 A 
ATOM      5  N   UNL     1       5.753   5.469  16.935  0.00  0.00    +0.000 N 
ENDROOT
BRANCH   1   7
ATOM      6  N   UNL     1       4.854   3.023  18.932  0.00  0.00    +0.000 NA
ATOM      7  C   UNL     1       5.267   4.248  19.048  0.00  0.00    +0.000 C 
BRANCH   6   8
ATOM      8  O   UNL     1       5.206   2.304  20.079  0.00  0.00    +0.000 OA
ATOM      9  H   UNL     1       6.183   2.255  20.024  0.00  0.00    +0.000 HD
ENDBRANCH   6   8
ENDBRANCH   1   7
BRANCH   2  10
ATOM     10  C   UNL     1       3.094   6.405  19.175  0.00  0.00    +0.000 C 
BRANCH  10  11
ATOM     11  C   UNL     1       2.290   5.138  19.303  0.00  0.00    +0.000 A 
ATOM     12  C   UNL     1       1.975   4.608  20.565  0.00  0.00    +0.000 A 
ATOM     13  C   UNL     1       1.183   3.464  20.683  0.00  0.00    +0.000 A 
ATOM     14  C   UNL     1       0.691   2.837  19.541  0.00  0.00    +0.000 A 
ATOM     15  C   UNL     1       0.990   3.351  18.283  0.00  0.00    +0.000 A 
ATOM     16  C   UNL     1       1.781   4.496  18.162  0.00  0.00    +0.000 A 
ENDBRANCH  10  11
ENDBRANCH   2  10
BRANCH   5  17
ATOM     17  C   UNL     1       6.892   4.670  16.455  0.00  0.00    +0.000 C 
BRANCH  17  18
ATOM     18  C   UNL     1       6.847   4.557  14.953  0.00  0.00    +0.000 A 
ATOM     19  C   UNL     1       7.728   5.291  14.142  0.00  0.00    +0.000 A 
ATOM     20  C   UNL     1       7.717   5.134  12.754  0.00  0.00    +0.000 A 
ATOM     21  C   UNL     1       6.826   4.244  12.158  0.00  0.00    +0.000 A 
ATOM     22  C   UNL     1       5.936   3.520  12.947  0.00  0.00    +0.000 A 
ATOM     23  C   UNL     1       5.941   3.679  14.335  0.00  0.00    +0.000 A 
ENDBRANCH  17  18
ENDBRANCH   5  17
TORSDOF 6
ENDMDL
MODEL 5
REMARK VINA RESULT:      -7.8      0.130      1.035
REMARK  Name = 
REMARK  6 active torsions:
REMARK  status: ('A' for Active; 'I' for Inactive)
REMARK    1  A    between atoms: O_1  and  N_2
REMARK    2  A    between atoms: C_3  and  C_4
REMARK    3  A    between atoms: N_5  and  C_6
REMARK    4  A    between atoms: C_6  and  C_7
REMARK    5  A    between atoms: N_15  and  C_16
REMARK    6  A    between atoms: C_16  and  C_17
REMARK                            x       y       z     vdW  Elec       q    Type
REMARK                         _______ _______ _______ _____ _____    ______ ____
ROOT
ATOM      1  C   UNL     1       4.971   5.125  18.089  0.00  0.00    +0.000 A 
ATOM      2  N   UNL     1       5.646   5.341  16.925  0.00  0.00    +0.000 N 
ATOM      3  C   UNL     1       5.163   6.481  16.299  0.00  0.00    +0.000 A 
ATOM      4  C   UNL     1       4.167   6.973  17.082  0.00  0.00    +0.000 A 
ATOM      5  N   UNL     1       4.049   6.124  18.168  0.00  0.00    +0.000 N 
ENDROOT
BRANCH   1   7
ATOM      6  N   UNL     1       4.816   2.875  18.943  0.00  0.00    +0.000 NA
ATOM      7  C   UNL     1       5.220   4.106  19.032  0.00  0.00    +0.000 C 
BRANCH   6   8
ATOM      8  O   UNL     1       5.232   2.168  20.075  0.00  0.00    +0.000 OA
ATOM      9  H   UNL     1       5.704   2.844  20.604  0.00  0.00    +0.000 HD
ENDBRANCH   6   8
ENDBRANCH   1   7
BRANCH   2  10
ATOM     10  C   UNL     1       6.796   4.562  16.444  0.00  0.00    +0.000 C 
BRANCH  10  11
ATOM     11  C   UNL     1       6.790   4.494  14.939  0.00  0.00    +0.000 A 
ATOM     12  C   UNL     1       7.715   5.230  14.180  0.00  0.00    +0.000 A 
ATOM     13  C   UNL     1       7.743   5.124  12.788  0.00  0.00    +0.000 A 
ATOM     14  C   UNL     1       6.851   4.277  12.136  0.00  0.00    +0.000 A 
ATOM     15  C   UNL     1       5.931   3.537  12.873  0.00  0.00    +0.000 A 
ATOM     16  C   UNL     1       5.901   3.641  14.266  0.00  0.00    +0.000 A 
ENDBRANCH  10  11
ENDBRANCH   2  10
BRANCH   5  17
ATOM     17  C   UNL     1       3.062   6.306  19.245  0.00  0.00    +0.000 C 
BRANCH  17  18
ATOM     18  C   UNL     1       2.261   5.042  19.431  0.00  0.00    +0.000 A 
ATOM     19  C   UNL     1       2.065   4.487  20.705  0.00  0.00    +0.000 A 
ATOM     20  C   UNL     1       1.272   3.349  20.873  0.00  0.00    +0.000 A 
ATOM     21  C   UNL     1       0.667   2.751  19.770  0.00  0.00    +0.000 A 
ATOM     22  C   UNL     1       0.864   3.280  18.498  0.00  0.00    +0.000 A 
ATOM     23  C   UNL     1       1.661   4.415  18.327  0.00  0.00    +0.000 A 
ENDBRANCH  17  18
ENDBRANCH   5  17
TORSDOF 6
ENDMDL
MODEL 6
REMARK VINA RESULT:      -7.8      0.105      1.458
REMARK  Name = 
REMARK  6 active torsions:
REMARK  status: ('A' for Active; 'I' for Inactive)
REMARK    1  A    between atoms: O_1  and  N_2
REMARK    2  A    between atoms: C_3  and  C_4
REMARK    3  A    between atoms: N_5  and  C_6
REMARK    4  A    between atoms: C_6  and  C_7
REMARK    5  A    between atoms: N_15  and  C_16
REMARK    6  A    between atoms: C_16  and  C_17
REMARK                            x       y       z     vdW  Elec       q    Type
REMARK                         _______ _______ _______ _____ _____    ______ ____
ROOT
ATOM      1  C   UNL     1       5.008   5.241  18.111  0.00  0.00    +0.000 A 
ATOM      2  N   UNL     1       5.725   5.483  16.978  0.00  0.00    +0.000 N 
ATOM      3  C   UNL     1       5.242   6.617  16.341  0.00  0.00    +0.000 A 
ATOM      4  C   UNL     1       4.203   7.079  17.086  0.00  0.00    +0.000 A 
ATOM      5  N   UNL     1       4.061   6.217  18.159  0.00  0.00    +0.000 N 
ENDROOT
BRANCH   1   7
ATOM      6  N   UNL     1       4.822   2.994  18.966  0.00  0.00    +0.000 NA
ATOM      7  C   UNL     1       5.243   4.220  19.055  0.00  0.00    +0.000 C 
BRANCH   6   8
ATOM      8  O   UNL     1       5.227   2.282  20.100  0.00  0.00    +0.000 OA
ATOM      9  H   UNL     1       4.421   1.786  20.355  0.00  0.00    +0.000 HD
ENDBRANCH   6   8
ENDBRANCH   1   7
BRANCH   2  10
ATOM     10  C   UNL     1       6.912   4.735  16.538  0.00  0.00    +0.000 C 
BRANCH  10  11
ATOM     11  C   UNL     1       6.879   4.530  15.046  0.00  0.00    +0.000 A 
ATOM     12  C   UNL     1       5.932   3.676  14.456  0.00  0.00    +0.000 A 
ATOM     13  C   UNL     1       5.867   3.530  13.069  0.00  0.00    +0.000 A 
ATOM     14  C   UNL     1       6.745   4.238  12.252  0.00  0.00    +0.000 A 
ATOM     15  C   UNL     1       7.686   5.091  12.820  0.00  0.00    +0.000 A 
ATOM     16  C   UNL     1       7.753   5.240  14.207  0.00  0.00    +0.000 A 
ENDBRANCH  10  11
ENDBRANCH   2  10
BRANCH   5  17
ATOM     17  C   UNL     1       3.026   6.366  19.196  0.00  0.00    +0.000 C 
BRANCH  17  18
ATOM     18  C   UNL     1       2.235   5.090  19.324  0.00  0.00    +0.000 A 
ATOM     19  C   UNL     1       1.939   4.541  20.583  0.00  0.00    +0.000 A 
ATOM     20  C   UNL     1       1.155   3.390  20.692  0.00  0.00    +0.000 A 
ATOM     21  C   UNL     1       0.659   2.772  19.547  0.00  0.00    +0.000 A 
ATOM     22  C   UNL     1       0.956   3.295  18.291  0.00  0.00    +0.000 A 
ATOM     23  C   UNL     1       1.744   4.442  18.179  0.00  0.00    +0.000 A 
ENDBRANCH  17  18
ENDBRANCH   5  17
TORSDOF 6
ENDMDL
MODEL 7
REMARK VINA RESULT:      -7.6      0.476      6.135
REMARK  Name = 
REMARK  6 active torsions:
REMARK  status: ('A' for Active; 'I' for Inactive)
REMARK    1  A    between atoms: O_1  and  N_2
REMARK    2  A    between atoms: C_3  and  C_4
REMARK    3  A    between atoms: N_5  and  C_6
REMARK    4  A    between atoms: C_6  and  C_7
REMARK    5  A    between atoms: N_15  and  C_16
REMARK    6  A    between atoms: C_16  and  C_17
REMARK                            x       y       z     vdW  Elec       q    Type
REMARK                         _______ _______ _______ _____ _____    ______ ____
ROOT
ATOM      1  C   UNL     1       4.929   5.443  18.477  0.00  0.00    +0.000 A 
ATOM      2  N   UNL     1       3.917   6.354  18.519  0.00  0.00    +0.000 N 
ATOM      3  C   UNL     1       4.013   7.222  17.440  0.00  0.00    +0.000 A 
ATOM      4  C   UNL     1       5.106   6.848  16.725  0.00  0.00    +0.000 A 
ATOM      5  N   UNL     1       5.667   5.766  17.379  0.00  0.00    +0.000 N 
ENDROOT
BRANCH   1   7
ATOM      6  N   UNL     1       4.883   3.114  19.099  0.00  0.00    +0.000 NA
ATOM      7  C   UNL     1       5.128   4.362  19.361  0.00  0.00    +0.000 C 
BRANCH   6   8
ATOM      8  O   UNL     1       5.178   2.338  20.225  0.00  0.00    +0.000 OA
ATOM      9  H   UNL     1       4.336   2.337  20.726  0.00  0.00    +0.000 HD
ENDBRANCH   6   8
ENDBRANCH   1   7
BRANCH   2  10
ATOM     10  C   UNL     1       2.812   6.364  19.488  0.00  0.00    +0.000 C 
BRANCH  10  11
ATOM     11  C   UNL     1       2.070   5.054  19.450  0.00  0.00    +0.000 A 
ATOM     12  C   UNL     1       1.734   4.450  18.227  0.00  0.00    +0.000 A 
ATOM     13  C   UNL     1       1.095   3.209  18.194  0.00  0.00    +0.000 A 
ATOM     14  C   UNL     1       0.788   2.552  19.382  0.00  0.00    +0.000 A 
ATOM     15  C   UNL     1       1.118   3.134  20.602  0.00  0.00    +0.000 A 
ATOM     16  C   UNL     1       1.757   4.375  20.639  0.00  0.00    +0.000 A 
ENDBRANCH  10  11
ENDBRANCH   2  10
BRANCH   5  17
ATOM     17  C   UNL     1       6.886   5.077  16.924  0.00  0.00    +0.000 C 
BRANCH  17  18
ATOM     18  C   UNL     1       6.752   4.694  15.473  0.00  0.00    +0.000 A 
ATOM     19  C   UNL     1       5.732   3.831  15.040  0.00  0.00    +0.000 A 
ATOM     20  C   UNL     1       5.582   3.529  13.685  0.00  0.00    +0.000 A 
ATOM     21  C   UNL     1       6.448   4.081  12.746  0.00  0.00    +0.000 A 
ATOM     22  C   UNL     1       7.474   4.926  13.160  0.00  0.00    +0.000 A 
ATOM     23  C   UNL     1       7.631   5.226  14.515  0.00  0.00    +0.000 A 
ENDBRANCH  17  18
ENDBRANCH   5  17
TORSDOF 6
ENDMDL
MODEL 8
REMARK VINA RESULT:      -7.6      1.076      6.657
REMARK  Name = 
REMARK  6 active torsions:
REMARK  status: ('A' for Active; 'I' for Inactive)
REMARK    1  A    between atoms: O_1  and  N_2
REMARK    2  A    between atoms: C_3  and  C_4
REMARK    3  A    between atoms: N_5  and  C_6
REMARK    4  A    between atoms: C_6  and  C_7
REMARK    5  A    between atoms: N_15  and  C_16
REMARK    6  A    between atoms: C_16  and  C_17
REMARK                            x       y       z     vdW  Elec       q    Type
REMARK                         _______ _______ _______ _____ _____    ______ ____
ROOT
ATOM      1  C   UNL     1       4.187   4.554  17.280  0.00  0.00    +0.000 A 
ATOM      2  N   UNL     1       3.338   5.575  17.585  0.00  0.00    +0.000 N 
ATOM      3  C   UNL     1       3.958   6.795  17.355  0.00  0.00    +0.000 A 
ATOM      4  C   UNL     1       5.214   6.525  16.910  0.00  0.00    +0.000 A 
ATOM      5  N   UNL     1       5.346   5.148  16.883  0.00  0.00    +0.000 N 
ENDROOT
BRANCH   1   7
ATOM      6  N   UNL     1       4.177   2.369  18.298  0.00  0.00    +0.000 NA
ATOM      7  C   UNL     1       3.896   3.175  17.320  0.00  0.00    +0.000 C 
BRANCH   6   8
ATOM      8  O   UNL     1       3.760   1.075  17.968  0.00  0.00    +0.000 OA
ATOM      9  H   UNL     1       4.248   0.511  18.603  0.00  0.00    +0.000 HD
ENDBRANCH   6   8
ENDBRANCH   1   7
BRANCH   2  10
ATOM     10  C   UNL     1       1.932   5.430  17.988  0.00  0.00    +0.000 C 
BRANCH  10  11
ATOM     11  C   UNL     1       1.832   4.627  19.259  0.00  0.00    +0.000 A 
ATOM     12  C   UNL     1       1.051   3.461  19.315  0.00  0.00    +0.000 A 
ATOM     13  C   UNL     1       1.002   2.688  20.477  0.00  0.00    +0.000 A 
ATOM     14  C   UNL     1       1.739   3.067  21.597  0.00  0.00    +0.000 A 
ATOM     15  C   UNL     1       2.521   4.218  21.556  0.00  0.00    +0.000 A 
ATOM     16  C   UNL     1       2.572   4.992  20.395  0.00  0.00    +0.000 A 
ENDBRANCH  10  11
ENDBRANCH   2  10
BRANCH   5  17
ATOM     17  C   UNL     1       6.577   4.453  16.471  0.00  0.00    +0.000 C 
BRANCH  17  18
ATOM     18  C   UNL     1       6.688   4.444  14.968  0.00  0.00    +0.000 A 
ATOM     19  C   UNL     1       7.645   5.229  14.306  0.00  0.00    +0.000 A 
ATOM     20  C   UNL     1       7.778   5.169  12.916  0.00  0.00    +0.000 A 
ATOM     21  C   UNL     1       6.956   4.327  12.172  0.00  0.00    +0.000 A 
ATOM     22  C   UNL     1       5.992   3.554  12.812  0.00  0.00    +0.000 A 
ATOM     23  C   UNL     1       5.853   3.616  14.201  0.00  0.00    +0.000 A 
ENDBRANCH  17  18
ENDBRANCH   5  17
TORSDOF 6
ENDMDL
MODEL 9
REMARK VINA RESULT:      -7.5      1.048      6.588
REMARK  Name = 
REMARK  6 active torsions:
REMARK  status: ('A' for Active; 'I' for Inactive)
REMARK    1  A    between atoms: O_1  and  N_2
REMARK    2  A    between atoms: C_3  and  C_4
REMARK    3  A    between atoms: N_5  and  C_6
REMARK    4  A    between atoms: C_6  and  C_7
REMARK    5  A    between atoms: N_15  and  C_16
REMARK    6  A    between atoms: C_16  and  C_17
REMARK                            x       y       z     vdW  Elec       q    Type
REMARK                         _______ _______ _______ _____ _____    ______ ____
ROOT
ATOM      1  C   UNL     1       4.280   4.611  17.244  0.00  0.00    +0.000 A 
ATOM      2  N   UNL     1       3.465   5.656  17.564  0.00  0.00    +0.000 N 
ATOM      3  C   UNL     1       4.116   6.858  17.327  0.00  0.00    +0.000 A 
ATOM      4  C   UNL     1       5.357   6.553  16.863  0.00  0.00    +0.000 A 
ATOM      5  N   UNL     1       5.449   5.173  16.831  0.00  0.00    +0.000 N 
ENDROOT
BRANCH   1   7
ATOM      6  N   UNL     1       4.243   2.420  18.248  0.00  0.00    +0.000 NA
ATOM      7  C   UNL     1       3.949   3.241  17.286  0.00  0.00    +0.000 C 
BRANCH   6   8
ATOM      8  O   UNL     1       3.776   1.142  17.925  0.00  0.00    +0.000 OA
ATOM      9  H   UNL     1       3.426   0.807  18.776  0.00  0.00    +0.000 HD
ENDBRANCH   6   8
ENDBRANCH   1   7
BRANCH   2  10
ATOM     10  C   UNL     1       2.061   5.550  17.988  0.00  0.00    +0.000 C 
BRANCH  10  11
ATOM     11  C   UNL     1       1.946   4.668  19.204  0.00  0.00    +0.000 A 
ATOM     12  C   UNL     1       2.637   4.978  20.387  0.00  0.00    +0.000 A 
ATOM     13  C   UNL     1       2.486   4.189  21.529  0.00  0.00    +0.000 A 
ATOM     14  C   UNL     1       1.639   3.085  21.506  0.00  0.00    +0.000 A 
ATOM     15  C   UNL     1       0.944   2.767  20.343  0.00  0.00    +0.000 A 
ATOM     16  C   UNL     1       1.092   3.554  19.199  0.00  0.00    +0.000 A 
ENDBRANCH  10  11
ENDBRANCH   2  10
BRANCH   5  17
ATOM     17  C   UNL     1       6.653   4.444  16.400  0.00  0.00    +0.000 C 
BRANCH  17  18
ATOM     18  C   UNL     1       6.742   4.436  14.895  0.00  0.00    +0.000 A 
ATOM     19  C   UNL     1       7.678   5.234  14.219  0.00  0.00    +0.000 A 
ATOM     20  C   UNL     1       7.791   5.175  12.828  0.00  0.00    +0.000 A 
ATOM     21  C   UNL     1       6.970   4.322  12.095  0.00  0.00    +0.000 A 
ATOM     22  C   UNL     1       6.026   3.535  12.750  0.00  0.00    +0.000 A 
ATOM     23  C   UNL     1       5.907   3.596  14.140  0.00  0.00    +0.000 A 
ENDBRANCH  17  18
ENDBRANCH   5  17
TORSDOF 6
ENDMDL
