MODEL 1
REMARK VINA RESULT:      -9.6      0.000      0.000
REMARK  Name = 
REMARK  8 active torsions:
REMARK  status: ('A' for Active; 'I' for Inactive)
REMARK    1  A    between atoms: C_1  and  N_2
REMARK    2  A    between atoms: N_2  and  C_3
REMARK    3  A    between atoms: C_3  and  C_4
REMARK    4  A    between atoms: C_4  and  O_5
REMARK    5  A    between atoms: C_9  and  C_10
REMARK    6  A    between atoms: N_12  and  C_13
REMARK    7  A    between atoms: C_13  and  C_14
REMARK    8  A    between atoms: N_16  and  C_17
REMARK                            x       y       z     vdW  Elec       q    Type
REMARK                         _______ _______ _______ _____ _____    ______ ____
ROOT
ATOM      1  C   UNL     1       5.185   5.915  17.109  0.00  0.00    +0.000 A 
ATOM      2  C   UNL     1       4.416   6.810  17.745  0.00  0.00    +0.000 A 
ATOM      3  N   UNL     1       3.267   6.594  18.502  0.00  0.00    +0.000 N 
ATOM      4  C   UNL     1       2.872   5.212  18.667  0.00  0.00    +0.000 A 
ATOM      5  C   UNL     1       1.969   4.767  19.639  0.00  0.00    +0.000 A 
ATOM      6  C   UNL     1       1.623   3.415  19.725  0.00  0.00    +0.000 A 
ATOM      7 CL   UNL     1       0.944   2.808  21.185  0.00  0.00    +0.000 Cl
ATOM      8  C   UNL     1       1.972   2.530  18.717  0.00  0.00    +0.000 A 
ATOM      9  C   UNL     1       2.923   2.923  17.788  0.00  0.00    +0.000 A 
ATOM     10  C   UNL     1       3.446   4.220  17.843  0.00  0.00    +0.000 A 
ATOM     11  C   UNL     1       4.699   4.522  17.095  0.00  0.00    +0.000 A 
ATOM     12  O   UNL     1       5.327   3.618  16.548  0.00  0.00    +0.000 OA
ENDROOT
BRANCH   3  13
ATOM     13  C   UNL     1       2.426   7.719  18.781  0.00  0.00    +0.000 A 
ATOM     14  C   UNL     1       1.924   7.929  20.084  0.00  0.00    +0.000 A 
ATOM     15  C   UNL     1       1.036   8.977  20.373  0.00  0.00    +0.000 A 
ATOM     16  C   UNL     1       0.659   9.858  19.366  0.00  0.00    +0.000 A 
ATOM     17  C   UNL     1       1.155   9.685  18.077  0.00  0.00    +0.000 A 
ATOM     18  C   UNL     1       2.006   8.610  17.786  0.00  0.00    +0.000 A 
ENDBRANCH   3  13
BRANCH   1  19
ATOM     19  C   UNL     1       6.451   6.249  16.374  0.00  0.00    +0.000 C 
BRANCH  19  22
ATOM     20  C   UNL     1       7.802   7.689  17.888  0.00  0.00    +0.000 C 
ATOM     21  O   UNL     1       8.191   6.756  18.574  0.00  0.00    +0.000 OA
ATOM     22  N   UNL     1       6.976   7.541  16.794  0.00  0.00    +0.000 N 
ATOM     23  H   UNL     1       6.781   8.331  16.194  0.00  0.00    +0.000 HD
BRANCH  20  29
ATOM     24  C   UNL     1      10.635  12.875  20.391  0.00  0.00    +0.000 C 
ATOM     25  N   UNL     1       9.835  12.818  19.171  0.00  0.00    +0.000 N 
ATOM     26  C   UNL     1       9.280  11.587  18.850  0.00  0.00    +0.000 A 
ATOM     27  C   UNL     1       8.426  11.420  17.757  0.00  0.00    +0.000 A 
ATOM     28  C   UNL     1       7.928  10.160  17.414  0.00  0.00    +0.000 A 
ATOM     29  C   UNL     1       8.275   9.060  18.186  0.00  0.00    +0.000 A 
ATOM     30  C   UNL     1       9.076   9.296  19.290  0.00  0.00    +0.000 A 
ATOM     31  N   UNL     1       9.584  10.517  19.620  0.00  0.00    +0.000 NA
BRANCH  25  32
ATOM     32  C   UNL     1      10.100  13.842  18.150  0.00  0.00    +0.000 C 
BRANCH  32  33
ATOM     33  C   UNL     1      11.313  13.502  17.272  0.00  0.00    +0.000 C 
BRANCH  33  34
ATOM     34  O   UNL     1      11.123  13.891  15.917  0.00  0.00    +0.000 OA
ATOM     35  H   UNL     1      10.793  14.811  15.951  0.00  0.00    +0.000 HD
ENDBRANCH  33  34
ENDBRANCH  32  33
ENDBRANCH  25  32
ENDBRANCH  20  29
ENDBRANCH  19  22
ENDBRANCH   1  19
TORSDOF 7
ENDMDL
MODEL 2
REMARK VINA RESULT:      -9.2      4.956      9.172
REMARK  Name = 
REMARK  8 active torsions:
REMARK  status: ('A' for Active; 'I' for Inactive)
REMARK    1  A    between atoms: C_1  and  N_2
REMARK    2  A    between atoms: N_2  and  C_3
REMARK    3  A    between atoms: C_3  and  C_4
REMARK    4  A    between atoms: C_4  and  O_5
REMARK    5  A    between atoms: C_9  and  C_10
REMARK    6  A    between atoms: N_12  and  C_13
REMARK    7  A    between atoms: C_13  and  C_14
REMARK    8  A    between atoms: N_16  and  C_17
REMARK                            x       y       z     vdW  Elec       q    Type
REMARK                         _______ _______ _______ _____ _____    ______ ____
ROOT
ATOM      1  C   UNL     1       2.792   8.166  18.181  0.00  0.00    +0.000 A 
ATOM      2  C   UNL     1       3.585   7.387  17.431  0.00  0.00    +0.000 A 
ATOM      3  N   UNL     1       3.811   6.016  17.530  0.00  0.00    +0.000 N 
ATOM      4  C   UNL     1       3.053   5.325  18.550  0.00  0.00    +0.000 A 
ATOM      5  C   UNL     1       2.885   3.936  18.593  0.00  0.00    +0.000 A 
ATOM      6  C   UNL     1       2.151   3.339  19.623  0.00  0.00    +0.000 A 
ATOM      7 CL   UNL     1       1.529   1.750  19.405  0.00  0.00    +0.000 Cl
ATOM      8  C   UNL     1       1.778   4.068  20.742  0.00  0.00    +0.000 A 
ATOM      9  C   UNL     1       1.865   5.451  20.692  0.00  0.00    +0.000 A 
ATOM     10  C   UNL     1       2.394   6.068  19.553  0.00  0.00    +0.000 A 
ATOM     11  C   UNL     1       2.158   7.526  19.350  0.00  0.00    +0.000 A 
ATOM     12  O   UNL     1       1.406   8.142  20.102  0.00  0.00    +0.000 OA
ENDROOT
BRANCH   3  13
ATOM     13  C   UNL     1       4.955   5.475  16.860  0.00  0.00    +0.000 A 
ATOM     14  C   UNL     1       6.136   5.194  17.580  0.00  0.00    +0.000 A 
ATOM     15  C   UNL     1       7.299   4.735  16.940  0.00  0.00    +0.000 A 
ATOM     16  C   UNL     1       7.289   4.518  15.568  0.00  0.00    +0.000 A 
ATOM     17  C   UNL     1       6.132   4.769  14.837  0.00  0.00    +0.000 A 
ATOM     18  C   UNL     1       4.988   5.268  15.475  0.00  0.00    +0.000 A 
ENDBRANCH   3  13
BRANCH   1  19
ATOM     19  C   UNL     1       2.564   9.630  17.943  0.00  0.00    +0.000 C 
BRANCH  19  22
ATOM     20  C   UNL     1       0.708  11.081  18.743  0.00  0.00    +0.000 C 
ATOM     21  O   UNL     1       1.452  11.894  19.270  0.00  0.00    +0.000 OA
ATOM     22  N   UNL     1       1.153   9.967  18.063  0.00  0.00    +0.000 N 
ATOM     23  H   UNL     1       0.499   9.394  17.547  0.00  0.00    +0.000 HD
BRANCH  20  29
ATOM     24  C   UNL     1      -5.238  13.140  20.006  0.00  0.00    +0.000 C 
ATOM     25  N   UNL     1      -4.839  12.212  18.952  0.00  0.00    +0.000 N 
ATOM     26  C   UNL     1      -3.493  11.873  18.900  0.00  0.00    +0.000 A 
ATOM     27  C   UNL     1      -3.000  10.931  17.994  0.00  0.00    +0.000 A 
ATOM     28  C   UNL     1      -1.632  10.651  17.916  0.00  0.00    +0.000 A 
ATOM     29  C   UNL     1      -0.755  11.309  18.766  0.00  0.00    +0.000 A 
ATOM     30  C   UNL     1      -1.309  12.187  19.682  0.00  0.00    +0.000 A 
ATOM     31  N   UNL     1      -2.637  12.483  19.752  0.00  0.00    +0.000 NA
BRANCH  25  32
ATOM     32  C   UNL     1      -5.708  12.130  17.769  0.00  0.00    +0.000 C 
BRANCH  32  33
ATOM     33  C   UNL     1      -7.136  11.688  18.115  0.00  0.00    +0.000 C 
BRANCH  33  34
ATOM     34  O   UNL     1      -7.185  10.346  18.587  0.00  0.00    +0.000 OA
ATOM     35  H   UNL     1      -7.873   9.903  18.051  0.00  0.00    +0.000 HD
ENDBRANCH  33  34
ENDBRANCH  32  33
ENDBRANCH  25  32
ENDBRANCH  20  29
ENDBRANCH  19  22
ENDBRANCH   1  19
TORSDOF 7
ENDMDL
MODEL 3
REMARK VINA RESULT:      -9.0      4.920      9.429
REMARK  Name = 
REMARK  8 active torsions:
REMARK  status: ('A' for Active; 'I' for Inactive)
REMARK    1  A    between atoms: C_1  and  N_2
REMARK    2  A    between atoms: N_2  and  C_3
REMARK    3  A    between atoms: C_3  and  C_4
REMARK    4  A    between atoms: C_4  and  O_5
REMARK    5  A    between atoms: C_9  and  C_10
REMARK    6  A    between atoms: N_12  and  C_13
REMARK    7  A    between atoms: C_13  and  C_14
REMARK    8  A    between atoms: N_16  and  C_17
REMARK                            x       y       z     vdW  Elec       q    Type
REMARK                         _______ _______ _______ _____ _____    ______ ____
ROOT
ATOM      1  C   UNL     1       2.561   8.404  18.220  0.00  0.00    +0.000 A 
ATOM      2  C   UNL     1       3.351   7.621  17.471  0.00  0.00    +0.000 A 
ATOM      3  N   UNL     1       3.608   6.258  17.600  0.00  0.00    +0.000 N 
ATOM      4  C   UNL     1       2.888   5.580  18.656  0.00  0.00    +0.000 A 
ATOM      5  C   UNL     1       2.749   4.189  18.739  0.00  0.00    +0.000 A 
ATOM      6  C   UNL     1       2.053   3.605  19.802  0.00  0.00    +0.000 A 
ATOM      7 CL   UNL     1       1.458   1.999  19.640  0.00  0.00    +0.000 Cl
ATOM      8  C   UNL     1       1.693   4.356  20.910  0.00  0.00    +0.000 A 
ATOM      9  C   UNL     1       1.750   5.738  20.822  0.00  0.00    +0.000 A 
ATOM     10  C   UNL     1       2.239   6.336  19.655  0.00  0.00    +0.000 A 
ATOM     11  C   UNL     1       1.969   7.783  19.421  0.00  0.00    +0.000 A 
ATOM     12  O   UNL     1       1.223   8.404  20.175  0.00  0.00    +0.000 OA
ENDROOT
BRANCH   3  13
ATOM     13  C   UNL     1       4.746   5.722  16.916  0.00  0.00    +0.000 A 
ATOM     14  C   UNL     1       6.035   6.242  17.161  0.00  0.00    +0.000 A 
ATOM     15  C   UNL     1       7.160   5.791  16.452  0.00  0.00    +0.000 A 
ATOM     16  C   UNL     1       7.018   4.784  15.504  0.00  0.00    +0.000 A 
ATOM     17  C   UNL     1       5.761   4.242  15.257  0.00  0.00    +0.000 A 
ATOM     18  C   UNL     1       4.636   4.727  15.937  0.00  0.00    +0.000 A 
ENDBRANCH   3  13
BRANCH   1  19
ATOM     19  C   UNL     1       2.298   9.857  17.950  0.00  0.00    +0.000 C 
BRANCH  19  22
ATOM     20  C   UNL     1       0.460  11.409  18.584  0.00  0.00    +0.000 C 
ATOM     21  O   UNL     1       1.211  12.340  18.829  0.00  0.00    +0.000 OA
ATOM     22  N   UNL     1       0.890  10.178  18.135  0.00  0.00    +0.000 N 
ATOM     23  H   UNL     1       0.219   9.484  17.835  0.00  0.00    +0.000 HD
BRANCH  20  29
ATOM     24  C   UNL     1      -5.893  11.472  17.672  0.00  0.00    +0.000 C 
ATOM     25  N   UNL     1      -5.175  11.922  18.861  0.00  0.00    +0.000 N 
ATOM     26  C   UNL     1      -3.789  11.856  18.812  0.00  0.00    +0.000 A 
ATOM     27  C   UNL     1      -2.986  12.335  19.849  0.00  0.00    +0.000 A 
ATOM     28  C   UNL     1      -1.595  12.202  19.807  0.00  0.00    +0.000 A 
ATOM     29  C   UNL     1      -1.004  11.600  18.705  0.00  0.00    +0.000 A 
ATOM     30  C   UNL     1      -1.846  11.199  17.682  0.00  0.00    +0.000 A 
ATOM     31  N   UNL     1      -3.204  11.304  17.724  0.00  0.00    +0.000 NA
BRANCH  25  32
ATOM     32  C   UNL     1      -5.910  11.898  20.134  0.00  0.00    +0.000 C 
BRANCH  32  33
ATOM     33  C   UNL     1      -7.243  11.145  20.033  0.00  0.00    +0.000 C 
BRANCH  33  34
ATOM     34  O   UNL     1      -7.299  10.027  20.912  0.00  0.00    +0.000 OA
ATOM     35  H   UNL     1      -7.945  10.269  21.605  0.00  0.00    +0.000 HD
ENDBRANCH  33  34
ENDBRANCH  32  33
ENDBRANCH  25  32
ENDBRANCH  20  29
ENDBRANCH  19  22
ENDBRANCH   1  19
TORSDOF 7
ENDMDL
MODEL 4
REMARK VINA RESULT:      -9.0      5.396      8.307
REMARK  Name = 
REMARK  8 active torsions:
REMARK  status: ('A' for Active; 'I' for Inactive)
REMARK    1  A    between atoms: C_1  and  N_2
REMARK    2  A    between atoms: N_2  and  C_3
REMARK    3  A    between atoms: C_3  and  C_4
REMARK    4  A    between atoms: C_4  and  O_5
REMARK    5  A    between atoms: C_9  and  C_10
REMARK    6  A    between atoms: N_12  and  C_13
REMARK    7  A    between atoms: C_13  and  C_14
REMARK    8  A    between atoms: N_16  and  C_17
REMARK                            x       y       z     vdW  Elec       q    Type
REMARK                         _______ _______ _______ _____ _____    ______ ____
ROOT
ATOM      1  C   UNL     1      -0.112   9.406  21.248  0.00  0.00    +0.000 A 
ATOM      2  C   UNL     1      -0.656   9.648  20.047  0.00  0.00    +0.000 A 
ATOM      3  N   UNL     1      -1.255  10.814  19.577  0.00  0.00    +0.000 N 
ATOM      4  C   UNL     1      -1.250  11.936  20.490  0.00  0.00    +0.000 A 
ATOM      5  C   UNL     1      -1.492  13.260  20.105  0.00  0.00    +0.000 A 
ATOM      6  C   UNL     1      -1.487  14.290  21.051  0.00  0.00    +0.000 A 
ATOM      7 CL   UNL     1      -1.277  15.915  20.527  0.00  0.00    +0.000 Cl
ATOM      8  C   UNL     1      -1.480  14.006  22.407  0.00  0.00    +0.000 A 
ATOM      9  C   UNL     1      -1.166  12.717  22.814  0.00  0.00    +0.000 A 
ATOM     10  C   UNL     1      -0.943  11.726  21.852  0.00  0.00    +0.000 A 
ATOM     11  C   UNL     1      -0.266  10.463  22.265  0.00  0.00    +0.000 A 
ATOM     12  O   UNL     1       0.200  10.352  23.397  0.00  0.00    +0.000 OA
ENDROOT
BRANCH   3  13
ATOM     13  C   UNL     1      -2.073  10.724  18.405  0.00  0.00    +0.000 A 
ATOM     14  C   UNL     1      -1.619  10.015  17.272  0.00  0.00    +0.000 A 
ATOM     15  C   UNL     1      -2.362   9.972  16.082  0.00  0.00    +0.000 A 
ATOM     16  C   UNL     1      -3.593  10.613  16.015  0.00  0.00    +0.000 A 
ATOM     17  C   UNL     1      -4.073  11.303  17.124  0.00  0.00    +0.000 A 
ATOM     18  C   UNL     1      -3.306  11.379  18.295  0.00  0.00    +0.000 A 
ENDBRANCH   3  13
BRANCH   1  19
ATOM     19  C   UNL     1       0.576   8.127  21.630  0.00  0.00    +0.000 C 
BRANCH  19  22
ATOM     20  C   UNL     1       1.943   6.482  20.359  0.00  0.00    +0.000 C 
ATOM     21  O   UNL     1       1.371   5.510  20.829  0.00  0.00    +0.000 OA
ATOM     22  N   UNL     1       1.616   7.785  20.670  0.00  0.00    +0.000 N 
ATOM     23  H   UNL     1       2.042   8.549  20.164  0.00  0.00    +0.000 HD
BRANCH  20  29
ATOM     24  C   UNL     1       7.100   4.533  17.073  0.00  0.00    +0.000 C 
ATOM     25  N   UNL     1       6.072   5.464  16.617  0.00  0.00    +0.000 N 
ATOM     26  C   UNL     1       5.068   5.775  17.525  0.00  0.00    +0.000 A 
ATOM     27  C   UNL     1       4.076   6.716  17.241  0.00  0.00    +0.000 A 
ATOM     28  C   UNL     1       3.040   6.969  18.144  0.00  0.00    +0.000 A 
ATOM     29  C   UNL     1       3.009   6.284  19.351  0.00  0.00    +0.000 A 
ATOM     30  C   UNL     1       4.051   5.408  19.602  0.00  0.00    +0.000 A 
ATOM     31  N   UNL     1       5.054   5.139  18.719  0.00  0.00    +0.000 NA
BRANCH  25  32
ATOM     32  C   UNL     1       5.868   5.576  15.165  0.00  0.00    +0.000 C 
BRANCH  32  33
ATOM     33  C   UNL     1       6.909   4.784  14.360  0.00  0.00    +0.000 C 
BRANCH  33  34
ATOM     34  O   UNL     1       7.966   5.611  13.886  0.00  0.00    +0.000 OA
ATOM     35  H   UNL     1       8.124   6.267  14.594  0.00  0.00    +0.000 HD
ENDBRANCH  33  34
ENDBRANCH  32  33
ENDBRANCH  25  32
ENDBRANCH  20  29
ENDBRANCH  19  22
ENDBRANCH   1  19
TORSDOF 7
ENDMDL
MODEL 5
REMARK VINA RESULT:      -9.0      5.101      9.285
REMARK  Name = 
REMARK  8 active torsions:
REMARK  status: ('A' for Active; 'I' for Inactive)
REMARK    1  A    between atoms: C_1  and  N_2
REMARK    2  A    between atoms: N_2  and  C_3
REMARK    3  A    between atoms: C_3  and  C_4
REMARK    4  A    between atoms: C_4  and  O_5
REMARK    5  A    between atoms: C_9  and  C_10
REMARK    6  A    between atoms: N_12  and  C_13
REMARK    7  A    between atoms: C_13  and  C_14
REMARK    8  A    between atoms: N_16  and  C_17
REMARK                            x       y       z     vdW  Elec       q    Type
REMARK                         _______ _______ _______ _____ _____    ______ ____
ROOT
ATOM      1  C   UNL     1       2.686   8.218  18.229  0.00  0.00    +0.000 A 
ATOM      2  C   UNL     1       3.522   7.463  17.501  0.00  0.00    +0.000 A 
ATOM      3  N   UNL     1       3.802   6.104  17.623  0.00  0.00    +0.000 N 
ATOM      4  C   UNL     1       3.057   5.396  18.640  0.00  0.00    +0.000 A 
ATOM      5  C   UNL     1       2.944   4.002  18.700  0.00  0.00    +0.000 A 
ATOM      6  C   UNL     1       2.220   3.389  19.727  0.00  0.00    +0.000 A 
ATOM      7 CL   UNL     1       1.667   1.773  19.520  0.00  0.00    +0.000 Cl
ATOM      8  C   UNL     1       1.800   4.116  20.829  0.00  0.00    +0.000 A 
ATOM      9  C   UNL     1       1.831   5.501  20.762  0.00  0.00    +0.000 A 
ATOM     10  C   UNL     1       2.352   6.124  19.623  0.00  0.00    +0.000 A 
ATOM     11  C   UNL     1       2.060   7.569  19.397  0.00  0.00    +0.000 A 
ATOM     12  O   UNL     1       1.272   8.163  20.129  0.00  0.00    +0.000 OA
ENDROOT
BRANCH   3  13
ATOM     13  C   UNL     1       4.978   5.601  16.977  0.00  0.00    +0.000 A 
ATOM     14  C   UNL     1       4.945   5.245  15.612  0.00  0.00    +0.000 A 
ATOM     15  C   UNL     1       6.057   4.678  14.970  0.00  0.00    +0.000 A 
ATOM     16  C   UNL     1       7.238   4.488  15.678  0.00  0.00    +0.000 A 
ATOM     17  C   UNL     1       7.302   4.848  17.021  0.00  0.00    +0.000 A 
ATOM     18  C   UNL     1       6.175   5.373  17.667  0.00  0.00    +0.000 A 
ENDBRANCH   3  13
BRANCH   1  19
ATOM     19  C   UNL     1       2.403   9.669  17.968  0.00  0.00    +0.000 C 
BRANCH  19  22
ATOM     20  C   UNL     1       0.484  11.149  18.530  0.00  0.00    +0.000 C 
ATOM     21  O   UNL     1       1.191  12.085  18.870  0.00  0.00    +0.000 OA
ATOM     22  N   UNL     1       0.977   9.950  18.062  0.00  0.00    +0.000 N 
ATOM     23  H   UNL     1       0.348   9.255  17.683  0.00  0.00    +0.000 HD
BRANCH  20  29
ATOM     24  C   UNL     1      -5.575  12.752  19.911  0.00  0.00    +0.000 C 
ATOM     25  N   UNL     1      -5.115  11.977  18.763  0.00  0.00    +0.000 N 
ATOM     26  C   UNL     1      -3.754  11.713  18.697  0.00  0.00    +0.000 A 
ATOM     27  C   UNL     1      -3.201  10.910  17.696  0.00  0.00    +0.000 A 
ATOM     28  C   UNL     1      -1.821  10.708  17.611  0.00  0.00    +0.000 A 
ATOM     29  C   UNL     1      -0.989  11.302  18.551  0.00  0.00    +0.000 A 
ATOM     30  C   UNL     1      -1.599  12.036  19.554  0.00  0.00    +0.000 A 
ATOM     31  N   UNL     1      -2.941  12.256  19.632  0.00  0.00    +0.000 NA
BRANCH  25  32
ATOM     32  C   UNL     1      -5.963  11.995  17.561  0.00  0.00    +0.000 C 
BRANCH  32  33
ATOM     33  C   UNL     1      -6.481  13.400  17.225  0.00  0.00    +0.000 C 
BRANCH  33  34
ATOM     34  O   UNL     1      -7.881  13.527  17.451  0.00  0.00    +0.000 OA
ATOM     35  H   UNL     1      -8.294  12.792  16.956  0.00  0.00    +0.000 HD
ENDBRANCH  33  34
ENDBRANCH  32  33
ENDBRANCH  25  32
ENDBRANCH  20  29
ENDBRANCH  19  22
ENDBRANCH   1  19
TORSDOF 7
ENDMDL
MODEL 6
REMARK VINA RESULT:      -8.9      5.529      8.344
REMARK  Name = 
REMARK  8 active torsions:
REMARK  status: ('A' for Active; 'I' for Inactive)
REMARK    1  A    between atoms: C_1  and  N_2
REMARK    2  A    between atoms: N_2  and  C_3
REMARK    3  A    between atoms: C_3  and  C_4
REMARK    4  A    between atoms: C_4  and  O_5
REMARK    5  A    between atoms: C_9  and  C_10
REMARK    6  A    between atoms: N_12  and  C_13
REMARK    7  A    between atoms: C_13  and  C_14
REMARK    8  A    between atoms: N_16  and  C_17
REMARK                            x       y       z     vdW  Elec       q    Type
REMARK                         _______ _______ _______ _____ _____    ______ ____
ROOT
ATOM      1  C   UNL     1      -0.002   9.330  21.154  0.00  0.00    +0.000 A 
ATOM      2  C   UNL     1      -0.525   9.607  19.951  0.00  0.00    +0.000 A 
ATOM      3  N   UNL     1      -1.079  10.799  19.492  0.00  0.00    +0.000 N 
ATOM      4  C   UNL     1      -1.045  11.908  20.421  0.00  0.00    +0.000 A 
ATOM      5  C   UNL     1      -1.238  13.244  20.051  0.00  0.00    +0.000 A 
ATOM      6  C   UNL     1      -1.208  14.260  21.011  0.00  0.00    +0.000 A 
ATOM      7 CL   UNL     1      -0.937  15.884  20.512  0.00  0.00    +0.000 Cl
ATOM      8  C   UNL     1      -1.224  13.958  22.363  0.00  0.00    +0.000 A 
ATOM      9  C   UNL     1      -0.959  12.654  22.755  0.00  0.00    +0.000 A 
ATOM     10  C   UNL     1      -0.759  11.669  21.782  0.00  0.00    +0.000 A 
ATOM     11  C   UNL     1      -0.130  10.378  22.185  0.00  0.00    +0.000 A 
ATOM     12  O   UNL     1       0.319  10.236  23.319  0.00  0.00    +0.000 OA
ENDROOT
BRANCH   3  13
ATOM     13  C   UNL     1      -1.887  10.752  18.310  0.00  0.00    +0.000 A 
ATOM     14  C   UNL     1      -3.120  11.437  18.262  0.00  0.00    +0.000 A 
ATOM     15  C   UNL     1      -3.970  11.349  17.149  0.00  0.00    +0.000 A 
ATOM     16  C   UNL     1      -3.584  10.597  16.045  0.00  0.00    +0.000 A 
ATOM     17  C   UNL     1      -2.364   9.928  16.060  0.00  0.00    +0.000 A 
ATOM     18  C   UNL     1      -1.540   9.984  17.192  0.00  0.00    +0.000 A 
ENDBRANCH   3  13
BRANCH   1  19
ATOM     19  C   UNL     1       0.638   8.023  21.526  0.00  0.00    +0.000 C 
BRANCH  19  22
ATOM     20  C   UNL     1       2.042   6.380  20.294  0.00  0.00    +0.000 C 
ATOM     21  O   UNL     1       1.452   5.408  20.740  0.00  0.00    +0.000 OA
ATOM     22  N   UNL     1       1.709   7.682  20.600  0.00  0.00    +0.000 N 
ATOM     23  H   UNL     1       2.153   8.448  20.112  0.00  0.00    +0.000 HD
BRANCH  20  29
ATOM     24  C   UNL     1       7.349   4.499  17.214  0.00  0.00    +0.000 C 
ATOM     25  N   UNL     1       6.302   5.375  16.698  0.00  0.00    +0.000 N 
ATOM     26  C   UNL     1       5.264   5.683  17.568  0.00  0.00    +0.000 A 
ATOM     27  C   UNL     1       4.248   6.576  17.224  0.00  0.00    +0.000 A 
ATOM     28  C   UNL     1       3.179   6.824  18.090  0.00  0.00    +0.000 A 
ATOM     29  C   UNL     1       3.141   6.184  19.321  0.00  0.00    +0.000 A 
ATOM     30  C   UNL     1       4.206   5.356  19.631  0.00  0.00    +0.000 A 
ATOM     31  N   UNL     1       5.241   5.091  18.784  0.00  0.00    +0.000 NA
BRANCH  25  32
ATOM     32  C   UNL     1       6.133   5.426  15.238  0.00  0.00    +0.000 C 
BRANCH  32  33
ATOM     33  C   UNL     1       5.532   4.134  14.667  0.00  0.00    +0.000 C 
BRANCH  33  34
ATOM     34  O   UNL     1       6.419   3.479  13.767  0.00  0.00    +0.000 OA
ATOM     35  H   UNL     1       7.319   3.663  14.104  0.00  0.00    +0.000 HD
ENDBRANCH  33  34
ENDBRANCH  32  33
ENDBRANCH  25  32
ENDBRANCH  20  29
ENDBRANCH  19  22
ENDBRANCH   1  19
TORSDOF 7
ENDMDL
MODEL 7
REMARK VINA RESULT:      -8.9      1.384      1.978
REMARK  Name = 
REMARK  8 active torsions:
REMARK  status: ('A' for Active; 'I' for Inactive)
REMARK    1  A    between atoms: C_1  and  N_2
REMARK    2  A    between atoms: N_2  and  C_3
REMARK    3  A    between atoms: C_3  and  C_4
REMARK    4  A    between atoms: C_4  and  O_5
REMARK    5  A    between atoms: C_9  and  C_10
REMARK    6  A    between atoms: N_12  and  C_13
REMARK    7  A    between atoms: C_13  and  C_14
REMARK    8  A    between atoms: N_16  and  C_17
REMARK                            x       y       z     vdW  Elec       q    Type
REMARK                         _______ _______ _______ _____ _____    ______ ____
ROOT
ATOM      1  C   UNL     1       5.020   5.995  17.097  0.00  0.00    +0.000 A 
ATOM      2  C   UNL     1       4.242   6.865  17.757  0.00  0.00    +0.000 A 
ATOM      3  N   UNL     1       3.137   6.611  18.566  0.00  0.00    +0.000 N 
ATOM      4  C   UNL     1       2.809   5.216  18.763  0.00  0.00    +0.000 A 
ATOM      5  C   UNL     1       1.968   4.746  19.779  0.00  0.00    +0.000 A 
ATOM      6  C   UNL     1       1.683   3.382  19.895  0.00  0.00    +0.000 A 
ATOM      7 CL   UNL     1       1.095   2.767  21.390  0.00  0.00    +0.000 Cl
ATOM      8  C   UNL     1       2.025   2.499  18.883  0.00  0.00    +0.000 A 
ATOM      9  C   UNL     1       2.917   2.920  17.908  0.00  0.00    +0.000 A 
ATOM     10  C   UNL     1       3.387   4.238  17.926  0.00  0.00    +0.000 A 
ATOM     11  C   UNL     1       4.593   4.582  17.120  0.00  0.00    +0.000 A 
ATOM     12  O   UNL     1       5.234   3.698  16.556  0.00  0.00    +0.000 OA
ENDROOT
BRANCH   3  13
ATOM     13  C   UNL     1       2.262   7.703  18.869  0.00  0.00    +0.000 A 
ATOM     14  C   UNL     1       1.865   8.602  17.855  0.00  0.00    +0.000 A 
ATOM     15  C   UNL     1       1.071   9.725  18.134  0.00  0.00    +0.000 A 
ATOM     16  C   UNL     1       0.631   9.953  19.432  0.00  0.00    +0.000 A 
ATOM     17  C   UNL     1       0.992   9.071  20.447  0.00  0.00    +0.000 A 
ATOM     18  C   UNL     1       1.821   7.976  20.170  0.00  0.00    +0.000 A 
ENDBRANCH   3  13
BRANCH   1  19
ATOM     19  C   UNL     1       6.237   6.372  16.304  0.00  0.00    +0.000 C 
BRANCH  19  22
ATOM     20  C   UNL     1       7.728   7.682  17.803  0.00  0.00    +0.000 C 
ATOM     21  O   UNL     1       8.172   6.696  18.371  0.00  0.00    +0.000 OA
ATOM     22  N   UNL     1       6.806   7.624  16.780  0.00  0.00    +0.000 N 
ATOM     23  H   UNL     1       6.563   8.461  16.267  0.00  0.00    +0.000 HD
BRANCH  20  29
ATOM     24  C   UNL     1       8.990  13.966  18.140  0.00  0.00    +0.000 C 
ATOM     25  N   UNL     1       9.440  12.932  19.068  0.00  0.00    +0.000 N 
ATOM     26  C   UNL     1       9.080  11.626  18.764  0.00  0.00    +0.000 A 
ATOM     27  C   UNL     1       9.520  10.539  19.523  0.00  0.00    +0.000 A 
ATOM     28  C   UNL     1       9.095   9.238  19.238  0.00  0.00    +0.000 A 
ATOM     29  C   UNL     1       8.236   9.024  18.169  0.00  0.00    +0.000 A 
ATOM     30  C   UNL     1       7.881  10.131  17.417  0.00  0.00    +0.000 A 
ATOM     31  N   UNL     1       8.273  11.405  17.701  0.00  0.00    +0.000 NA
BRANCH  25  32
ATOM     32  C   UNL     1       9.747  13.354  20.442  0.00  0.00    +0.000 C 
BRANCH  32  33
ATOM     33  C   UNL     1       8.617  14.182  21.072  0.00  0.00    +0.000 C 
BRANCH  33  34
ATOM     34  O   UNL     1       7.650  13.366  21.722  0.00  0.00    +0.000 OA
ATOM     35  H   UNL     1       8.009  13.192  22.614  0.00  0.00    +0.000 HD
ENDBRANCH  33  34
ENDBRANCH  32  33
ENDBRANCH  25  32
ENDBRANCH  20  29
ENDBRANCH  19  22
ENDBRANCH   1  19
TORSDOF 7
ENDMDL
MODEL 8
REMARK VINA RESULT:      -8.8      1.003      1.371
REMARK  Name = 
REMARK  8 active torsions:
REMARK  status: ('A' for Active; 'I' for Inactive)
REMARK    1  A    between atoms: C_1  and  N_2
REMARK    2  A    between atoms: N_2  and  C_3
REMARK    3  A    between atoms: C_3  and  C_4
REMARK    4  A    between atoms: C_4  and  O_5
REMARK    5  A    between atoms: C_9  and  C_10
REMARK    6  A    between atoms: N_12  and  C_13
REMARK    7  A    between atoms: C_13  and  C_14
REMARK    8  A    between atoms: N_16  and  C_17
REMARK                            x       y       z     vdW  Elec       q    Type
REMARK                         _______ _______ _______ _____ _____    ______ ____
ROOT
ATOM      1  C   UNL     1       5.104   5.968  17.083  0.00  0.00    +0.000 A 
ATOM      2  C   UNL     1       4.336   6.853  17.734  0.00  0.00    +0.000 A 
ATOM      3  N   UNL     1       3.192   6.626  18.494  0.00  0.00    +0.000 N 
ATOM      4  C   UNL     1       2.801   5.241  18.644  0.00  0.00    +0.000 A 
ATOM      5  C   UNL     1       1.903   4.782  19.616  0.00  0.00    +0.000 A 
ATOM      6  C   UNL     1       1.560   3.428  19.686  0.00  0.00    +0.000 A 
ATOM      7 CL   UNL     1       0.891   2.803  21.142  0.00  0.00    +0.000 Cl
ATOM      8  C   UNL     1       1.906   2.556  18.667  0.00  0.00    +0.000 A 
ATOM      9  C   UNL     1       2.852   2.963  17.737  0.00  0.00    +0.000 A 
ATOM     10  C   UNL     1       3.372   4.260  17.805  0.00  0.00    +0.000 A 
ATOM     11  C   UNL     1       4.621   4.574  17.054  0.00  0.00    +0.000 A 
ATOM     12  O   UNL     1       5.248   3.678  16.494  0.00  0.00    +0.000 OA
ENDROOT
BRANCH   3  13
ATOM     13  C   UNL     1       2.349   7.745  18.791  0.00  0.00    +0.000 A 
ATOM     14  C   UNL     1       1.885   7.960  20.107  0.00  0.00    +0.000 A 
ATOM     15  C   UNL     1       0.998   9.003  20.415  0.00  0.00    +0.000 A 
ATOM     16  C   UNL     1       0.583   9.873  19.414  0.00  0.00    +0.000 A 
ATOM     17  C   UNL     1       1.041   9.695  18.112  0.00  0.00    +0.000 A 
ATOM     18  C   UNL     1       1.892   8.626  17.803  0.00  0.00    +0.000 A 
ENDBRANCH   3  13
BRANCH   1  19
ATOM     19  C   UNL     1       6.366   6.314  16.346  0.00  0.00    +0.000 C 
BRANCH  19  22
ATOM     20  C   UNL     1       7.757   7.728  17.848  0.00  0.00    +0.000 C 
ATOM     21  O   UNL     1       8.182   6.781  18.492  0.00  0.00    +0.000 OA
ATOM     22  N   UNL     1       6.892   7.600  16.782  0.00  0.00    +0.000 N 
ATOM     23  H   UNL     1       6.666   8.403  16.211  0.00  0.00    +0.000 HD
BRANCH  20  29
ATOM     24  C   UNL     1       8.737  14.067  18.048  0.00  0.00    +0.000 C 
ATOM     25  N   UNL     1       9.307  13.065  18.943  0.00  0.00    +0.000 N 
ATOM     26  C   UNL     1       8.988  11.740  18.676  0.00  0.00    +0.000 A 
ATOM     27  C   UNL     1       9.537  10.683  19.406  0.00  0.00    +0.000 A 
ATOM     28  C   UNL     1       9.154   9.361  19.162  0.00  0.00    +0.000 A 
ATOM     29  C   UNL     1       8.226   9.096  18.165  0.00  0.00    +0.000 A 
ATOM     30  C   UNL     1       7.762  10.178  17.436  0.00  0.00    +0.000 A 
ATOM     31  N   UNL     1       8.113  11.472  17.681  0.00  0.00    +0.000 NA
BRANCH  25  32
ATOM     32  C   UNL     1       9.699  13.515  20.287  0.00  0.00    +0.000 C 
BRANCH  32  33
ATOM     33  C   UNL     1      11.198  13.830  20.392  0.00  0.00    +0.000 C 
BRANCH  33  34
ATOM     34  O   UNL     1      11.606  14.822  19.457  0.00  0.00    +0.000 OA
ATOM     35  H   UNL     1      11.414  14.447  18.575  0.00  0.00    +0.000 HD
ENDBRANCH  33  34
ENDBRANCH  32  33
ENDBRANCH  25  32
ENDBRANCH  20  29
ENDBRANCH  19  22
ENDBRANCH   1  19
TORSDOF 7
ENDMDL
MODEL 9
REMARK VINA RESULT:      -8.4      4.945      8.838
REMARK  Name = 
REMARK  8 active torsions:
REMARK  status: ('A' for Active; 'I' for Inactive)
REMARK    1  A    between atoms: C_1  and  N_2
REMARK    2  A    between atoms: N_2  and  C_3
REMARK    3  A    between atoms: C_3  and  C_4
REMARK    4  A    between atoms: C_4  and  O_5
REMARK    5  A    between atoms: C_9  and  C_10
REMARK    6  A    between atoms: N_12  and  C_13
REMARK    7  A    between atoms: C_13  and  C_14
REMARK    8  A    between atoms: N_16  and  C_17
REMARK                            x       y       z     vdW  Elec       q    Type
REMARK                         _______ _______ _______ _____ _____    ______ ____
ROOT
ATOM      1  C   UNL     1       2.642   8.248  18.219  0.00  0.00    +0.000 A 
ATOM      2  C   UNL     1       3.474   7.490  17.489  0.00  0.00    +0.000 A 
ATOM      3  N   UNL     1       3.760   6.133  17.618  0.00  0.00    +0.000 N 
ATOM      4  C   UNL     1       3.027   5.430  18.648  0.00  0.00    +0.000 A 
ATOM      5  C   UNL     1       2.920   4.036  18.720  0.00  0.00    +0.000 A 
ATOM      6  C   UNL     1       2.207   3.428  19.757  0.00  0.00    +0.000 A 
ATOM      7 CL   UNL     1       1.658   1.809  19.568  0.00  0.00    +0.000 Cl
ATOM      8  C   UNL     1       1.795   4.163  20.858  0.00  0.00    +0.000 A 
ATOM      9  C   UNL     1       1.820   5.547  20.780  0.00  0.00    +0.000 A 
ATOM     10  C   UNL     1       2.329   6.163  19.631  0.00  0.00    +0.000 A 
ATOM     11  C   UNL     1       2.029   7.605  19.397  0.00  0.00    +0.000 A 
ATOM     12  O   UNL     1       1.246   8.202  20.132  0.00  0.00    +0.000 OA
ENDROOT
BRANCH   3  13
ATOM     13  C   UNL     1       4.932   5.630  16.966  0.00  0.00    +0.000 A 
ATOM     14  C   UNL     1       4.841   5.059  15.678  0.00  0.00    +0.000 A 
ATOM     15  C   UNL     1       5.956   4.488  15.044  0.00  0.00    +0.000 A 
ATOM     16  C   UNL     1       7.193   4.508  15.677  0.00  0.00    +0.000 A 
ATOM     17  C   UNL     1       7.313   5.081  16.939  0.00  0.00    +0.000 A 
ATOM     18  C   UNL     1       6.188   5.610  17.585  0.00  0.00    +0.000 A 
ENDBRANCH   3  13
BRANCH   1  19
ATOM     19  C   UNL     1       2.351   9.696  17.949  0.00  0.00    +0.000 C 
BRANCH  19  22
ATOM     20  C   UNL     1       1.114  11.561  19.034  0.00  0.00    +0.000 C 
ATOM     21  O   UNL     1       1.674  12.430  18.383  0.00  0.00    +0.000 OA
ATOM     22  N   UNL     1       1.360  10.213  18.881  0.00  0.00    +0.000 N 
ATOM     23  H   UNL     1       0.784   9.535  19.361  0.00  0.00    +0.000 HD
BRANCH  20  29
ATOM     24  C   UNL     1      -4.227  13.678  21.895  0.00  0.00    +0.000 C 
ATOM     25  N   UNL     1      -3.101  13.005  22.534  0.00  0.00    +0.000 N 
ATOM     26  C   UNL     1      -2.027  12.678  21.715  0.00  0.00    +0.000 A 
ATOM     27  C   UNL     1      -0.856  12.110  22.221  0.00  0.00    +0.000 A 
ATOM     28  C   UNL     1       0.188  11.731  21.372  0.00  0.00    +0.000 A 
ATOM     29  C   UNL     1       0.062  11.942  20.005  0.00  0.00    +0.000 A 
ATOM     30  C   UNL     1      -1.096  12.563  19.570  0.00  0.00    +0.000 A 
ATOM     31  N   UNL     1      -2.128  12.915  20.388  0.00  0.00    +0.000 NA
BRANCH  25  32
ATOM     32  C   UNL     1      -3.377  12.277  23.781  0.00  0.00    +0.000 C 
BRANCH  32  33
ATOM     33  C   UNL     1      -4.665  12.752  24.469  0.00  0.00    +0.000 C 
BRANCH  33  34
ATOM     34  O   UNL     1      -5.590  11.689  24.672  0.00  0.00    +0.000 OA
ATOM     35  H   UNL     1      -6.002  11.862  25.542  0.00  0.00    +0.000 HD
ENDBRANCH  33  34
ENDBRANCH  32  33
ENDBRANCH  25  32
ENDBRANCH  20  29
ENDBRANCH  19  22
ENDBRANCH   1  19
TORSDOF 7
ENDMDL
