MODEL 1
REMARK VINA RESULT:      -8.8      0.000      0.000
REMARK  Name = 
REMARK  5 active torsions:
REMARK  status: ('A' for Active; 'I' for Inactive)
REMARK    1  A    between atoms: C_1  and  C_2
REMARK    2  A    between atoms: C_2  and  C_3
REMARK    3  A    between atoms: C_10  and  C_12
REMARK    4  A    between atoms: C_14  and  C_15
REMARK    5  A    between atoms: C_15  and  C_16
REMARK                            x       y       z     vdW  Elec       q    Type
REMARK                         _______ _______ _______ _____ _____    ______ ____
ROOT
ATOM      1  C   UNL     1       0.528  10.092  19.307  0.00  0.00    +0.000 A 
ATOM      2  C   UNL     1       1.148   9.406  18.257  0.00  0.00    +0.000 A 
ATOM      3  C   UNL     1       1.832   8.198  18.510  0.00  0.00    +0.000 A 
ATOM      4  C   UNL     1       1.986   7.738  19.827  0.00  0.00    +0.000 A 
ATOM      5  C   UNL     1       1.339   8.393  20.857  0.00  0.00    +0.000 A 
ATOM      6  C   UNL     1       0.553   9.486  20.554  0.00  0.00    +0.000 A 
ATOM      7  F   UNL     1      -0.260   9.868  21.522  0.00  0.00    +0.000 F 
ENDROOT
BRANCH   1  15
ATOM      8  C   UNL     1       2.794  15.822  20.020  0.00  0.00    +0.000 C 
ATOM      9  O   UNL     1       2.311  16.951  20.137  0.00  0.00    +0.000 OA
ATOM     10  N   UNL     1       2.085  14.675  20.293  0.00  0.00    +0.000 N 
ATOM     11  C   UNL     1       0.689  14.718  20.756  0.00  0.00    +0.000 C 
ATOM     12  C   UNL     1      -0.303  14.873  19.611  0.00  0.00    +0.000 C 
ATOM     13  C   UNL     1      -0.289  13.790  18.526  0.00  0.00    +0.000 C 
ATOM     14  N   UNL     1       0.485  12.581  18.828  0.00  0.00    +0.000 N 
ATOM     15  C   UNL     1      -0.199  11.372  19.042  0.00  0.00    +0.000 C 
ATOM     16  O   UNL     1      -1.428  11.299  18.973  0.00  0.00    +0.000 OA
ATOM     17  C   UNL     1       1.941  12.748  18.737  0.00  0.00    +0.000 C 
ATOM     18  C   UNL     1       2.598  13.365  19.979  0.00  0.00    +0.000 C 
BRANCH   8  20
ATOM     19  C   UNL     1       5.235  15.113  20.571  0.00  0.00    +0.000 C 
ATOM     20  C   UNL     1       4.238  15.669  19.566  0.00  0.00    +0.000 C 
ATOM     21  C   UNL     1       4.767  16.739  18.619  0.00  0.00    +0.000 C 
ATOM     22  C   UNL     1       4.521  15.362  18.095  0.00  0.00    +0.000 C 
ENDBRANCH   8  20
ENDBRANCH   1  15
BRANCH   3  23
ATOM     23  C   UNL     1       2.362   7.353  17.377  0.00  0.00    +0.000 C 
BRANCH  23  24
ATOM     24  C   UNL     1       3.485   6.420  17.803  0.00  0.00    +0.000 A 
ATOM     25  N   UNL     1       4.678   6.935  17.868  0.00  0.00    +0.000 NA
ATOM     26  N   UNL     1       5.697   6.108  18.220  0.00  0.00    +0.000 N 
ATOM     27  C   UNL     1       5.591   4.768  18.476  0.00  0.00    +0.000 A 
ATOM     28  O   UNL     1       6.569   4.062  18.688  0.00  0.00    +0.000 OA
ATOM     29  C   UNL     1       4.214   4.219  18.486  0.00  0.00    +0.000 A 
ATOM     30  C   UNL     1       3.171   4.998  18.145  0.00  0.00    +0.000 A 
ATOM     31  C   UNL     1       1.759   4.482  18.116  0.00  0.00    +0.000 C 
ATOM     32  C   UNL     1       1.667   2.956  18.213  0.00  0.00    +0.000 C 
ATOM     33  C   UNL     1       2.625   2.419  19.268  0.00  0.00    +0.000 C 
ATOM     34  C   UNL     1       4.067   2.782  18.911  0.00  0.00    +0.000 C 
ATOM     35  H   UNL     1       6.631   6.501  18.202  0.00  0.00    +0.000 HD
ENDBRANCH  23  24
ENDBRANCH   3  23
TORSDOF 4
ENDMDL
MODEL 2
REMARK VINA RESULT:      -8.7      1.204      2.075
REMARK  Name = 
REMARK  5 active torsions:
REMARK  status: ('A' for Active; 'I' for Inactive)
REMARK    1  A    between atoms: C_1  and  C_2
REMARK    2  A    between atoms: C_2  and  C_3
REMARK    3  A    between atoms: C_10  and  C_12
REMARK    4  A    between atoms: C_14  and  C_15
REMARK    5  A    between atoms: C_15  and  C_16
REMARK                            x       y       z     vdW  Elec       q    Type
REMARK                         _______ _______ _______ _____ _____    ______ ____
ROOT
ATOM      1  C   UNL     1       0.542  10.011  19.302  0.00  0.00    +0.000 A 
ATOM      2  C   UNL     1       1.182   9.275  18.299  0.00  0.00    +0.000 A 
ATOM      3  C   UNL     1       1.873   8.089  18.626  0.00  0.00    +0.000 A 
ATOM      4  C   UNL     1       2.013   7.701  19.968  0.00  0.00    +0.000 A 
ATOM      5  C   UNL     1       1.346   8.405  20.952  0.00  0.00    +0.000 A 
ATOM      6  C   UNL     1       0.556   9.472  20.580  0.00  0.00    +0.000 A 
ATOM      7  F   UNL     1      -0.274   9.899  21.516  0.00  0.00    +0.000 F 
ENDROOT
BRANCH   1  15
ATOM      8  C   UNL     1       2.678  15.801  19.921  0.00  0.00    +0.000 C 
ATOM      9  O   UNL     1       2.172  16.924  19.976  0.00  0.00    +0.000 OA
ATOM     10  N   UNL     1       1.976  14.652  20.201  0.00  0.00    +0.000 N 
ATOM     11  C   UNL     1       0.559  14.685  20.595  0.00  0.00    +0.000 C 
ATOM     12  C   UNL     1      -0.380  14.783  19.400  0.00  0.00    +0.000 C 
ATOM     13  C   UNL     1      -0.296  13.665  18.355  0.00  0.00    +0.000 C 
ATOM     14  N   UNL     1       0.482  12.481  18.735  0.00  0.00    +0.000 N 
ATOM     15  C   UNL     1      -0.192  11.267  18.958  0.00  0.00    +0.000 C 
ATOM     16  O   UNL     1      -1.415  11.170  18.835  0.00  0.00    +0.000 OA
ATOM     17  C   UNL     1       1.937  12.670  18.707  0.00  0.00    +0.000 C 
ATOM     18  C   UNL     1       2.525  13.340  19.957  0.00  0.00    +0.000 C 
BRANCH   8  20
ATOM     19  C   UNL     1       5.100  15.146  20.608  0.00  0.00    +0.000 C 
ATOM     20  C   UNL     1       4.145  15.658  19.542  0.00  0.00    +0.000 C 
ATOM     21  C   UNL     1       4.703  16.710  18.591  0.00  0.00    +0.000 C 
ATOM     22  C   UNL     1       4.503  15.316  18.095  0.00  0.00    +0.000 C 
ENDBRANCH   8  20
ENDBRANCH   1  15
BRANCH   3  23
ATOM     23  C   UNL     1       2.425   7.189  17.547  0.00  0.00    +0.000 C 
BRANCH  23  24
ATOM     24  C   UNL     1       3.186   5.993  18.098  0.00  0.00    +0.000 A 
ATOM     25  N   UNL     1       2.476   5.057  18.657  0.00  0.00    +0.000 NA
ATOM     26  N   UNL     1       3.142   3.994  19.179  0.00  0.00    +0.000 N 
ATOM     27  C   UNL     1       4.500   3.834  19.207  0.00  0.00    +0.000 A 
ATOM     28  O   UNL     1       5.038   2.897  19.785  0.00  0.00    +0.000 OA
ATOM     29  C   UNL     1       5.288   4.863  18.487  0.00  0.00    +0.000 A 
ATOM     30  C   UNL     1       4.674   5.934  17.952  0.00  0.00    +0.000 A 
ATOM     31  C   UNL     1       5.430   7.017  17.233  0.00  0.00    +0.000 C 
ATOM     32  C   UNL     1       6.946   6.934  17.431  0.00  0.00    +0.000 C 
ATOM     33  C   UNL     1       7.432   5.496  17.313  0.00  0.00    +0.000 C 
ATOM     34  C   UNL     1       6.770   4.622  18.380  0.00  0.00    +0.000 C 
ATOM     35  H   UNL     1       2.587   3.304  19.672  0.00  0.00    +0.000 HD
ENDBRANCH  23  24
ENDBRANCH   3  23
TORSDOF 4
ENDMDL
MODEL 3
REMARK VINA RESULT:      -8.4      3.893      9.877
REMARK  Name = 
REMARK  5 active torsions:
REMARK  status: ('A' for Active; 'I' for Inactive)
REMARK    1  A    between atoms: C_1  and  C_2
REMARK    2  A    between atoms: C_2  and  C_3
REMARK    3  A    between atoms: C_10  and  C_12
REMARK    4  A    between atoms: C_14  and  C_15
REMARK    5  A    between atoms: C_15  and  C_16
REMARK                            x       y       z     vdW  Elec       q    Type
REMARK                         _______ _______ _______ _____ _____    ______ ____
ROOT
ATOM      1  C   UNL     1       1.342   9.205  18.871  0.00  0.00    +0.000 A 
ATOM      2  C   UNL     1       0.510  10.135  18.239  0.00  0.00    +0.000 A 
ATOM      3  C   UNL     1      -0.531  10.756  18.961  0.00  0.00    +0.000 A 
ATOM      4  C   UNL     1      -0.805  10.365  20.281  0.00  0.00    +0.000 A 
ATOM      5  C   UNL     1       0.043   9.479  20.918  0.00  0.00    +0.000 A 
ATOM      6  C   UNL     1       1.140   9.005  20.229  0.00  0.00    +0.000 A 
ATOM      7  F   UNL     1       2.053   8.416  20.981  0.00  0.00    +0.000 F 
ENDROOT
BRANCH   1  15
ATOM      8  C   UNL     1       3.423   3.418  19.682  0.00  0.00    +0.000 C 
ATOM      9  O   UNL     1       4.451   2.804  19.389  0.00  0.00    +0.000 OA
ATOM     10  N   UNL     1       3.371   4.791  19.764  0.00  0.00    +0.000 N 
ATOM     11  C   UNL     1       4.554   5.628  19.513  0.00  0.00    +0.000 C 
ATOM     12  C   UNL     1       4.788   5.881  18.030  0.00  0.00    +0.000 C 
ATOM     13  C   UNL     1       3.658   6.566  17.253  0.00  0.00    +0.000 C 
ATOM     14  N   UNL     1       2.579   7.148  18.058  0.00  0.00    +0.000 N 
ATOM     15  C   UNL     1       2.447   8.546  18.110  0.00  0.00    +0.000 C 
ATOM     16  O   UNL     1       3.206   9.294  17.490  0.00  0.00    +0.000 OA
ATOM     17  C   UNL     1       1.646   6.169  18.630  0.00  0.00    +0.000 C 
ATOM     18  C   UNL     1       2.126   5.502  19.926  0.00  0.00    +0.000 C 
BRANCH   8  20
ATOM     19  C   UNL     1       1.715   2.535  21.433  0.00  0.00    +0.000 C 
ATOM     20  C   UNL     1       2.147   2.644  19.980  0.00  0.00    +0.000 C 
ATOM     21  C   UNL     1       1.876   1.425  19.107  0.00  0.00    +0.000 C 
ATOM     22  C   UNL     1       1.026   2.641  18.940  0.00  0.00    +0.000 C 
ENDBRANCH   8  20
ENDBRANCH   1  15
BRANCH   3  23
ATOM     23  C   UNL     1      -1.333  11.882  18.355  0.00  0.00    +0.000 C 
BRANCH  23  24
ATOM     24  C   UNL     1      -2.831  11.620  18.361  0.00  0.00    +0.000 A 
ATOM     25  N   UNL     1      -3.288  10.827  17.437  0.00  0.00    +0.000 NA
ATOM     26  N   UNL     1      -4.627  10.603  17.411  0.00  0.00    +0.000 N 
ATOM     27  C   UNL     1      -5.552  11.168  18.247  0.00  0.00    +0.000 A 
ATOM     28  O   UNL     1      -6.756  11.001  18.101  0.00  0.00    +0.000 OA
ATOM     29  C   UNL     1      -5.005  11.996  19.349  0.00  0.00    +0.000 A 
ATOM     30  C   UNL     1      -3.685  12.246  19.418  0.00  0.00    +0.000 A 
ATOM     31  C   UNL     1      -3.085  13.098  20.502  0.00  0.00    +0.000 C 
ATOM     32  C   UNL     1      -4.127  13.876  21.311  0.00  0.00    +0.000 C 
ATOM     33  C   UNL     1      -5.323  12.995  21.646  0.00  0.00    +0.000 C 
ATOM     34  C   UNL     1      -5.996  12.501  20.364  0.00  0.00    +0.000 C 
ATOM     35  H   UNL     1      -4.982  10.039  16.647  0.00  0.00    +0.000 HD
ENDBRANCH  23  24
ENDBRANCH   3  23
TORSDOF 4
ENDMDL
MODEL 4
REMARK VINA RESULT:      -8.2      4.513      7.938
REMARK  Name = 
REMARK  5 active torsions:
REMARK  status: ('A' for Active; 'I' for Inactive)
REMARK    1  A    between atoms: C_1  and  C_2
REMARK    2  A    between atoms: C_2  and  C_3
REMARK    3  A    between atoms: C_10  and  C_12
REMARK    4  A    between atoms: C_14  and  C_15
REMARK    5  A    between atoms: C_15  and  C_16
REMARK                            x       y       z     vdW  Elec       q    Type
REMARK                         _______ _______ _______ _____ _____    ______ ____
ROOT
ATOM      1  C   UNL     1       5.345  15.679  19.948  0.00  0.00    +0.000 A 
ATOM      2  C   UNL     1       4.171  15.232  19.333  0.00  0.00    +0.000 A 
ATOM      3  C   UNL     1       3.210  14.519  20.081  0.00  0.00    +0.000 A 
ATOM      4  C   UNL     1       3.475  14.161  21.412  0.00  0.00    +0.000 A 
ATOM      5  C   UNL     1       4.615  14.638  22.030  0.00  0.00    +0.000 A 
ATOM      6  C   UNL     1       5.461  15.459  21.313  0.00  0.00    +0.000 A 
ATOM      7  F   UNL     1       6.349  16.111  22.043  0.00  0.00    +0.000 F 
ENDROOT
BRANCH   1  15
ATOM      8  C   UNL     1      11.307  14.136  19.208  0.00  0.00    +0.000 C 
ATOM      9  O   UNL     1      12.333  14.729  18.867  0.00  0.00    +0.000 OA
ATOM     10  N   UNL     1      10.197  14.786  19.695  0.00  0.00    +0.000 N 
ATOM     11  C   UNL     1      10.161  16.249  19.852  0.00  0.00    +0.000 C 
ATOM     12  C   UNL     1       9.821  16.969  18.554  0.00  0.00    +0.000 C 
ATOM     13  C   UNL     1       8.483  16.617  17.893  0.00  0.00    +0.000 C 
ATOM     14  N   UNL     1       7.548  15.829  18.703  0.00  0.00    +0.000 N 
ATOM     15  C   UNL     1       6.365  16.436  19.160  0.00  0.00    +0.000 C 
ATOM     16  O   UNL     1       6.089  17.607  18.891  0.00  0.00    +0.000 OA
ATOM     17  C   UNL     1       7.899  14.410  18.836  0.00  0.00    +0.000 C 
ATOM     18  C   UNL     1       8.946  14.104  19.916  0.00  0.00    +0.000 C 
BRANCH   8  20
ATOM     19  C   UNL     1      10.654  12.025  17.838  0.00  0.00    +0.000 C 
ATOM     20  C   UNL     1      11.249  12.619  19.104  0.00  0.00    +0.000 C 
ATOM     21  C   UNL     1      10.969  11.863  20.396  0.00  0.00    +0.000 C 
ATOM     22  C   UNL     1      12.333  11.790  19.794  0.00  0.00    +0.000 C 
ENDBRANCH   8  20
ENDBRANCH   1  15
BRANCH   3  23
ATOM     23  C   UNL     1       1.865  14.174  19.490  0.00  0.00    +0.000 C 
BRANCH  23  24
ATOM     24  C   UNL     1       1.720  12.698  19.154  0.00  0.00    +0.000 A 
ATOM     25  N   UNL     1       2.346  12.276  18.095  0.00  0.00    +0.000 NA
ATOM     26  N   UNL     1       2.205  10.966  17.765  0.00  0.00    +0.000 N 
ATOM     27  C   UNL     1       1.431  10.051  18.425  0.00  0.00    +0.000 A 
ATOM     28  O   UNL     1       1.270   8.909  18.013  0.00  0.00    +0.000 OA
ATOM     29  C   UNL     1       0.799  10.525  19.679  0.00  0.00    +0.000 A 
ATOM     30  C   UNL     1       0.909  11.814  20.049  0.00  0.00    +0.000 A 
ATOM     31  C   UNL     1       0.267  12.349  21.299  0.00  0.00    +0.000 C 
ATOM     32  C   UNL     1      -0.745  11.384  21.924  0.00  0.00    +0.000 C 
ATOM     33  C   UNL     1      -0.207   9.959  21.926  0.00  0.00    +0.000 C 
ATOM     34  C   UNL     1       0.067   9.492  20.495  0.00  0.00    +0.000 C 
ATOM     35  H   UNL     1       2.641  10.662  16.902  0.00  0.00    +0.000 HD
ENDBRANCH  23  24
ENDBRANCH   3  23
TORSDOF 4
ENDMDL
MODEL 5
REMARK VINA RESULT:      -8.1      2.149      2.975
REMARK  Name = 
REMARK  5 active torsions:
REMARK  status: ('A' for Active; 'I' for Inactive)
REMARK    1  A    between atoms: C_1  and  C_2
REMARK    2  A    between atoms: C_2  and  C_3
REMARK    3  A    between atoms: C_10  and  C_12
REMARK    4  A    between atoms: C_14  and  C_15
REMARK    5  A    between atoms: C_15  and  C_16
REMARK                            x       y       z     vdW  Elec       q    Type
REMARK                         _______ _______ _______ _____ _____    ______ ____
ROOT
ATOM      1  C   UNL     1      -0.310  10.889  19.514  0.00  0.00    +0.000 A 
ATOM      2  C   UNL     1       0.940  10.271  19.403  0.00  0.00    +0.000 A 
ATOM      3  C   UNL     1       1.196   9.384  18.336  0.00  0.00    +0.000 A 
ATOM      4  C   UNL     1       0.167   9.033  17.447  0.00  0.00    +0.000 A 
ATOM      5  C   UNL     1      -1.053   9.675  17.533  0.00  0.00    +0.000 A 
ATOM      6  C   UNL     1      -1.221  10.648  18.496  0.00  0.00    +0.000 A 
ATOM      7  F   UNL     1      -2.283  11.416  18.327  0.00  0.00    +0.000 F 
ENDROOT
BRANCH   1  15
ATOM      8  C   UNL     1       1.569  16.786  19.917  0.00  0.00    +0.000 C 
ATOM      9  O   UNL     1       1.702  17.607  20.827  0.00  0.00    +0.000 OA
ATOM     10  N   UNL     1       1.536  15.428  20.135  0.00  0.00    +0.000 N 
ATOM     11  C   UNL     1       1.667  14.856  21.484  0.00  0.00    +0.000 C 
ATOM     12  C   UNL     1       0.350  14.854  22.249  0.00  0.00    +0.000 C 
ATOM     13  C   UNL     1      -0.822  14.092  21.617  0.00  0.00    +0.000 C 
ATOM     14  N   UNL     1      -0.493  13.224  20.482  0.00  0.00    +0.000 N 
ATOM     15  C   UNL     1      -0.584  11.831  20.642  0.00  0.00    +0.000 C 
ATOM     16  O   UNL     1      -0.942  11.321  21.706  0.00  0.00    +0.000 OA
ATOM     17  C   UNL     1      -0.225  13.935  19.225  0.00  0.00    +0.000 C 
ATOM     18  C   UNL     1       1.198  14.493  19.090  0.00  0.00    +0.000 C 
BRANCH   8  20
ATOM     19  C   UNL     1       2.580  16.940  17.525  0.00  0.00    +0.000 C 
ATOM     20  C   UNL     1       1.446  17.275  18.481  0.00  0.00    +0.000 C 
ATOM     21  C   UNL     1       0.780  18.630  18.282  0.00  0.00    +0.000 C 
ATOM     22  C   UNL     1       0.054  17.396  17.860  0.00  0.00    +0.000 C 
ENDBRANCH   8  20
ENDBRANCH   1  15
BRANCH   3  23
ATOM     23  C   UNL     1       2.582   8.837  18.095  0.00  0.00    +0.000 C 
BRANCH  23  24
ATOM     24  C   UNL     1       2.769   7.425  18.629  0.00  0.00    +0.000 A 
ATOM     25  N   UNL     1       2.116   7.119  19.711  0.00  0.00    +0.000 NA
ATOM     26  N   UNL     1       2.293   5.871  20.216  0.00  0.00    +0.000 N 
ATOM     27  C   UNL     1       3.129   4.912  19.712  0.00  0.00    +0.000 A 
ATOM     28  O   UNL     1       3.316   3.842  20.278  0.00  0.00    +0.000 OA
ATOM     29  C   UNL     1       3.794   5.245  18.430  0.00  0.00    +0.000 A 
ATOM     30  C   UNL     1       3.650   6.468  17.889  0.00  0.00    +0.000 A 
ATOM     31  C   UNL     1       4.323   6.862  16.603  0.00  0.00    +0.000 C 
ATOM     32  C   UNL     1       5.396   5.868  16.149  0.00  0.00    +0.000 C 
ATOM     33  C   UNL     1       4.914   4.433  16.317  0.00  0.00    +0.000 C 
ATOM     34  C   UNL     1       4.599   4.147  17.786  0.00  0.00    +0.000 C 
ATOM     35  H   UNL     1       1.833   5.665  21.096  0.00  0.00    +0.000 HD
ENDBRANCH  23  24
ENDBRANCH   3  23
TORSDOF 4
ENDMDL
MODEL 6
REMARK VINA RESULT:      -8.1      3.827      9.840
REMARK  Name = 
REMARK  5 active torsions:
REMARK  status: ('A' for Active; 'I' for Inactive)
REMARK    1  A    between atoms: C_1  and  C_2
REMARK    2  A    between atoms: C_2  and  C_3
REMARK    3  A    between atoms: C_10  and  C_12
REMARK    4  A    between atoms: C_14  and  C_15
REMARK    5  A    between atoms: C_15  and  C_16
REMARK                            x       y       z     vdW  Elec       q    Type
REMARK                         _______ _______ _______ _____ _____    ______ ____
ROOT
ATOM      1  C   UNL     1       1.292   9.086  18.676  0.00  0.00    +0.000 A 
ATOM      2  C   UNL     1       0.332   9.812  17.962  0.00  0.00    +0.000 A 
ATOM      3  C   UNL     1      -0.789  10.346  18.631  0.00  0.00    +0.000 A 
ATOM      4  C   UNL     1      -1.004  10.060  19.989  0.00  0.00    +0.000 A 
ATOM      5  C   UNL     1      -0.035   9.379  20.701  0.00  0.00    +0.000 A 
ATOM      6  C   UNL     1       1.121   9.002  20.050  0.00  0.00    +0.000 A 
ATOM      7  F   UNL     1       2.110   8.635  20.846  0.00  0.00    +0.000 F 
ENDROOT
BRANCH   1  15
ATOM      8  C   UNL     1       3.813   3.498  19.624  0.00  0.00    +0.000 C 
ATOM      9  O   UNL     1       4.901   2.972  19.383  0.00  0.00    +0.000 OA
ATOM     10  N   UNL     1       3.641   4.862  19.693  0.00  0.00    +0.000 N 
ATOM     11  C   UNL     1       4.761   5.795  19.491  0.00  0.00    +0.000 C 
ATOM     12  C   UNL     1       5.042   6.062  18.018  0.00  0.00    +0.000 C 
ATOM     13  C   UNL     1       3.895   6.646  17.185  0.00  0.00    +0.000 C 
ATOM     14  N   UNL     1       2.735   7.137  17.935  0.00  0.00    +0.000 N 
ATOM     15  C   UNL     1       2.483   8.520  17.970  0.00  0.00    +0.000 C 
ATOM     16  O   UNL     1       3.204   9.327  17.381  0.00  0.00    +0.000 OA
ATOM     17  C   UNL     1       1.862   6.085  18.471  0.00  0.00    +0.000 C 
ATOM     18  C   UNL     1       2.335   5.465  19.793  0.00  0.00    +0.000 C 
BRANCH   8  20
ATOM     19  C   UNL     1       2.072   2.523  21.293  0.00  0.00    +0.000 C 
ATOM     20  C   UNL     1       2.594   2.620  19.868  0.00  0.00    +0.000 C 
ATOM     21  C   UNL     1       2.496   1.350  19.031  0.00  0.00    +0.000 C 
ATOM     22  C   UNL     1       1.554   2.475  18.757  0.00  0.00    +0.000 C 
ENDBRANCH   8  20
ENDBRANCH   1  15
BRANCH   3  23
ATOM     23  C   UNL     1      -1.748  11.272  17.923  0.00  0.00    +0.000 C 
BRANCH  23  24
ATOM     24  C   UNL     1      -2.583  12.111  18.877  0.00  0.00    +0.000 A 
ATOM     25  N   UNL     1      -1.949  13.009  19.573  0.00  0.00    +0.000 NA
ATOM     26  N   UNL     1      -2.675  13.749  20.450  0.00  0.00    +0.000 N 
ATOM     27  C   UNL     1      -4.014  13.611  20.701  0.00  0.00    +0.000 A 
ATOM     28  O   UNL     1      -4.585  14.244  21.580  0.00  0.00    +0.000 OA
ATOM     29  C   UNL     1      -4.737  12.648  19.836  0.00  0.00    +0.000 A 
ATOM     30  C   UNL     1      -4.062  11.892  18.951  0.00  0.00    +0.000 A 
ATOM     31  C   UNL     1      -4.746  10.885  18.068  0.00  0.00    +0.000 C 
ATOM     32  C   UNL     1      -6.193  10.599  18.480  0.00  0.00    +0.000 C 
ATOM     33  C   UNL     1      -6.924  11.889  18.828  0.00  0.00    +0.000 C 
ATOM     34  C   UNL     1      -6.233  12.594  19.996  0.00  0.00    +0.000 C 
ATOM     35  H   UNL     1      -2.162  14.398  21.036  0.00  0.00    +0.000 HD
ENDBRANCH  23  24
ENDBRANCH   3  23
TORSDOF 4
ENDMDL
MODEL 7
REMARK VINA RESULT:      -8.1      1.563      2.154
REMARK  Name = 
REMARK  5 active torsions:
REMARK  status: ('A' for Active; 'I' for Inactive)
REMARK    1  A    between atoms: C_1  and  C_2
REMARK    2  A    between atoms: C_2  and  C_3
REMARK    3  A    between atoms: C_10  and  C_12
REMARK    4  A    between atoms: C_14  and  C_15
REMARK    5  A    between atoms: C_15  and  C_16
REMARK                            x       y       z     vdW  Elec       q    Type
REMARK                         _______ _______ _______ _____ _____    ______ ____
ROOT
ATOM      1  C   UNL     1       0.549   9.749  19.472  0.00  0.00    +0.000 A 
ATOM      2  C   UNL     1       1.462   9.356  18.487  0.00  0.00    +0.000 A 
ATOM      3  C   UNL     1       2.281   8.227  18.696  0.00  0.00    +0.000 A 
ATOM      4  C   UNL     1       2.263   7.560  19.931  0.00  0.00    +0.000 A 
ATOM      5  C   UNL     1       1.333   7.923  20.886  0.00  0.00    +0.000 A 
ATOM      6  C   UNL     1       0.444   8.935  20.590  0.00  0.00    +0.000 A 
ATOM      7  F   UNL     1      -0.590   9.021  21.409  0.00  0.00    +0.000 F 
ENDROOT
BRANCH   1  15
ATOM      8  C   UNL     1       2.293  15.689  19.860  0.00  0.00    +0.000 C 
ATOM      9  O   UNL     1       1.714  16.768  20.001  0.00  0.00    +0.000 OA
ATOM     10  N   UNL     1       1.729  14.487  20.221  0.00  0.00    +0.000 N 
ATOM     11  C   UNL     1       0.385  14.408  20.813  0.00  0.00    +0.000 C 
ATOM     12  C   UNL     1      -0.719  14.434  19.765  0.00  0.00    +0.000 C 
ATOM     13  C   UNL     1      -0.698  13.327  18.703  0.00  0.00    +0.000 C 
ATOM     14  N   UNL     1       0.216  12.208  18.953  0.00  0.00    +0.000 N 
ATOM     15  C   UNL     1      -0.322  10.945  19.253  0.00  0.00    +0.000 C 
ATOM     16  O   UNL     1      -1.539  10.751  19.303  0.00  0.00    +0.000 OA
ATOM     17  C   UNL     1       1.633  12.512  18.722  0.00  0.00    +0.000 C 
ATOM     18  C   UNL     1       2.339  13.224  19.884  0.00  0.00    +0.000 C 
BRANCH   8  20
ATOM     19  C   UNL     1       4.836  15.260  20.197  0.00  0.00    +0.000 C 
ATOM     20  C   UNL     1       3.697  15.664  19.274  0.00  0.00    +0.000 C 
ATOM     21  C   UNL     1       4.019  16.737  18.242  0.00  0.00    +0.000 C 
ATOM     22  C   UNL     1       3.873  15.320  17.795  0.00  0.00    +0.000 C 
ENDBRANCH   8  20
ENDBRANCH   1  15
BRANCH   3  23
ATOM     23  C   UNL     1       3.150   7.681  17.588  0.00  0.00    +0.000 C 
BRANCH  23  24
ATOM     24  C   UNL     1       3.198   6.162  17.559  0.00  0.00    +0.000 A 
ATOM     25  N   UNL     1       2.167   5.536  18.046  0.00  0.00    +0.000 NA
ATOM     26  N   UNL     1       2.205   4.178  18.053  0.00  0.00    +0.000 N 
ATOM     27  C   UNL     1       3.250   3.403  17.629  0.00  0.00    +0.000 A 
ATOM     28  O   UNL     1       3.257   2.185  17.758  0.00  0.00    +0.000 OA
ATOM     29  C   UNL     1       4.377   4.128  16.994  0.00  0.00    +0.000 A 
ATOM     30  C   UNL     1       4.385   5.473  16.963  0.00  0.00    +0.000 A 
ATOM     31  C   UNL     1       5.515   6.255  16.352  0.00  0.00    +0.000 C 
ATOM     32  C   UNL     1       6.754   5.404  16.057  0.00  0.00    +0.000 C 
ATOM     33  C   UNL     1       6.362   4.071  15.434  0.00  0.00    +0.000 C 
ATOM     34  C   UNL     1       5.465   3.281  16.389  0.00  0.00    +0.000 C 
ATOM     35  H   UNL     1       1.428   3.701  18.495  0.00  0.00    +0.000 HD
ENDBRANCH  23  24
ENDBRANCH   3  23
TORSDOF 4
ENDMDL
MODEL 8
REMARK VINA RESULT:      -7.9      3.642      5.373
REMARK  Name = 
REMARK  5 active torsions:
REMARK  status: ('A' for Active; 'I' for Inactive)
REMARK    1  A    between atoms: C_1  and  C_2
REMARK    2  A    between atoms: C_2  and  C_3
REMARK    3  A    between atoms: C_10  and  C_12
REMARK    4  A    between atoms: C_14  and  C_15
REMARK    5  A    between atoms: C_15  and  C_16
REMARK                            x       y       z     vdW  Elec       q    Type
REMARK                         _______ _______ _______ _____ _____    ______ ____
ROOT
ATOM      1  C   UNL     1       0.233  11.909  19.498  0.00  0.00    +0.000 A 
ATOM      2  C   UNL     1       1.275  10.990  19.335  0.00  0.00    +0.000 A 
ATOM      3  C   UNL     1       1.101   9.868  18.496  0.00  0.00    +0.000 A 
ATOM      4  C   UNL     1      -0.148   9.612  17.910  0.00  0.00    +0.000 A 
ATOM      5  C   UNL     1      -1.163  10.542  18.037  0.00  0.00    +0.000 A 
ATOM      6  C   UNL     1      -0.911  11.702  18.740  0.00  0.00    +0.000 A 
ATOM      7  F   UNL     1      -1.805  12.659  18.566  0.00  0.00    +0.000 F 
ENDROOT
BRANCH   1  15
ATOM      8  C   UNL     1      -4.117  14.538  23.054  0.00  0.00    +0.000 C 
ATOM      9  O   UNL     1      -4.261  15.632  23.603  0.00  0.00    +0.000 OA
ATOM     10  N   UNL     1      -3.272  14.344  21.985  0.00  0.00    +0.000 N 
ATOM     11  C   UNL     1      -2.479  15.444  21.415  0.00  0.00    +0.000 C 
ATOM     12  C   UNL     1      -1.192  15.700  22.188  0.00  0.00    +0.000 C 
ATOM     13  C   UNL     1      -0.205  14.532  22.304  0.00  0.00    +0.000 C 
ATOM     14  N   UNL     1      -0.469  13.374  21.444  0.00  0.00    +0.000 N 
ATOM     15  C   UNL     1       0.414  13.100  20.384  0.00  0.00    +0.000 C 
ATOM     16  O   UNL     1       1.405  13.799  20.166  0.00  0.00    +0.000 OA
ATOM     17  C   UNL     1      -1.585  12.527  21.882  0.00  0.00    +0.000 C 
ATOM     18  C   UNL     1      -2.976  13.030  21.471  0.00  0.00    +0.000 C 
BRANCH   8  20
ATOM     19  C   UNL     1      -4.219  12.403  24.536  0.00  0.00    +0.000 C 
ATOM     20  C   UNL     1      -4.908  13.338  23.555  0.00  0.00    +0.000 C 
ATOM     21  C   UNL     1      -5.851  12.683  22.554  0.00  0.00    +0.000 C 
ATOM     22  C   UNL     1      -6.426  13.460  23.692  0.00  0.00    +0.000 C 
ENDBRANCH   8  20
ENDBRANCH   1  15
BRANCH   3  23
ATOM     23  C   UNL     1       2.258   8.956  18.170  0.00  0.00    +0.000 C 
BRANCH  23  24
ATOM     24  C   UNL     1       2.272   7.686  19.006  0.00  0.00    +0.000 A 
ATOM     25  N   UNL     1       1.592   7.710  20.114  0.00  0.00    +0.000 NA
ATOM     26  N   UNL     1       1.616   6.593  20.887  0.00  0.00    +0.000 N 
ATOM     27  C   UNL     1       2.325   5.452  20.626  0.00  0.00    +0.000 A 
ATOM     28  O   UNL     1       2.382   4.519  21.418  0.00  0.00    +0.000 OA
ATOM     29  C   UNL     1       3.019   5.408  19.317  0.00  0.00    +0.000 A 
ATOM     30  C   UNL     1       3.024   6.489  18.516  0.00  0.00    +0.000 A 
ATOM     31  C   UNL     1       3.734   6.502  17.190  0.00  0.00    +0.000 C 
ATOM     32  C   UNL     1       4.674   5.309  16.991  0.00  0.00    +0.000 C 
ATOM     33  C   UNL     1       4.019   4.017  17.461  0.00  0.00    +0.000 C 
ATOM     34  C   UNL     1       3.679   4.104  18.950  0.00  0.00    +0.000 C 
ATOM     35  H   UNL     1       1.140   6.644  21.780  0.00  0.00    +0.000 HD
ENDBRANCH  23  24
ENDBRANCH   3  23
TORSDOF 4
ENDMDL
MODEL 9
REMARK VINA RESULT:      -7.9      5.383      7.639
REMARK  Name = 
REMARK  5 active torsions:
REMARK  status: ('A' for Active; 'I' for Inactive)
REMARK    1  A    between atoms: C_1  and  C_2
REMARK    2  A    between atoms: C_2  and  C_3
REMARK    3  A    between atoms: C_10  and  C_12
REMARK    4  A    between atoms: C_14  and  C_15
REMARK    5  A    between atoms: C_15  and  C_16
REMARK                            x       y       z     vdW  Elec       q    Type
REMARK                         _______ _______ _______ _____ _____    ______ ____
ROOT
ATOM      1  C   UNL     1      -5.224  12.124  19.451  0.00  0.00    +0.000 A 
ATOM      2  C   UNL     1      -3.947  11.657  19.121  0.00  0.00    +0.000 A 
ATOM      3  C   UNL     1      -3.570  11.533  17.767  0.00  0.00    +0.000 A 
ATOM      4  C   UNL     1      -4.506  11.772  16.748  0.00  0.00    +0.000 A 
ATOM      5  C   UNL     1      -5.752  12.272  17.074  0.00  0.00    +0.000 A 
ATOM      6  C   UNL     1      -6.036  12.525  18.400  0.00  0.00    +0.000 A 
ATOM      7  F   UNL     1      -7.107  13.271  18.604  0.00  0.00    +0.000 F 
ENDROOT
BRANCH   1  15
ATOM      8  C   UNL     1      -2.018  14.998  23.916  0.00  0.00    +0.000 C 
ATOM      9  O   UNL     1      -2.016  14.979  25.148  0.00  0.00    +0.000 OA
ATOM     10  N   UNL     1      -2.527  13.971  23.154  0.00  0.00    +0.000 N 
ATOM     11  C   UNL     1      -3.104  12.764  23.766  0.00  0.00    +0.000 C 
ATOM     12  C   UNL     1      -4.553  12.959  24.193  0.00  0.00    +0.000 C 
ATOM     13  C   UNL     1      -5.554  13.355  23.101  0.00  0.00    +0.000 C 
ATOM     14  N   UNL     1      -5.078  13.248  21.718  0.00  0.00    +0.000 N 
ATOM     15  C   UNL     1      -5.627  12.258  20.884  0.00  0.00    +0.000 C 
ATOM     16  O   UNL     1      -6.501  11.485  21.282  0.00  0.00    +0.000 OA
ATOM     17  C   UNL     1      -4.149  14.308  21.306  0.00  0.00    +0.000 C 
ATOM     18  C   UNL     1      -2.690  14.086  21.725  0.00  0.00    +0.000 C 
BRANCH   8  20
ATOM     19  C   UNL     1      -0.120  15.984  22.435  0.00  0.00    +0.000 C 
ATOM     20  C   UNL     1      -1.426  16.194  23.184  0.00  0.00    +0.000 C 
ATOM     21  C   UNL     1      -1.604  17.552  23.853  0.00  0.00    +0.000 C 
ATOM     22  C   UNL     1      -2.372  17.248  22.608  0.00  0.00    +0.000 C 
ENDBRANCH   8  20
ENDBRANCH   1  15
BRANCH   3  23
ATOM     23  C   UNL     1      -2.149  11.196  17.384  0.00  0.00    +0.000 C 
BRANCH  23  24
ATOM     24  C   UNL     1      -1.219  11.077  18.581  0.00  0.00    +0.000 A 
ATOM     25  N   UNL     1      -1.174   9.920  19.173  0.00  0.00    +0.000 NA
ATOM     26  N   UNL     1      -0.369   9.804  20.261  0.00  0.00    +0.000 N 
ATOM     27  C   UNL     1       0.373  10.809  20.820  0.00  0.00    +0.000 A 
ATOM     28  O   UNL     1       0.998  10.659  21.863  0.00  0.00    +0.000 OA
ATOM     29  C   UNL     1       0.382  12.094  20.081  0.00  0.00    +0.000 A 
ATOM     30  C   UNL     1      -0.398  12.257  18.997  0.00  0.00    +0.000 A 
ATOM     31  C   UNL     1      -0.444  13.549  18.228  0.00  0.00    +0.000 C 
ATOM     32  C   UNL     1       0.231  14.715  18.956  0.00  0.00    +0.000 C 
ATOM     33  C   UNL     1       1.549  14.277  19.581  0.00  0.00    +0.000 C 
ATOM     34  C   UNL     1       1.310  13.160  20.599  0.00  0.00    +0.000 C 
ATOM     35  H   UNL     1      -0.393   8.920  20.756  0.00  0.00    +0.000 HD
ENDBRANCH  23  24
ENDBRANCH   3  23
TORSDOF 4
ENDMDL
