MODEL 1
REMARK VINA RESULT:      -6.6      0.000      0.000
REMARK  Name = 
REMARK  13 active torsions:
REMARK  status: ('A' for Active; 'I' for Inactive)
REMARK    1  A    between atoms: C_1  and  C_2
REMARK    2  A    between atoms: C_2  and  C_3
REMARK    3  A    between atoms: C_3  and  C_4
REMARK    4  A    between atoms: C_4  and  C_5
REMARK    5  A    between atoms: C_5  and  C_6
REMARK    6  A    between atoms: C_6  and  C_7
REMARK    7  A    between atoms: C_7  and  C_8
REMARK    8  A    between atoms: C_8  and  C_9
REMARK    9  A    between atoms: C_11  and  C_12
REMARK   10  A    between atoms: C_12  and  O_13
REMARK   11  A    between atoms: C_14  and  C_15
REMARK   12  A    between atoms: C_14  and  O_16
REMARK   13  A    between atoms: O_16  and  C_17
REMARK                            x       y       z     vdW  Elec       q    Type
REMARK                         _______ _______ _______ _____ _____    ______ ____
ROOT
ATOM      1  C   UNL     1       4.567   4.692  17.856  0.00  0.00    +0.000 C 
ATOM      2  C   UNL     1       4.103   3.209  17.893  0.00  0.00    +0.000 C 
ATOM      3  C   UNL     1       3.472   2.771  19.245  0.00  0.00    +0.000 C 
ATOM      4  C   UNL     1       2.462   3.861  19.691  0.00  0.00    +0.000 C 
ATOM      5  C   UNL     1       1.950   3.629  21.118  0.00  0.00    +0.000 C 
ATOM      6  O   UNL     1       3.159   5.124  19.699  0.00  0.00    +0.000 OA
ATOM      7  O   UNL     1       3.470   5.501  18.311  0.00  0.00    +0.000 OA
ENDROOT
BRANCH   4   8
ATOM      8  O   UNL     1       1.383   3.785  18.742  0.00  0.00    +0.000 OA
ATOM      9  C   UNL     1       0.607   2.603  18.768  0.00  0.00    +0.000 C 
ENDBRANCH   4   8
BRANCH   1  10
ATOM     10  C   UNL     1       5.819   4.840  18.754  0.00  0.00    +0.000 C 
BRANCH  10  11
ATOM     11  C   UNL     1       7.225   4.968  18.167  0.00  0.00    +0.000 C 
BRANCH  11  13
ATOM     12  C   UNL     1       7.614   7.442  17.595  0.00  0.00    +0.000 C 
ATOM     13  C   UNL     1       7.758   6.342  18.625  0.00  0.00    +0.000 C 
ENDBRANCH  11  13
ENDBRANCH  10  11
ENDBRANCH   1  10
BRANCH   1  14
ATOM     14  C   UNL     1       4.919   5.139  16.411  0.00  0.00    +0.000 C 
BRANCH  14  15
ATOM     15  C   UNL     1       5.286   4.022  15.419  0.00  0.00    +0.000 C 
BRANCH  15  16
ATOM     16  C   UNL     1       6.406   4.477  14.473  0.00  0.00    +0.000 C 
ATOM     17  C   UNL     1       6.298   3.819  13.105  0.00  0.00    +0.000 C 
ENDBRANCH  15  16
ENDBRANCH  14  15
ENDBRANCH   1  14
BRANCH   3  18
ATOM     18  C   UNL     1       4.487   2.364  20.330  0.00  0.00    +0.000 C 
BRANCH  18  19
ATOM     19  O   UNL     1       5.241   1.233  19.911  0.00  0.00    +0.000 OA
ATOM     20  H   UNL     1       4.838   0.904  19.088  0.00  0.00    +0.000 HD
ENDBRANCH  18  19
ENDBRANCH   3  18
TORSDOF 9
ENDMDL
MODEL 2
REMARK VINA RESULT:      -6.3      2.069      4.993
REMARK  Name = 
REMARK  13 active torsions:
REMARK  status: ('A' for Active; 'I' for Inactive)
REMARK    1  A    between atoms: C_1  and  C_2
REMARK    2  A    between atoms: C_2  and  C_3
REMARK    3  A    between atoms: C_3  and  C_4
REMARK    4  A    between atoms: C_4  and  C_5
REMARK    5  A    between atoms: C_5  and  C_6
REMARK    6  A    between atoms: C_6  and  C_7
REMARK    7  A    between atoms: C_7  and  C_8
REMARK    8  A    between atoms: C_8  and  C_9
REMARK    9  A    between atoms: C_11  and  C_12
REMARK   10  A    between atoms: C_12  and  O_13
REMARK   11  A    between atoms: C_14  and  C_15
REMARK   12  A    between atoms: C_14  and  O_16
REMARK   13  A    between atoms: O_16  and  C_17
REMARK                            x       y       z     vdW  Elec       q    Type
REMARK                         _______ _______ _______ _____ _____    ______ ____
ROOT
ATOM      1  C   UNL     1       5.593   4.473  15.848  0.00  0.00    +0.000 C 
ATOM      2  C   UNL     1       5.111   5.834  16.424  0.00  0.00    +0.000 C 
ATOM      3  C   UNL     1       5.665   6.160  17.840  0.00  0.00    +0.000 C 
ATOM      4  C   UNL     1       7.188   5.862  17.851  0.00  0.00    +0.000 C 
ATOM      5  C   UNL     1       7.785   5.941  19.263  0.00  0.00    +0.000 C 
ATOM      6  O   UNL     1       7.371   4.505  17.398  0.00  0.00    +0.000 OA
ATOM      7  O   UNL     1       7.024   4.433  15.970  0.00  0.00    +0.000 OA
ENDROOT
BRANCH   4   8
ATOM      8  O   UNL     1       7.772   6.858  16.992  0.00  0.00    +0.000 OA
ATOM      9  C   UNL     1       7.866   8.166  17.522  0.00  0.00    +0.000 C 
ENDBRANCH   4   8
BRANCH   1  10
ATOM     10  C   UNL     1       4.902   3.333  16.634  0.00  0.00    +0.000 C 
BRANCH  10  11
ATOM     11  C   UNL     1       3.387   3.288  16.831  0.00  0.00    +0.000 C 
BRANCH  11  13
ATOM     12  C   UNL     1       1.864   2.412  18.706  0.00  0.00    +0.000 C 
ATOM     13  C   UNL     1       3.124   2.201  17.894  0.00  0.00    +0.000 C 
ENDBRANCH  11  13
ENDBRANCH  10  11
ENDBRANCH   1  10
BRANCH   1  14
ATOM     14  C   UNL     1       5.241   4.341  14.341  0.00  0.00    +0.000 C 
BRANCH  14  15
ATOM     15  C   UNL     1       6.410   4.043  13.388  0.00  0.00    +0.000 C 
BRANCH  15  16
ATOM     16  C   UNL     1       5.956   3.142  12.231  0.00  0.00    +0.000 C 
ATOM     17  C   UNL     1       4.537   3.463  11.782  0.00  0.00    +0.000 C 
ENDBRANCH  15  16
ENDBRANCH  14  15
ENDBRANCH   1  14
BRANCH   3  18
ATOM     18  C   UNL     1       4.885   5.518  19.003  0.00  0.00    +0.000 C 
BRANCH  18  19
ATOM     19  O   UNL     1       3.555   6.021  19.051  0.00  0.00    +0.000 OA
ATOM     20  H   UNL     1       3.078   5.513  19.731  0.00  0.00    +0.000 HD
ENDBRANCH  18  19
ENDBRANCH   3  18
TORSDOF 9
ENDMDL
MODEL 3
REMARK VINA RESULT:      -6.3      1.516      3.576
REMARK  Name = 
REMARK  13 active torsions:
REMARK  status: ('A' for Active; 'I' for Inactive)
REMARK    1  A    between atoms: C_1  and  C_2
REMARK    2  A    between atoms: C_2  and  C_3
REMARK    3  A    between atoms: C_3  and  C_4
REMARK    4  A    between atoms: C_4  and  C_5
REMARK    5  A    between atoms: C_5  and  C_6
REMARK    6  A    between atoms: C_6  and  C_7
REMARK    7  A    between atoms: C_7  and  C_8
REMARK    8  A    between atoms: C_8  and  C_9
REMARK    9  A    between atoms: C_11  and  C_12
REMARK   10  A    between atoms: C_12  and  O_13
REMARK   11  A    between atoms: C_14  and  C_15
REMARK   12  A    between atoms: C_14  and  O_16
REMARK   13  A    between atoms: O_16  and  C_17
REMARK                            x       y       z     vdW  Elec       q    Type
REMARK                         _______ _______ _______ _____ _____    ______ ____
ROOT
ATOM      1  C   UNL     1       5.103   4.632  18.815  0.00  0.00    +0.000 C 
ATOM      2  C   UNL     1       3.656   5.138  19.074  0.00  0.00    +0.000 C 
ATOM      3  C   UNL     1       2.552   4.070  18.829  0.00  0.00    +0.000 C 
ATOM      4  C   UNL     1       2.992   2.746  19.507  0.00  0.00    +0.000 C 
ATOM      5  C   UNL     1       2.077   1.571  19.136  0.00  0.00    +0.000 C 
ATOM      6  O   UNL     1       4.308   2.419  19.014  0.00  0.00    +0.000 OA
ATOM      7  O   UNL     1       5.268   3.402  19.541  0.00  0.00    +0.000 OA
ENDROOT
BRANCH   4   8
ATOM      8  O   UNL     1       2.938   3.010  20.920  0.00  0.00    +0.000 OA
ATOM      9  C   UNL     1       1.657   2.963  21.518  0.00  0.00    +0.000 C 
ENDBRANCH   4   8
BRANCH   1  10
ATOM     10  C   UNL     1       5.295   4.447  17.291  0.00  0.00    +0.000 C 
BRANCH  10  11
ATOM     11  C   UNL     1       4.918   5.539  16.289  0.00  0.00    +0.000 C 
BRANCH  11  13
ATOM     12  C   UNL     1       7.036   4.640  15.147  0.00  0.00    +0.000 C 
ATOM     13  C   UNL     1       5.632   5.177  14.970  0.00  0.00    +0.000 C 
ENDBRANCH  11  13
ENDBRANCH  10  11
ENDBRANCH   1  10
BRANCH   1  14
ATOM     14  C   UNL     1       6.157   5.641  19.344  0.00  0.00    +0.000 C 
BRANCH  14  15
ATOM     15  C   UNL     1       7.570   5.534  18.745  0.00  0.00    +0.000 C 
BRANCH  15  16
ATOM     16  C   UNL     1       8.191   6.925  18.557  0.00  0.00    +0.000 C 
ATOM     17  C   UNL     1       7.469   7.729  17.485  0.00  0.00    +0.000 C 
ENDBRANCH  15  16
ENDBRANCH  14  15
ENDBRANCH   1  14
BRANCH   3  18
ATOM     18  C   UNL     1       2.116   3.916  17.360  0.00  0.00    +0.000 C 
BRANCH  18  19
ATOM     19  O   UNL     1       0.736   4.229  17.212  0.00  0.00    +0.000 OA
ATOM     20  H   UNL     1       0.431   3.810  16.388  0.00  0.00    +0.000 HD
ENDBRANCH  18  19
ENDBRANCH   3  18
TORSDOF 9
ENDMDL
MODEL 4
REMARK VINA RESULT:      -6.3      1.274      1.626
REMARK  Name = 
REMARK  13 active torsions:
REMARK  status: ('A' for Active; 'I' for Inactive)
REMARK    1  A    between atoms: C_1  and  C_2
REMARK    2  A    between atoms: C_2  and  C_3
REMARK    3  A    between atoms: C_3  and  C_4
REMARK    4  A    between atoms: C_4  and  C_5
REMARK    5  A    between atoms: C_5  and  C_6
REMARK    6  A    between atoms: C_6  and  C_7
REMARK    7  A    between atoms: C_7  and  C_8
REMARK    8  A    between atoms: C_8  and  C_9
REMARK    9  A    between atoms: C_11  and  C_12
REMARK   10  A    between atoms: C_12  and  O_13
REMARK   11  A    between atoms: C_14  and  C_15
REMARK   12  A    between atoms: C_14  and  O_16
REMARK   13  A    between atoms: O_16  and  C_17
REMARK                            x       y       z     vdW  Elec       q    Type
REMARK                         _______ _______ _______ _____ _____    ______ ____
ROOT
ATOM      1  C   UNL     1       5.176   5.123  16.528  0.00  0.00    +0.000 C 
ATOM      2  C   UNL     1       4.542   3.772  16.964  0.00  0.00    +0.000 C 
ATOM      3  C   UNL     1       3.946   3.780  18.400  0.00  0.00    +0.000 C 
ATOM      4  C   UNL     1       3.101   5.070  18.573  0.00  0.00    +0.000 C 
ATOM      5  C   UNL     1       2.652   5.279  20.025  0.00  0.00    +0.000 C 
ATOM      6  O   UNL     1       3.942   6.191  18.232  0.00  0.00    +0.000 OA
ATOM      7  O   UNL     1       4.211   6.157  16.786  0.00  0.00    +0.000 OA
ENDROOT
BRANCH   4   8
ATOM      8  O   UNL     1       1.966   4.895  17.707  0.00  0.00    +0.000 OA
ATOM      9  C   UNL     1       1.105   3.814  18.012  0.00  0.00    +0.000 C 
ENDBRANCH   4   8
BRANCH   1  10
ATOM     10  C   UNL     1       6.488   5.331  17.322  0.00  0.00    +0.000 C 
BRANCH  10  11
ATOM     11  C   UNL     1       7.365   6.569  17.127  0.00  0.00    +0.000 C 
BRANCH  11  13
ATOM     12  C   UNL     1       7.900   5.742  19.500  0.00  0.00    +0.000 C 
ATOM     13  C   UNL     1       7.979   6.882  18.508  0.00  0.00    +0.000 C 
ENDBRANCH  11  13
ENDBRANCH  10  11
ENDBRANCH   1  10
BRANCH   1  14
ATOM     14  C   UNL     1       5.491   5.136  15.008  0.00  0.00    +0.000 C 
BRANCH  14  15
ATOM     15  C   UNL     1       6.226   3.905  14.450  0.00  0.00    +0.000 C 
BRANCH  15  16
ATOM     16  C   UNL     1       6.521   4.076  12.954  0.00  0.00    +0.000 C 
ATOM     17  C   UNL     1       5.711   3.111  12.100  0.00  0.00    +0.000 C 
ENDBRANCH  15  16
ENDBRANCH  14  15
ENDBRANCH   1  14
BRANCH   3  18
ATOM     18  C   UNL     1       4.969   3.536  19.526  0.00  0.00    +0.000 C 
BRANCH  18  19
ATOM     19  O   UNL     1       5.137   2.142  19.755  0.00  0.00    +0.000 OA
ATOM     20  H   UNL     1       4.407   1.683  19.303  0.00  0.00    +0.000 HD
ENDBRANCH  18  19
ENDBRANCH   3  18
TORSDOF 9
ENDMDL
MODEL 5
REMARK VINA RESULT:      -6.0      2.378      5.535
REMARK  Name = 
REMARK  13 active torsions:
REMARK  status: ('A' for Active; 'I' for Inactive)
REMARK    1  A    between atoms: C_1  and  C_2
REMARK    2  A    between atoms: C_2  and  C_3
REMARK    3  A    between atoms: C_3  and  C_4
REMARK    4  A    between atoms: C_4  and  C_5
REMARK    5  A    between atoms: C_5  and  C_6
REMARK    6  A    between atoms: C_6  and  C_7
REMARK    7  A    between atoms: C_7  and  C_8
REMARK    8  A    between atoms: C_8  and  C_9
REMARK    9  A    between atoms: C_11  and  C_12
REMARK   10  A    between atoms: C_12  and  O_13
REMARK   11  A    between atoms: C_14  and  C_15
REMARK   12  A    between atoms: C_14  and  O_16
REMARK   13  A    between atoms: O_16  and  C_17
REMARK                            x       y       z     vdW  Elec       q    Type
REMARK                         _______ _______ _______ _____ _____    ______ ____
ROOT
ATOM      1  C   UNL     1       3.401   4.815  18.145  0.00  0.00    +0.000 C 
ATOM      2  C   UNL     1       3.969   5.523  16.883  0.00  0.00    +0.000 C 
ATOM      3  C   UNL     1       5.509   5.741  16.912  0.00  0.00    +0.000 C 
ATOM      4  C   UNL     1       6.182   4.422  17.371  0.00  0.00    +0.000 C 
ATOM      5  C   UNL     1       7.682   4.599  17.643  0.00  0.00    +0.000 C 
ATOM      6  O   UNL     1       5.576   4.034  18.621  0.00  0.00    +0.000 OA
ATOM      7  O   UNL     1       4.184   3.630  18.366  0.00  0.00    +0.000 OA
ENDROOT
BRANCH   4   8
ATOM      8  O   UNL     1       5.965   3.493  16.294  0.00  0.00    +0.000 OA
ATOM      9  C   UNL     1       6.407   3.902  15.014  0.00  0.00    +0.000 C 
ENDBRANCH   4   8
BRANCH   1  10
ATOM     10  C   UNL     1       3.473   5.799  19.337  0.00  0.00    +0.000 C 
BRANCH  10  11
ATOM     11  C   UNL     1       2.595   7.049  19.409  0.00  0.00    +0.000 C 
BRANCH  11  13
ATOM     12  C   UNL     1       1.136   8.164  21.206  0.00  0.00    +0.000 C 
ATOM     13  C   UNL     1       1.697   6.873  20.652  0.00  0.00    +0.000 C 
ENDBRANCH  11  13
ENDBRANCH  10  11
ENDBRANCH   1  10
BRANCH   1  14
ATOM     14  C   UNL     1       1.927   4.377  17.932  0.00  0.00    +0.000 C 
BRANCH  14  15
ATOM     15  C   UNL     1       1.497   3.064  18.609  0.00  0.00    +0.000 C 
BRANCH  15  16
ATOM     16  C   UNL     1       0.783   3.344  19.939  0.00  0.00    +0.000 C 
ATOM     17  C   UNL     1       1.671   3.039  21.137  0.00  0.00    +0.000 C 
ENDBRANCH  15  16
ENDBRANCH  14  15
ENDBRANCH   1  14
BRANCH   3  18
ATOM     18  C   UNL     1       5.970   6.991  17.684  0.00  0.00    +0.000 C 
BRANCH  18  19
ATOM     19  O   UNL     1       6.929   7.722  16.928  0.00  0.00    +0.000 OA
ATOM     20  H   UNL     1       7.797   7.579  17.346  0.00  0.00    +0.000 HD
ENDBRANCH  18  19
ENDBRANCH   3  18
TORSDOF 9
ENDMDL
MODEL 6
REMARK VINA RESULT:      -6.0      2.671      3.881
REMARK  Name = 
REMARK  13 active torsions:
REMARK  status: ('A' for Active; 'I' for Inactive)
REMARK    1  A    between atoms: C_1  and  C_2
REMARK    2  A    between atoms: C_2  and  C_3
REMARK    3  A    between atoms: C_3  and  C_4
REMARK    4  A    between atoms: C_4  and  C_5
REMARK    5  A    between atoms: C_5  and  C_6
REMARK    6  A    between atoms: C_6  and  C_7
REMARK    7  A    between atoms: C_7  and  C_8
REMARK    8  A    between atoms: C_8  and  C_9
REMARK    9  A    between atoms: C_11  and  C_12
REMARK   10  A    between atoms: C_12  and  O_13
REMARK   11  A    between atoms: C_14  and  C_15
REMARK   12  A    between atoms: C_14  and  O_16
REMARK   13  A    between atoms: O_16  and  C_17
REMARK                            x       y       z     vdW  Elec       q    Type
REMARK                         _______ _______ _______ _____ _____    ______ ____
ROOT
ATOM      1  C   UNL     1       3.624   5.929  17.929  0.00  0.00    +0.000 C 
ATOM      2  C   UNL     1       3.915   5.611  19.423  0.00  0.00    +0.000 C 
ATOM      3  C   UNL     1       2.818   4.756  20.119  0.00  0.00    +0.000 C 
ATOM      4  C   UNL     1       2.449   3.575  19.182  0.00  0.00    +0.000 C 
ATOM      5  C   UNL     1       1.223   2.800  19.681  0.00  0.00    +0.000 C 
ATOM      6  O   UNL     1       2.098   4.130  17.898  0.00  0.00    +0.000 OA
ATOM      7  O   UNL     1       3.309   4.688  17.277  0.00  0.00    +0.000 OA
ENDROOT
BRANCH   4   8
ATOM      8  O   UNL     1       3.615   2.732  19.164  0.00  0.00    +0.000 OA
ATOM      9  C   UNL     1       3.484   1.495  18.490  0.00  0.00    +0.000 C 
ENDBRANCH   4   8
BRANCH   1  10
ATOM     10  C   UNL     1       2.459   6.944  17.859  0.00  0.00    +0.000 C 
BRANCH  10  11
ATOM     11  C   UNL     1       2.699   8.454  17.888  0.00  0.00    +0.000 C 
BRANCH  11  13
ATOM     12  C   UNL     1       1.026  10.001  19.076  0.00  0.00    +0.000 C 
ATOM     13  C   UNL     1       1.302   9.111  17.883  0.00  0.00    +0.000 C 
ENDBRANCH  11  13
ENDBRANCH  10  11
ENDBRANCH   1  10
BRANCH   1  14
ATOM     14  C   UNL     1       4.871   6.531  17.227  0.00  0.00    +0.000 C 
BRANCH  14  15
ATOM     15  C   UNL     1       5.457   5.722  16.057  0.00  0.00    +0.000 C 
BRANCH  15  16
ATOM     16  C   UNL     1       6.971   5.535  16.226  0.00  0.00    +0.000 C 
ATOM     17  C   UNL     1       7.306   4.649  17.418  0.00  0.00    +0.000 C 
ENDBRANCH  15  16
ENDBRANCH  14  15
ENDBRANCH   1  14
BRANCH   3  18
ATOM     18  C   UNL     1       1.608   5.555  20.639  0.00  0.00    +0.000 C 
BRANCH  18  19
ATOM     19  O   UNL     1       2.013   6.844  21.084  0.00  0.00    +0.000 OA
ATOM     20  H   UNL     1       2.614   6.715  21.839  0.00  0.00    +0.000 HD
ENDBRANCH  18  19
ENDBRANCH   3  18
TORSDOF 9
ENDMDL
MODEL 7
REMARK VINA RESULT:      -6.0      1.511      3.711
REMARK  Name = 
REMARK  13 active torsions:
REMARK  status: ('A' for Active; 'I' for Inactive)
REMARK    1  A    between atoms: C_1  and  C_2
REMARK    2  A    between atoms: C_2  and  C_3
REMARK    3  A    between atoms: C_3  and  C_4
REMARK    4  A    between atoms: C_4  and  C_5
REMARK    5  A    between atoms: C_5  and  C_6
REMARK    6  A    between atoms: C_6  and  C_7
REMARK    7  A    between atoms: C_7  and  C_8
REMARK    8  A    between atoms: C_8  and  C_9
REMARK    9  A    between atoms: C_11  and  C_12
REMARK   10  A    between atoms: C_12  and  O_13
REMARK   11  A    between atoms: C_14  and  C_15
REMARK   12  A    between atoms: C_14  and  O_16
REMARK   13  A    between atoms: O_16  and  C_17
REMARK                            x       y       z     vdW  Elec       q    Type
REMARK                         _______ _______ _______ _____ _____    ______ ____
ROOT
ATOM      1  C   UNL     1       5.226   5.423  17.626  0.00  0.00    +0.000 C 
ATOM      2  C   UNL     1       3.672   5.480  17.636  0.00  0.00    +0.000 C 
ATOM      3  C   UNL     1       2.991   4.234  18.270  0.00  0.00    +0.000 C 
ATOM      4  C   UNL     1       3.717   3.903  19.601  0.00  0.00    +0.000 C 
ATOM      5  C   UNL     1       3.263   2.562  20.192  0.00  0.00    +0.000 C 
ATOM      6  O   UNL     1       5.124   3.776  19.312  0.00  0.00    +0.000 OA
ATOM      7  O   UNL     1       5.656   5.101  18.958  0.00  0.00    +0.000 OA
ENDROOT
BRANCH   4   8
ATOM      8  O   UNL     1       3.390   4.989  20.487  0.00  0.00    +0.000 OA
ATOM      9  C   UNL     1       2.033   5.098  20.873  0.00  0.00    +0.000 C 
ENDBRANCH   4   8
BRANCH   1  10
ATOM     10  C   UNL     1       5.673   4.364  16.591  0.00  0.00    +0.000 C 
BRANCH  10  11
ATOM     11  C   UNL     1       5.295   4.466  15.112  0.00  0.00    +0.000 C 
BRANCH  11  13
ATOM     12  C   UNL     1       6.331   3.717  12.884  0.00  0.00    +0.000 C 
ATOM     13  C   UNL     1       6.576   4.135  14.317  0.00  0.00    +0.000 C 
ENDBRANCH  11  13
ENDBRANCH  10  11
ENDBRANCH   1  10
BRANCH   1  14
ATOM     14  C   UNL     1       5.839   6.798  17.247  0.00  0.00    +0.000 C 
BRANCH  14  15
ATOM     15  C   UNL     1       7.370   6.852  17.111  0.00  0.00    +0.000 C 
BRANCH  15  16
ATOM     16  C   UNL     1       7.989   7.702  18.229  0.00  0.00    +0.000 C 
ATOM     17  C   UNL     1       8.136   9.161  17.820  0.00  0.00    +0.000 C 
ENDBRANCH  15  16
ENDBRANCH  14  15
ENDBRANCH   1  14
BRANCH   3  18
ATOM     18  C   UNL     1       2.830   3.033  17.320  0.00  0.00    +0.000 C 
BRANCH  18  19
ATOM     19  O   UNL     1       1.575   2.395  17.528  0.00  0.00    +0.000 OA
ATOM     20  H   UNL     1       1.197   2.205  16.651  0.00  0.00    +0.000 HD
ENDBRANCH  18  19
ENDBRANCH   3  18
TORSDOF 9
ENDMDL
MODEL 8
REMARK VINA RESULT:      -5.9      1.478      3.987
REMARK  Name = 
REMARK  13 active torsions:
REMARK  status: ('A' for Active; 'I' for Inactive)
REMARK    1  A    between atoms: C_1  and  C_2
REMARK    2  A    between atoms: C_2  and  C_3
REMARK    3  A    between atoms: C_3  and  C_4
REMARK    4  A    between atoms: C_4  and  C_5
REMARK    5  A    between atoms: C_5  and  C_6
REMARK    6  A    between atoms: C_6  and  C_7
REMARK    7  A    between atoms: C_7  and  C_8
REMARK    8  A    between atoms: C_8  and  C_9
REMARK    9  A    between atoms: C_11  and  C_12
REMARK   10  A    between atoms: C_12  and  O_13
REMARK   11  A    between atoms: C_14  and  C_15
REMARK   12  A    between atoms: C_14  and  O_16
REMARK   13  A    between atoms: O_16  and  C_17
REMARK                            x       y       z     vdW  Elec       q    Type
REMARK                         _______ _______ _______ _____ _____    ______ ____
ROOT
ATOM      1  C   UNL     1       5.420   4.822  17.805  0.00  0.00    +0.000 C 
ATOM      2  C   UNL     1       4.663   5.656  18.877  0.00  0.00    +0.000 C 
ATOM      3  C   UNL     1       3.139   5.356  18.959  0.00  0.00    +0.000 C 
ATOM      4  C   UNL     1       2.941   3.817  18.961  0.00  0.00    +0.000 C 
ATOM      5  C   UNL     1       1.466   3.421  18.818  0.00  0.00    +0.000 C 
ATOM      6  O   UNL     1       3.628   3.287  17.808  0.00  0.00    +0.000 OA
ATOM      7  O   UNL     1       5.077   3.441  18.009  0.00  0.00    +0.000 OA
ENDROOT
BRANCH   4   8
ATOM      8  O   UNL     1       3.471   3.371  20.223  0.00  0.00    +0.000 OA
ATOM      9  C   UNL     1       2.523   3.013  21.210  0.00  0.00    +0.000 C 
ENDBRANCH   4   8
BRANCH   1  10
ATOM     10  C   UNL     1       5.008   5.330  16.403  0.00  0.00    +0.000 C 
BRANCH  10  11
ATOM     11  C   UNL     1       5.984   5.336  15.226  0.00  0.00    +0.000 C 
BRANCH  11  13
ATOM     12  C   UNL     1       5.811   3.725  13.232  0.00  0.00    +0.000 C 
ATOM     13  C   UNL     1       6.054   3.881  14.718  0.00  0.00    +0.000 C 
ENDBRANCH  11  13
ENDBRANCH  10  11
ENDBRANCH   1  10
BRANCH   1  14
ATOM     14  C   UNL     1       6.958   4.958  17.967  0.00  0.00    +0.000 C 
BRANCH  14  15
ATOM     15  C   UNL     1       7.468   6.263  18.602  0.00  0.00    +0.000 C 
BRANCH  15  16
ATOM     16  C   UNL     1       7.594   7.371  17.547  0.00  0.00    +0.000 C 
ATOM     17  C   UNL     1       8.261   8.618  18.110  0.00  0.00    +0.000 C 
ENDBRANCH  15  16
ENDBRANCH  14  15
ENDBRANCH   1  14
BRANCH   3  18
ATOM     18  C   UNL     1       2.276   6.105  17.927  0.00  0.00    +0.000 C 
BRANCH  18  19
ATOM     19  O   UNL     1       2.386   7.512  18.109  0.00  0.00    +0.000 OA
ATOM     20  H   UNL     1       1.541   7.907  17.830  0.00  0.00    +0.000 HD
ENDBRANCH  18  19
ENDBRANCH   3  18
TORSDOF 9
ENDMDL
MODEL 9
REMARK VINA RESULT:      -5.9      2.613      4.152
REMARK  Name = 
REMARK  13 active torsions:
REMARK  status: ('A' for Active; 'I' for Inactive)
REMARK    1  A    between atoms: C_1  and  C_2
REMARK    2  A    between atoms: C_2  and  C_3
REMARK    3  A    between atoms: C_3  and  C_4
REMARK    4  A    between atoms: C_4  and  C_5
REMARK    5  A    between atoms: C_5  and  C_6
REMARK    6  A    between atoms: C_6  and  C_7
REMARK    7  A    between atoms: C_7  and  C_8
REMARK    8  A    between atoms: C_8  and  C_9
REMARK    9  A    between atoms: C_11  and  C_12
REMARK   10  A    between atoms: C_12  and  O_13
REMARK   11  A    between atoms: C_14  and  C_15
REMARK   12  A    between atoms: C_14  and  O_16
REMARK   13  A    between atoms: O_16  and  C_17
REMARK                            x       y       z     vdW  Elec       q    Type
REMARK                         _______ _______ _______ _____ _____    ______ ____
ROOT
ATOM      1  C   UNL     1       3.666   6.031  17.938  0.00  0.00    +0.000 C 
ATOM      2  C   UNL     1       2.354   5.210  18.082  0.00  0.00    +0.000 C 
ATOM      3  C   UNL     1       2.566   3.746  18.562  0.00  0.00    +0.000 C 
ATOM      4  C   UNL     1       3.551   3.761  19.761  0.00  0.00    +0.000 C 
ATOM      5  C   UNL     1       3.995   2.349  20.165  0.00  0.00    +0.000 C 
ATOM      6  O   UNL     1       4.737   4.467  19.342  0.00  0.00    +0.000 OA
ATOM      7  O   UNL     1       4.403   5.888  19.163  0.00  0.00    +0.000 OA
ENDROOT
BRANCH   4   8
ATOM      8  O   UNL     1       2.830   4.396  20.832  0.00  0.00    +0.000 OA
ATOM      9  C   UNL     1       2.066   3.546  21.665  0.00  0.00    +0.000 C 
ENDBRANCH   4   8
BRANCH   1  10
ATOM     10  C   UNL     1       4.449   5.498  16.714  0.00  0.00    +0.000 C 
BRANCH  10  11
ATOM     11  C   UNL     1       5.766   6.128  16.259  0.00  0.00    +0.000 C 
BRANCH  11  13
ATOM     12  C   UNL     1       6.045   3.748  15.333  0.00  0.00    +0.000 C 
ATOM     13  C   UNL     1       6.307   5.224  15.131  0.00  0.00    +0.000 C 
ENDBRANCH  11  13
ENDBRANCH  10  11
ENDBRANCH   1  10
BRANCH   1  14
ATOM     14  C   UNL     1       3.369   7.541  17.735  0.00  0.00    +0.000 C 
BRANCH  14  15
ATOM     15  C   UNL     1       2.183   8.118  18.527  0.00  0.00    +0.000 C 
BRANCH  15  16
ATOM     16  C   UNL     1       1.591   9.341  17.811  0.00  0.00    +0.000 C 
ATOM     17  C   UNL     1       0.498  10.008  18.634  0.00  0.00    +0.000 C 
ENDBRANCH  15  16
ENDBRANCH  14  15
ENDBRANCH   1  14
BRANCH   3  18
ATOM     18  C   UNL     1       2.936   2.748  17.449  0.00  0.00    +0.000 C 
BRANCH  18  19
ATOM     19  O   UNL     1       2.005   1.674  17.410  0.00  0.00    +0.000 OA
ATOM     20  H   UNL     1       2.090   1.185  18.247  0.00  0.00    +0.000 HD
ENDBRANCH  18  19
ENDBRANCH   3  18
TORSDOF 9
ENDMDL
