MODEL 1
REMARK VINA RESULT:      -7.6      0.000      0.000
REMARK  Name = 
REMARK  7 active torsions:
REMARK  status: ('A' for Active; 'I' for Inactive)
REMARK    1  A    between atoms: C_1  and  C_2
REMARK    2  A    between atoms: C_2  and  C_3
REMARK    3  A    between atoms: C_2  and  C_4
REMARK    4  A    between atoms: C_8  and  C_9
REMARK    5  A    between atoms: C_9  and  O_11
REMARK    6  A    between atoms: O_11  and  C_12
REMARK    7  A    between atoms: C_12  and  C_13
REMARK                            x       y       z     vdW  Elec       q    Type
REMARK                         _______ _______ _______ _____ _____    ______ ____
ROOT
ATOM      1  O   UNL     1       2.026   5.769  18.125  0.00  0.00    +0.000 OA
ENDROOT
BRANCH   1   2
ATOM      2  C   UNL     1       1.894   4.414  18.101  0.00  0.00    +0.000 C 
ATOM      3  O   UNL     1       1.795   3.747  17.074  0.00  0.00    +0.000 OA
BRANCH   2   8
ATOM      4  C   UNL     1       2.798   2.942  19.939  0.00  0.00    +0.000 A 
ATOM      5  O   UNL     1       2.441   2.644  21.228  0.00  0.00    +0.000 OA
ATOM      6  C   UNL     1       1.304   3.364  21.428  0.00  0.00    +0.000 A 
ATOM      7  N   UNL     1       0.895   4.065  20.397  0.00  0.00    +0.000 NA
ATOM      8  C   UNL     1       1.858   3.818  19.428  0.00  0.00    +0.000 A 
BRANCH   4  10
ATOM      9  C   UNL     1       4.885   1.727  20.524  0.00  0.00    +0.000 C 
ATOM     10  C   UNL     1       4.038   2.313  19.397  0.00  0.00    +0.000 C 
ATOM     11  C   UNL     1       3.715   1.261  18.337  0.00  0.00    +0.000 C 
ENDBRANCH   4  10
ENDBRANCH   2   8
ENDBRANCH   1   2
BRANCH   1  12
ATOM     12  C   UNL     1       3.165   6.258  18.844  0.00  0.00    +0.000 C 
BRANCH  12  13
ATOM     13  C   UNL     1       4.441   5.842  18.156  0.00  0.00    +0.000 A 
ATOM     14  C   UNL     1       5.480   5.244  18.891  0.00  0.00    +0.000 A 
ATOM     15  C   UNL     1       6.663   4.808  18.281  0.00  0.00    +0.000 A 
ATOM     16  C   UNL     1       6.758   5.000  16.903  0.00  0.00    +0.000 A 
ATOM     17  N   UNL     1       7.721   4.716  15.978  0.00  0.00    +0.000 N 
ATOM     18  N   UNL     1       7.356   5.087  14.739  0.00  0.00    +0.000 NA
ATOM     19  N   UNL     1       6.148   5.629  14.828  0.00  0.00    +0.000 NA
ATOM     20  C   UNL     1       5.759   5.589  16.141  0.00  0.00    +0.000 A 
ATOM     21  C   UNL     1       4.581   6.023  16.766  0.00  0.00    +0.000 A 
ATOM     22  H   UNL     1       8.622   4.274  16.109  0.00  0.00    +0.000 HD
ENDBRANCH  12  13
ENDBRANCH   1  12
TORSDOF 5
ENDMDL
MODEL 2
REMARK VINA RESULT:      -7.4      3.304      6.078
REMARK  Name = 
REMARK  7 active torsions:
REMARK  status: ('A' for Active; 'I' for Inactive)
REMARK    1  A    between atoms: C_1  and  C_2
REMARK    2  A    between atoms: C_2  and  C_3
REMARK    3  A    between atoms: C_2  and  C_4
REMARK    4  A    between atoms: C_8  and  C_9
REMARK    5  A    between atoms: C_9  and  O_11
REMARK    6  A    between atoms: O_11  and  C_12
REMARK    7  A    between atoms: C_12  and  C_13
REMARK                            x       y       z     vdW  Elec       q    Type
REMARK                         _______ _______ _______ _____ _____    ______ ____
ROOT
ATOM      1  O   UNL     1       3.777   4.790  18.746  0.00  0.00    +0.000 OA
ENDROOT
BRANCH   1   2
ATOM      2  C   UNL     1       4.926   4.163  19.120  0.00  0.00    +0.000 C 
ATOM      3  O   UNL     1       4.965   3.080  19.699  0.00  0.00    +0.000 OA
BRANCH   2   8
ATOM      4  C   UNL     1       6.505   5.293  17.509  0.00  0.00    +0.000 A 
ATOM      5  O   UNL     1       7.660   6.022  17.611  0.00  0.00    +0.000 OA
ATOM      6  C   UNL     1       7.914   6.050  18.947  0.00  0.00    +0.000 A 
ATOM      7  N   UNL     1       7.055   5.398  19.695  0.00  0.00    +0.000 NA
ATOM      8  C   UNL     1       6.126   4.915  18.784  0.00  0.00    +0.000 A 
BRANCH   4  10
ATOM      9  C   UNL     1       5.197   6.330  15.669  0.00  0.00    +0.000 C 
ATOM     10  C   UNL     1       5.933   5.081  16.147  0.00  0.00    +0.000 C 
ATOM     11  C   UNL     1       7.007   4.650  15.149  0.00  0.00    +0.000 C 
ENDBRANCH   4  10
ENDBRANCH   2   8
ENDBRANCH   1   2
BRANCH   1  12
ATOM     12  C   UNL     1       2.988   5.312  19.822  0.00  0.00    +0.000 C 
BRANCH  12  13
ATOM     13  C   UNL     1       2.485   6.693  19.485  0.00  0.00    +0.000 A 
ATOM     14  C   UNL     1       2.645   7.208  18.186  0.00  0.00    +0.000 A 
ATOM     15  C   UNL     1       2.156   8.471  17.825  0.00  0.00    +0.000 A 
ATOM     16  C   UNL     1       1.501   9.191  18.823  0.00  0.00    +0.000 A 
ATOM     17  N   UNL     1       0.903  10.418  18.858  0.00  0.00    +0.000 N 
ATOM     18  N   UNL     1       0.387  10.693  20.068  0.00  0.00    +0.000 NA
ATOM     19  N   UNL     1       0.643   9.655  20.853  0.00  0.00    +0.000 NA
ATOM     20  C   UNL     1       1.325   8.722  20.117  0.00  0.00    +0.000 A 
ATOM     21  C   UNL     1       1.822   7.458  20.465  0.00  0.00    +0.000 A 
ATOM     22  H   UNL     1       0.801  11.100  18.118  0.00  0.00    +0.000 HD
ENDBRANCH  12  13
ENDBRANCH   1  12
TORSDOF 5
ENDMDL
MODEL 3
REMARK VINA RESULT:      -7.3      3.235      6.199
REMARK  Name = 
REMARK  7 active torsions:
REMARK  status: ('A' for Active; 'I' for Inactive)
REMARK    1  A    between atoms: C_1  and  C_2
REMARK    2  A    between atoms: C_2  and  C_3
REMARK    3  A    between atoms: C_2  and  C_4
REMARK    4  A    between atoms: C_8  and  C_9
REMARK    5  A    between atoms: C_9  and  O_11
REMARK    6  A    between atoms: O_11  and  C_12
REMARK    7  A    between atoms: C_12  and  C_13
REMARK                            x       y       z     vdW  Elec       q    Type
REMARK                         _______ _______ _______ _____ _____    ______ ____
ROOT
ATOM      1  O   UNL     1       3.734   4.572  18.187  0.00  0.00    +0.000 OA
ENDROOT
BRANCH   1   2
ATOM      2  C   UNL     1       5.028   4.162  18.289  0.00  0.00    +0.000 C 
ATOM      3  O   UNL     1       5.482   3.536  19.243  0.00  0.00    +0.000 OA
BRANCH   2   8
ATOM      4  C   UNL     1       6.739   5.614  17.136  0.00  0.00    +0.000 A 
ATOM      5  O   UNL     1       7.348   5.633  15.909  0.00  0.00    +0.000 OA
ATOM      6  C   UNL     1       6.793   4.580  15.250  0.00  0.00    +0.000 A 
ATOM      7  N   UNL     1       5.884   3.914  15.923  0.00  0.00    +0.000 NA
ATOM      8  C   UNL     1       5.847   4.558  17.152  0.00  0.00    +0.000 A 
BRANCH   4  10
ATOM      9  C   UNL     1       8.085   6.066  19.175  0.00  0.00    +0.000 C 
ATOM     10  C   UNL     1       7.141   6.653  18.128  0.00  0.00    +0.000 C 
ATOM     11  C   UNL     1       7.755   7.874  17.445  0.00  0.00    +0.000 C 
ENDBRANCH   4  10
ENDBRANCH   2   8
ENDBRANCH   1   2
BRANCH   1  12
ATOM     12  C   UNL     1       3.148   5.052  19.403  0.00  0.00    +0.000 C 
BRANCH  12  13
ATOM     13  C   UNL     1       2.659   6.467  19.229  0.00  0.00    +0.000 A 
ATOM     14  C   UNL     1       2.864   7.144  18.014  0.00  0.00    +0.000 A 
ATOM     15  C   UNL     1       2.389   8.445  17.801  0.00  0.00    +0.000 A 
ATOM     16  C   UNL     1       1.702   9.036  18.861  0.00  0.00    +0.000 A 
ATOM     17  N   UNL     1       1.105  10.251  19.032  0.00  0.00    +0.000 N 
ATOM     18  N   UNL     1       0.548  10.372  20.250  0.00  0.00    +0.000 NA
ATOM     19  N   UNL     1       0.776   9.240  20.903  0.00  0.00    +0.000 NA
ATOM     20  C   UNL     1       1.481   8.406  20.077  0.00  0.00    +0.000 A 
ATOM     21  C   UNL     1       1.964   7.104  20.276  0.00  0.00    +0.000 A 
ATOM     22  H   UNL     1       1.028  11.023  18.382  0.00  0.00    +0.000 HD
ENDBRANCH  12  13
ENDBRANCH   1  12
TORSDOF 5
ENDMDL
MODEL 4
REMARK VINA RESULT:      -7.3      3.398      6.816
REMARK  Name = 
REMARK  7 active torsions:
REMARK  status: ('A' for Active; 'I' for Inactive)
REMARK    1  A    between atoms: C_1  and  C_2
REMARK    2  A    between atoms: C_2  and  C_3
REMARK    3  A    between atoms: C_2  and  C_4
REMARK    4  A    between atoms: C_8  and  C_9
REMARK    5  A    between atoms: C_9  and  O_11
REMARK    6  A    between atoms: O_11  and  C_12
REMARK    7  A    between atoms: C_12  and  C_13
REMARK                            x       y       z     vdW  Elec       q    Type
REMARK                         _______ _______ _______ _____ _____    ______ ____
ROOT
ATOM      1  O   UNL     1       4.811   4.954  15.357  0.00  0.00    +0.000 OA
ENDROOT
BRANCH   1   2
ATOM      2  C   UNL     1       5.857   4.108  15.154  0.00  0.00    +0.000 C 
ATOM      3  O   UNL     1       6.147   3.175  15.899  0.00  0.00    +0.000 OA
BRANCH   2   8
ATOM      4  C   UNL     1       6.461   3.844  12.718  0.00  0.00    +0.000 A 
ATOM      5  O   UNL     1       7.338   4.440  11.851  0.00  0.00    +0.000 OA
ATOM      6  C   UNL     1       7.986   5.358  12.618  0.00  0.00    +0.000 A 
ATOM      7  N   UNL     1       7.626   5.388  13.880  0.00  0.00    +0.000 NA
ATOM      8  C   UNL     1       6.629   4.426  13.961  0.00  0.00    +0.000 A 
BRANCH   4  10
ATOM      9  C   UNL     1       4.377   3.384  11.447  0.00  0.00    +0.000 C 
ATOM     10  C   UNL     1       5.569   2.776  12.181  0.00  0.00    +0.000 C 
ATOM     11  C   UNL     1       6.335   1.801  11.288  0.00  0.00    +0.000 C 
ENDBRANCH   4  10
ENDBRANCH   2   8
ENDBRANCH   1   2
BRANCH   1  12
ATOM     12  C   UNL     1       4.893   5.753  16.544  0.00  0.00    +0.000 C 
BRANCH  12  13
ATOM     13  C   UNL     1       3.891   5.281  17.567  0.00  0.00    +0.000 A 
ATOM     14  C   UNL     1       3.740   5.972  18.782  0.00  0.00    +0.000 A 
ATOM     15  C   UNL     1       2.792   5.587  19.740  0.00  0.00    +0.000 A 
ATOM     16  C   UNL     1       2.006   4.480  19.424  0.00  0.00    +0.000 A 
ATOM     17  N   UNL     1       1.004   3.822  20.078  0.00  0.00    +0.000 N 
ATOM     18  N   UNL     1       0.527   2.789  19.361  0.00  0.00    +0.000 NA
ATOM     19  N   UNL     1       1.214   2.745  18.227  0.00  0.00    +0.000 NA
ATOM     20  C   UNL     1       2.125   3.768  18.240  0.00  0.00    +0.000 A 
ATOM     21  C   UNL     1       3.079   4.163  17.291  0.00  0.00    +0.000 A 
ATOM     22  H   UNL     1       0.595   4.017  20.982  0.00  0.00    +0.000 HD
ENDBRANCH  12  13
ENDBRANCH   1  12
TORSDOF 5
ENDMDL
MODEL 5
REMARK VINA RESULT:      -7.3      3.383      5.953
REMARK  Name = 
REMARK  7 active torsions:
REMARK  status: ('A' for Active; 'I' for Inactive)
REMARK    1  A    between atoms: C_1  and  C_2
REMARK    2  A    between atoms: C_2  and  C_3
REMARK    3  A    between atoms: C_2  and  C_4
REMARK    4  A    between atoms: C_8  and  C_9
REMARK    5  A    between atoms: C_9  and  O_11
REMARK    6  A    between atoms: O_11  and  C_12
REMARK    7  A    between atoms: C_12  and  C_13
REMARK                            x       y       z     vdW  Elec       q    Type
REMARK                         _______ _______ _______ _____ _____    ______ ____
ROOT
ATOM      1  O   UNL     1       3.788   4.761  18.212  0.00  0.00    +0.000 OA
ENDROOT
BRANCH   1   2
ATOM      2  C   UNL     1       5.003   4.146  18.207  0.00  0.00    +0.000 C 
ATOM      3  O   UNL     1       5.369   3.333  19.051  0.00  0.00    +0.000 OA
BRANCH   2   8
ATOM      4  C   UNL     1       6.751   5.613  17.131  0.00  0.00    +0.000 A 
ATOM      5  O   UNL     1       7.390   5.657  15.921  0.00  0.00    +0.000 OA
ATOM      6  C   UNL     1       6.846   4.623  15.224  0.00  0.00    +0.000 A 
ATOM      7  N   UNL     1       5.917   3.947  15.858  0.00  0.00    +0.000 NA
ATOM      8  C   UNL     1       5.852   4.563  17.100  0.00  0.00    +0.000 A 
BRANCH   4  10
ATOM      9  C   UNL     1       8.093   6.027  19.180  0.00  0.00    +0.000 C 
ATOM     10  C   UNL     1       7.132   6.627  18.157  0.00  0.00    +0.000 C 
ATOM     11  C   UNL     1       7.716   7.884  17.513  0.00  0.00    +0.000 C 
ENDBRANCH   4  10
ENDBRANCH   2   8
ENDBRANCH   1   2
BRANCH   1  12
ATOM     12  C   UNL     1       3.239   5.016  19.511  0.00  0.00    +0.000 C 
BRANCH  12  13
ATOM     13  C   UNL     1       2.573   6.369  19.545  0.00  0.00    +0.000 A 
ATOM     14  C   UNL     1       1.871   6.784  20.690  0.00  0.00    +0.000 A 
ATOM     15  C   UNL     1       1.273   8.049  20.774  0.00  0.00    +0.000 A 
ATOM     16  C   UNL     1       1.411   8.875  19.659  0.00  0.00    +0.000 A 
ATOM     17  N   UNL     1       0.986  10.139  19.368  0.00  0.00    +0.000 N 
ATOM     18  N   UNL     1       1.374  10.533  18.142  0.00  0.00    +0.000 NA
ATOM     19  N   UNL     1       2.055   9.530  17.603  0.00  0.00    +0.000 NA
ATOM     20  C   UNL     1       2.092   8.503  18.509  0.00  0.00    +0.000 A 
ATOM     21  C   UNL     1       2.683   7.233  18.438  0.00  0.00    +0.000 A 
ATOM     22  H   UNL     1       0.452  10.781  19.940  0.00  0.00    +0.000 HD
ENDBRANCH  12  13
ENDBRANCH   1  12
TORSDOF 5
ENDMDL
MODEL 6
REMARK VINA RESULT:      -7.2      3.243      5.642
REMARK  Name = 
REMARK  7 active torsions:
REMARK  status: ('A' for Active; 'I' for Inactive)
REMARK    1  A    between atoms: C_1  and  C_2
REMARK    2  A    between atoms: C_2  and  C_3
REMARK    3  A    between atoms: C_2  and  C_4
REMARK    4  A    between atoms: C_8  and  C_9
REMARK    5  A    between atoms: C_9  and  O_11
REMARK    6  A    between atoms: O_11  and  C_12
REMARK    7  A    between atoms: C_12  and  C_13
REMARK                            x       y       z     vdW  Elec       q    Type
REMARK                         _______ _______ _______ _____ _____    ______ ____
ROOT
ATOM      1  O   UNL     1       4.003   5.799  19.496  0.00  0.00    +0.000 OA
ENDROOT
BRANCH   1   2
ATOM      2  C   UNL     1       4.748   4.683  19.269  0.00  0.00    +0.000 C 
ATOM      3  O   UNL     1       5.976   4.652  19.311  0.00  0.00    +0.000 OA
BRANCH   2   8
ATOM      4  C   UNL     1       2.818   3.100  19.633  0.00  0.00    +0.000 A 
ATOM      5  O   UNL     1       2.321   1.992  19.000  0.00  0.00    +0.000 OA
ATOM      6  C   UNL     1       3.174   1.798  17.958  0.00  0.00    +0.000 A 
ATOM      7  N   UNL     1       4.168   2.652  17.881  0.00  0.00    +0.000 NA
ATOM      8  C   UNL     1       3.946   3.512  18.947  0.00  0.00    +0.000 A 
BRANCH   4  10
ATOM      9  C   UNL     1       0.842   4.377  20.431  0.00  0.00    +0.000 C 
ATOM     10  C   UNL     1       2.091   3.599  20.837  0.00  0.00    +0.000 C 
ATOM     11  C   UNL     1       1.751   2.461  21.799  0.00  0.00    +0.000 C 
ENDBRANCH   4  10
ENDBRANCH   2   8
ENDBRANCH   1   2
BRANCH   1  12
ATOM     12  C   UNL     1       3.470   6.426  18.322  0.00  0.00    +0.000 C 
BRANCH  12  13
ATOM     13  C   UNL     1       2.553   7.561  18.702  0.00  0.00    +0.000 A 
ATOM     14  C   UNL     1       2.159   8.507  17.738  0.00  0.00    +0.000 A 
ATOM     15  C   UNL     1       1.277   9.552  18.044  0.00  0.00    +0.000 A 
ATOM     16  C   UNL     1       0.809   9.605  19.357  0.00  0.00    +0.000 A 
ATOM     17  N   UNL     1      -0.039  10.446  20.018  0.00  0.00    +0.000 N 
ATOM     18  N   UNL     1      -0.199  10.090  21.305  0.00  0.00    +0.000 NA
ATOM     19  N   UNL     1       0.547   9.013  21.513  0.00  0.00    +0.000 NA
ATOM     20  C   UNL     1       1.175   8.696  20.338  0.00  0.00    +0.000 A 
ATOM     21  C   UNL     1       2.061   7.656  20.019  0.00  0.00    +0.000 A 
ATOM     22  H   UNL     1      -0.539  11.253  19.670  0.00  0.00    +0.000 HD
ENDBRANCH  12  13
ENDBRANCH   1  12
TORSDOF 5
ENDMDL
MODEL 7
REMARK VINA RESULT:      -7.2      1.855      3.171
REMARK  Name = 
REMARK  7 active torsions:
REMARK  status: ('A' for Active; 'I' for Inactive)
REMARK    1  A    between atoms: C_1  and  C_2
REMARK    2  A    between atoms: C_2  and  C_3
REMARK    3  A    between atoms: C_2  and  C_4
REMARK    4  A    between atoms: C_8  and  C_9
REMARK    5  A    between atoms: C_9  and  O_11
REMARK    6  A    between atoms: O_11  and  C_12
REMARK    7  A    between atoms: C_12  and  C_13
REMARK                            x       y       z     vdW  Elec       q    Type
REMARK                         _______ _______ _______ _____ _____    ______ ____
ROOT
ATOM      1  O   UNL     1       2.037   3.357  17.515  0.00  0.00    +0.000 OA
ENDROOT
BRANCH   1   2
ATOM      2  C   UNL     1       1.191   3.009  18.523  0.00  0.00    +0.000 C 
ATOM      3  O   UNL     1       0.099   2.473  18.355  0.00  0.00    +0.000 OA
BRANCH   2   8
ATOM      4  C   UNL     1       1.882   4.641  20.318  0.00  0.00    +0.000 A 
ATOM      5  O   UNL     1       2.326   4.554  21.611  0.00  0.00    +0.000 OA
ATOM      6  C   UNL     1       2.380   3.215  21.849  0.00  0.00    +0.000 A 
ATOM      7  N   UNL     1       2.039   2.451  20.838  0.00  0.00    +0.000 NA
ATOM      8  C   UNL     1       1.698   3.356  19.842  0.00  0.00    +0.000 A 
BRANCH   4  10
ATOM      9  C   UNL     1       1.360   7.016  20.828  0.00  0.00    +0.000 C 
ATOM     10  C   UNL     1       1.697   6.003  19.737  0.00  0.00    +0.000 C 
ATOM     11  C   UNL     1       2.918   6.439  18.929  0.00  0.00    +0.000 C 
ENDBRANCH   4  10
ENDBRANCH   2   8
ENDBRANCH   1   2
BRANCH   1  12
ATOM     12  C   UNL     1       3.272   2.630  17.476  0.00  0.00    +0.000 C 
BRANCH  12  13
ATOM     13  C   UNL     1       4.440   3.581  17.396  0.00  0.00    +0.000 A 
ATOM     14  C   UNL     1       4.777   4.189  16.174  0.00  0.00    +0.000 A 
ATOM     15  C   UNL     1       5.830   5.107  16.069  0.00  0.00    +0.000 A 
ATOM     16  C   UNL     1       6.529   5.386  17.243  0.00  0.00    +0.000 A 
ATOM     17  N   UNL     1       7.583   6.201  17.537  0.00  0.00    +0.000 N 
ATOM     18  N   UNL     1       7.916   6.146  18.839  0.00  0.00    +0.000 NA
ATOM     19  N   UNL     1       7.090   5.286  19.421  0.00  0.00    +0.000 NA
ATOM     20  C   UNL     1       6.233   4.806  18.468  0.00  0.00    +0.000 A 
ATOM     21  C   UNL     1       5.177   3.886  18.557  0.00  0.00    +0.000 A 
ATOM     22  H   UNL     1       8.106   6.815  16.926  0.00  0.00    +0.000 HD
ENDBRANCH  12  13
ENDBRANCH   1  12
TORSDOF 5
ENDMDL
MODEL 8
REMARK VINA RESULT:      -7.2      2.689      5.925
REMARK  Name = 
REMARK  7 active torsions:
REMARK  status: ('A' for Active; 'I' for Inactive)
REMARK    1  A    between atoms: C_1  and  C_2
REMARK    2  A    between atoms: C_2  and  C_3
REMARK    3  A    between atoms: C_2  and  C_4
REMARK    4  A    between atoms: C_8  and  C_9
REMARK    5  A    between atoms: C_9  and  O_11
REMARK    6  A    between atoms: O_11  and  C_12
REMARK    7  A    between atoms: C_12  and  C_13
REMARK                            x       y       z     vdW  Elec       q    Type
REMARK                         _______ _______ _______ _____ _____    ______ ____
ROOT
ATOM      1  O   UNL     1       4.152   3.169  17.637  0.00  0.00    +0.000 OA
ENDROOT
BRANCH   1   2
ATOM      2  C   UNL     1       5.275   3.833  18.026  0.00  0.00    +0.000 C 
ATOM      3  O   UNL     1       5.624   3.976  19.195  0.00  0.00    +0.000 OA
BRANCH   2   8
ATOM      4  C   UNL     1       6.791   5.541  16.954  0.00  0.00    +0.000 A 
ATOM      5  O   UNL     1       7.379   5.704  15.728  0.00  0.00    +0.000 OA
ATOM      6  C   UNL     1       6.944   4.634  15.010  0.00  0.00    +0.000 A 
ATOM      7  N   UNL     1       6.127   3.827  15.646  0.00  0.00    +0.000 NA
ATOM      8  C   UNL     1       6.028   4.389  16.911  0.00  0.00    +0.000 A 
BRANCH   4  10
ATOM      9  C   UNL     1       8.039   6.003  19.052  0.00  0.00    +0.000 C 
ATOM     10  C   UNL     1       7.079   6.561  18.005  0.00  0.00    +0.000 C 
ATOM     11  C   UNL     1       7.608   7.859  17.396  0.00  0.00    +0.000 C 
ENDBRANCH   4  10
ENDBRANCH   2   8
ENDBRANCH   1   2
BRANCH   1  12
ATOM     12  C   UNL     1       3.067   4.002  17.210  0.00  0.00    +0.000 C 
BRANCH  12  13
ATOM     13  C   UNL     1       2.567   4.845  18.356  0.00  0.00    +0.000 A 
ATOM     14  C   UNL     1       2.175   4.240  19.563  0.00  0.00    +0.000 A 
ATOM     15  C   UNL     1       1.743   4.993  20.663  0.00  0.00    +0.000 A 
ATOM     16  C   UNL     1       1.722   6.377  20.497  0.00  0.00    +0.000 A 
ATOM     17  N   UNL     1       1.376   7.416  21.313  0.00  0.00    +0.000 N 
ATOM     18  N   UNL     1       1.529   8.606  20.706  0.00  0.00    +0.000 NA
ATOM     19  N   UNL     1       1.970   8.369  19.477  0.00  0.00    +0.000 NA
ATOM     20  C   UNL     1       2.096   7.014  19.323  0.00  0.00    +0.000 A 
ATOM     21  C   UNL     1       2.524   6.248  18.229  0.00  0.00    +0.000 A 
ATOM     22  H   UNL     1       1.047   7.395  22.269  0.00  0.00    +0.000 HD
ENDBRANCH  12  13
ENDBRANCH   1  12
TORSDOF 5
ENDMDL
MODEL 9
REMARK VINA RESULT:      -7.2      1.618      2.693
REMARK  Name = 
REMARK  7 active torsions:
REMARK  status: ('A' for Active; 'I' for Inactive)
REMARK    1  A    between atoms: C_1  and  C_2
REMARK    2  A    between atoms: C_2  and  C_3
REMARK    3  A    between atoms: C_2  and  C_4
REMARK    4  A    between atoms: C_8  and  C_9
REMARK    5  A    between atoms: C_9  and  O_11
REMARK    6  A    between atoms: O_11  and  C_12
REMARK    7  A    between atoms: C_12  and  C_13
REMARK                            x       y       z     vdW  Elec       q    Type
REMARK                         _______ _______ _______ _____ _____    ______ ____
ROOT
ATOM      1  O   UNL     1       1.781   3.481  17.582  0.00  0.00    +0.000 OA
ENDROOT
BRANCH   1   2
ATOM      2  C   UNL     1       1.029   2.998  18.608  0.00  0.00    +0.000 C 
ATOM      3  O   UNL     1      -0.015   2.366  18.463  0.00  0.00    +0.000 OA
BRANCH   2   8
ATOM      4  C   UNL     1       1.815   4.596  20.395  0.00  0.00    +0.000 A 
ATOM      5  O   UNL     1       2.278   4.487  21.679  0.00  0.00    +0.000 OA
ATOM      6  C   UNL     1       2.284   3.147  21.914  0.00  0.00    +0.000 A 
ATOM      7  N   UNL     1       1.896   2.400  20.906  0.00  0.00    +0.000 NA
ATOM      8  C   UNL     1       1.572   3.321  19.920  0.00  0.00    +0.000 A 
BRANCH   4  10
ATOM      9  C   UNL     1       1.254   6.964  20.898  0.00  0.00    +0.000 C 
ATOM     10  C   UNL     1       1.671   5.966  19.821  0.00  0.00    +0.000 C 
ATOM     11  C   UNL     1       2.948   6.413  19.111  0.00  0.00    +0.000 C 
ENDBRANCH   4  10
ENDBRANCH   2   8
ENDBRANCH   1   2
BRANCH   1  12
ATOM     12  C   UNL     1       2.939   2.704  17.255  0.00  0.00    +0.000 C 
BRANCH  12  13
ATOM     13  C   UNL     1       4.185   3.549  17.352  0.00  0.00    +0.000 A 
ATOM     14  C   UNL     1       4.858   3.680  18.580  0.00  0.00    +0.000 A 
ATOM     15  C   UNL     1       6.039   4.424  18.701  0.00  0.00    +0.000 A 
ATOM     16  C   UNL     1       6.512   5.031  17.538  0.00  0.00    +0.000 A 
ATOM     17  N   UNL     1       7.597   5.810  17.260  0.00  0.00    +0.000 N 
ATOM     18  N   UNL     1       7.645   6.164  15.963  0.00  0.00    +0.000 NA
ATOM     19  N   UNL     1       6.587   5.629  15.368  0.00  0.00    +0.000 NA
ATOM     20  C   UNL     1       5.877   4.931  16.309  0.00  0.00    +0.000 A 
ATOM     21  C   UNL     1       4.694   4.185  16.203  0.00  0.00    +0.000 A 
ATOM     22  H   UNL     1       8.333   6.126  17.878  0.00  0.00    +0.000 HD
ENDBRANCH  12  13
ENDBRANCH   1  12
TORSDOF 5
ENDMDL
