MODEL 1
REMARK VINA RESULT:      -9.6      0.000      0.000
REMARK  Name = 
REMARK  6 active torsions:
REMARK  status: ('A' for Active; 'I' for Inactive)
REMARK    1  A    between atoms: C_3  and  C_4
REMARK    2  A    between atoms: C_5  and  C_6
REMARK    3  A    between atoms: C_8  and  C_9
REMARK    4  A    between atoms: C_12  and  C_13
REMARK    5  A    between atoms: C_13  and  N_14
REMARK    6  A    between atoms: N_25  and  C_26
REMARK                            x       y       z     vdW  Elec       q    Type
REMARK                         _______ _______ _______ _____ _____    ______ ____
ROOT
ATOM      1  C   UNL     1       2.862   6.088  18.774  0.00  0.00    +0.000 A 
ATOM      2  C   UNL     1       2.519   7.437  18.889  0.00  0.00    +0.000 A 
ATOM      3  C   UNL     1       3.121   8.089  17.812  0.00  0.00    +0.000 A 
ATOM      4  N   UNL     1       3.853   7.262  17.080  0.00  0.00    +0.000 NA
ATOM      5  N   UNL     1       3.671   6.044  17.635  0.00  0.00    +0.000 N 
ENDROOT
BRANCH   1   8
ATOM      6  C   UNL     1       0.863   3.025  19.618  0.00  0.00    +0.000 A 
ATOM      7  C   UNL     1       1.403   4.084  18.908  0.00  0.00    +0.000 A 
ATOM      8  C   UNL     1       2.328   4.936  19.527  0.00  0.00    +0.000 A 
ATOM      9  C   UNL     1       2.673   4.658  20.849  0.00  0.00    +0.000 A 
ATOM     10  C   UNL     1       2.112   3.545  21.464  0.00  0.00    +0.000 A 
ATOM     11  N   UNL     1       1.212   2.726  20.882  0.00  0.00    +0.000 NA
ENDBRANCH   1   8
BRANCH   5  12
ATOM     12  C   UNL     1       4.259   4.901  16.921  0.00  0.00    +0.000 C 
ATOM     13  C   UNL     1       5.212   5.304  15.777  0.00  0.00    +0.000 C 
ATOM     14  C   UNL     1       6.567   5.839  16.242  0.00  0.00    +0.000 C 
ATOM     15  C   UNL     1       7.247   4.969  17.297  0.00  0.00    +0.000 C 
ATOM     16  C   UNL     1       6.321   4.425  18.385  0.00  0.00    +0.000 C 
ATOM     17  C   UNL     1       4.984   3.909  17.850  0.00  0.00    +0.000 C 
ENDBRANCH   5  12
BRANCH   2  18
ATOM     18  C   UNL     1       1.627   8.118  19.866  0.00  0.00    +0.000 A 
ATOM     19  N   UNL     1       0.994   9.264  19.698  0.00  0.00    +0.000 NA
ATOM     20  C   UNL     1       0.383   9.464  20.918  0.00  0.00    +0.000 A 
ATOM     21  N   UNL     1       0.650   8.508  21.821  0.00  0.00    +0.000 NA
ATOM     22  O   UNL     1       1.417   7.596  21.117  0.00  0.00    +0.000 OA
BRANCH  20  23
ATOM     23  C   UNL     1      -0.515  10.576  21.207  0.00  0.00    +0.000 A 
ATOM     24  C   UNL     1      -1.131  11.291  20.177  0.00  0.00    +0.000 A 
ATOM     25  C   UNL     1      -2.088  12.274  20.463  0.00  0.00    +0.000 A 
ATOM     26  C   UNL     1      -2.430  12.573  21.791  0.00  0.00    +0.000 A 
ATOM     27  C   UNL     1      -1.785  11.882  22.826  0.00  0.00    +0.000 A 
ATOM     28  C   UNL     1      -0.839  10.895  22.534  0.00  0.00    +0.000 A 
BRANCH  26  29
ATOM     29  C   UNL     1      -3.503  13.589  22.106  0.00  0.00    +0.000 C 
BRANCH  29  30
ATOM     30  N   UNL     1      -4.744  13.012  22.596  0.00  0.00    +0.000 N 
ATOM     31  C   UNL     1      -5.296  13.006  23.838  0.00  0.00    +0.000 A 
ATOM     32  N   UNL     1      -6.443  12.365  23.779  0.00  0.00    +0.000 NA
ATOM     33  N   UNL     1      -6.587  11.976  22.471  0.00  0.00    +0.000 NA
ATOM     34  N   UNL     1      -5.555  12.368  21.740  0.00  0.00    +0.000 NA
ENDBRANCH  29  30
ENDBRANCH  26  29
ENDBRANCH  20  23
ENDBRANCH   2  18
TORSDOF 6
ENDMDL
MODEL 2
REMARK VINA RESULT:      -9.5      0.462      1.018
REMARK  Name = 
REMARK  6 active torsions:
REMARK  status: ('A' for Active; 'I' for Inactive)
REMARK    1  A    between atoms: C_3  and  C_4
REMARK    2  A    between atoms: C_5  and  C_6
REMARK    3  A    between atoms: C_8  and  C_9
REMARK    4  A    between atoms: C_12  and  C_13
REMARK    5  A    between atoms: C_13  and  N_14
REMARK    6  A    between atoms: N_25  and  C_26
REMARK                            x       y       z     vdW  Elec       q    Type
REMARK                         _______ _______ _______ _____ _____    ______ ____
ROOT
ATOM      1  C   UNL     1       2.833   6.058  18.791  0.00  0.00    +0.000 A 
ATOM      2  C   UNL     1       2.525   7.411  18.945  0.00  0.00    +0.000 A 
ATOM      3  C   UNL     1       3.163   8.081  17.901  0.00  0.00    +0.000 A 
ATOM      4  N   UNL     1       3.884   7.258  17.154  0.00  0.00    +0.000 NA
ATOM      5  N   UNL     1       3.660   6.028  17.664  0.00  0.00    +0.000 N 
ENDROOT
BRANCH   1   8
ATOM      6  C   UNL     1       2.184   3.490  21.452  0.00  0.00    +0.000 A 
ATOM      7  C   UNL     1       2.686   4.602  20.797  0.00  0.00    +0.000 A 
ATOM      8  C   UNL     1       2.255   4.896  19.497  0.00  0.00    +0.000 A 
ATOM      9  C   UNL     1       1.311   4.044  18.924  0.00  0.00    +0.000 A 
ATOM     10  C   UNL     1       0.832   2.979  19.677  0.00  0.00    +0.000 A 
ATOM     11  N   UNL     1       1.249   2.680  20.924  0.00  0.00    +0.000 NA
ENDBRANCH   1   8
BRANCH   5  12
ATOM     12  C   UNL     1       4.228   4.893  16.922  0.00  0.00    +0.000 C 
ATOM     13  C   UNL     1       5.165   5.310  15.770  0.00  0.00    +0.000 C 
ATOM     14  C   UNL     1       6.532   5.828  16.222  0.00  0.00    +0.000 C 
ATOM     15  C   UNL     1       7.222   4.936  17.252  0.00  0.00    +0.000 C 
ATOM     16  C   UNL     1       6.310   4.380  18.345  0.00  0.00    +0.000 C 
ATOM     17  C   UNL     1       4.961   3.881  17.823  0.00  0.00    +0.000 C 
ENDBRANCH   5  12
BRANCH   2  18
ATOM     18  C   UNL     1       1.635   8.084  19.931  0.00  0.00    +0.000 A 
ATOM     19  N   UNL     1       1.005   9.233  19.776  0.00  0.00    +0.000 NA
ATOM     20  C   UNL     1       0.395   9.422  20.998  0.00  0.00    +0.000 A 
ATOM     21  N   UNL     1       0.660   8.456  21.890  0.00  0.00    +0.000 NA
ATOM     22  O   UNL     1       1.424   7.549  21.176  0.00  0.00    +0.000 OA
BRANCH  20  23
ATOM     23  C   UNL     1      -0.499  10.534  21.299  0.00  0.00    +0.000 A 
ATOM     24  C   UNL     1      -1.104  11.269  20.277  0.00  0.00    +0.000 A 
ATOM     25  C   UNL     1      -2.059  12.252  20.573  0.00  0.00    +0.000 A 
ATOM     26  C   UNL     1      -2.408  12.530  21.903  0.00  0.00    +0.000 A 
ATOM     27  C   UNL     1      -1.774  11.818  22.931  0.00  0.00    +0.000 A 
ATOM     28  C   UNL     1      -0.830  10.832  22.630  0.00  0.00    +0.000 A 
BRANCH  26  29
ATOM     29  C   UNL     1      -3.478  13.546  22.228  0.00  0.00    +0.000 C 
BRANCH  29  30
ATOM     30  N   UNL     1      -4.791  12.971  22.473  0.00  0.00    +0.000 N 
ATOM     31  C   UNL     1      -5.807  12.673  21.622  0.00  0.00    +0.000 A 
ATOM     32  N   UNL     1      -6.794  12.154  22.319  0.00  0.00    +0.000 NA
ATOM     33  N   UNL     1      -6.364  12.138  23.622  0.00  0.00    +0.000 NA
ATOM     34  N   UNL     1      -5.140  12.634  23.726  0.00  0.00    +0.000 NA
ENDBRANCH  29  30
ENDBRANCH  26  29
ENDBRANCH  20  23
ENDBRANCH   2  18
TORSDOF 6
ENDMDL
MODEL 3
REMARK VINA RESULT:      -9.4      1.320      2.096
REMARK  Name = 
REMARK  6 active torsions:
REMARK  status: ('A' for Active; 'I' for Inactive)
REMARK    1  A    between atoms: C_3  and  C_4
REMARK    2  A    between atoms: C_5  and  C_6
REMARK    3  A    between atoms: C_8  and  C_9
REMARK    4  A    between atoms: C_12  and  C_13
REMARK    5  A    between atoms: C_13  and  N_14
REMARK    6  A    between atoms: N_25  and  C_26
REMARK                            x       y       z     vdW  Elec       q    Type
REMARK                         _______ _______ _______ _____ _____    ______ ____
ROOT
ATOM      1  C   UNL     1       3.418   6.123  18.328  0.00  0.00    +0.000 A 
ATOM      2  C   UNL     1       3.232   7.481  18.066  0.00  0.00    +0.000 A 
ATOM      3  C   UNL     1       4.344   7.897  17.332  0.00  0.00    +0.000 A 
ATOM      4  N   UNL     1       5.224   6.919  17.173  0.00  0.00    +0.000 NA
ATOM      5  N   UNL     1       4.654   5.834  17.740  0.00  0.00    +0.000 N 
ENDROOT
BRANCH   1   8
ATOM      6  C   UNL     1       1.419   4.147  20.816  0.00  0.00    +0.000 A 
ATOM      7  C   UNL     1       2.287   5.081  20.277  0.00  0.00    +0.000 A 
ATOM      8  C   UNL     1       2.455   5.153  18.888  0.00  0.00    +0.000 A 
ATOM      9  C   UNL     1       1.715   4.269  18.103  0.00  0.00    +0.000 A 
ATOM     10  C   UNL     1       0.835   3.397  18.733  0.00  0.00    +0.000 A 
ATOM     11  N   UNL     1       0.674   3.312  20.070  0.00  0.00    +0.000 NA
ENDBRANCH   1   8
BRANCH   5  12
ATOM     12  C   UNL     1       5.360   4.555  17.572  0.00  0.00    +0.000 C 
ATOM     13  C   UNL     1       4.867   3.726  16.369  0.00  0.00    +0.000 C 
ATOM     14  C   UNL     1       5.309   4.262  15.007  0.00  0.00    +0.000 C 
ATOM     15  C   UNL     1       6.798   4.594  14.926  0.00  0.00    +0.000 C 
ATOM     16  C   UNL     1       7.374   5.297  16.154  0.00  0.00    +0.000 C 
ATOM     17  C   UNL     1       6.890   4.710  17.481  0.00  0.00    +0.000 C 
ENDBRANCH   5  12
BRANCH   2  18
ATOM     18  C   UNL     1       2.079   8.368  18.382  0.00  0.00    +0.000 A 
ATOM     19  N   UNL     1       1.701   8.783  19.577  0.00  0.00    +0.000 NA
ATOM     20  C   UNL     1       0.555   9.502  19.308  0.00  0.00    +0.000 A 
ATOM     21  N   UNL     1       0.209   9.506  18.012  0.00  0.00    +0.000 NA
ATOM     22  O   UNL     1       1.237   8.814  17.395  0.00  0.00    +0.000 OA
BRANCH  20  23
ATOM     23  C   UNL     1      -0.199  10.238  20.316  0.00  0.00    +0.000 A 
ATOM     24  C   UNL     1      -0.242   9.805  21.643  0.00  0.00    +0.000 A 
ATOM     25  C   UNL     1      -0.862  10.586  22.629  0.00  0.00    +0.000 A 
ATOM     26  C   UNL     1      -1.470  11.806  22.297  0.00  0.00    +0.000 A 
ATOM     27  C   UNL     1      -1.459  12.223  20.958  0.00  0.00    +0.000 A 
ATOM     28  C   UNL     1      -0.830  11.446  19.981  0.00  0.00    +0.000 A 
BRANCH  26  29
ATOM     29  C   UNL     1      -2.088  12.680  23.362  0.00  0.00    +0.000 C 
BRANCH  29  30
ATOM     30  N   UNL     1      -3.536  12.584  23.445  0.00  0.00    +0.000 N 
ATOM     31  C   UNL     1      -4.509  12.997  22.591  0.00  0.00    +0.000 A 
ATOM     32  N   UNL     1      -5.676  12.671  23.101  0.00  0.00    +0.000 NA
ATOM     33  N   UNL     1      -5.403  12.046  24.291  0.00  0.00    +0.000 NA
ATOM     34  N   UNL     1      -4.097  11.986  24.510  0.00  0.00    +0.000 NA
ENDBRANCH  29  30
ENDBRANCH  26  29
ENDBRANCH  20  23
ENDBRANCH   2  18
TORSDOF 6
ENDMDL
MODEL 4
REMARK VINA RESULT:      -9.3      1.353      1.909
REMARK  Name = 
REMARK  6 active torsions:
REMARK  status: ('A' for Active; 'I' for Inactive)
REMARK    1  A    between atoms: C_3  and  C_4
REMARK    2  A    between atoms: C_5  and  C_6
REMARK    3  A    between atoms: C_8  and  C_9
REMARK    4  A    between atoms: C_12  and  C_13
REMARK    5  A    between atoms: C_13  and  N_14
REMARK    6  A    between atoms: N_25  and  C_26
REMARK                            x       y       z     vdW  Elec       q    Type
REMARK                         _______ _______ _______ _____ _____    ______ ____
ROOT
ATOM      1  C   UNL     1       3.533   6.089  18.377  0.00  0.00    +0.000 A 
ATOM      2  C   UNL     1       3.334   7.441  18.092  0.00  0.00    +0.000 A 
ATOM      3  C   UNL     1       4.419   7.844  17.312  0.00  0.00    +0.000 A 
ATOM      4  N   UNL     1       5.297   6.865  17.146  0.00  0.00    +0.000 NA
ATOM      5  N   UNL     1       4.750   5.792  17.756  0.00  0.00    +0.000 N 
ENDROOT
BRANCH   1   8
ATOM      6  C   UNL     1       0.906   3.431  18.723  0.00  0.00    +0.000 A 
ATOM      7  C   UNL     1       1.822   4.304  18.161  0.00  0.00    +0.000 A 
ATOM      8  C   UNL     1       2.593   5.130  18.990  0.00  0.00    +0.000 A 
ATOM      9  C   UNL     1       2.404   5.015  20.367  0.00  0.00    +0.000 A 
ATOM     10  C   UNL     1       1.494   4.077  20.838  0.00  0.00    +0.000 A 
ATOM     11  N   UNL     1       0.737   3.287  20.049  0.00  0.00    +0.000 NA
ENDBRANCH   1   8
BRANCH   5  12
ATOM     12  C   UNL     1       5.455   4.512  17.594  0.00  0.00    +0.000 C 
ATOM     13  C   UNL     1       4.890   3.629  16.462  0.00  0.00    +0.000 C 
ATOM     14  C   UNL     1       5.234   4.111  15.052  0.00  0.00    +0.000 C 
ATOM     15  C   UNL     1       6.711   4.449  14.857  0.00  0.00    +0.000 C 
ATOM     16  C   UNL     1       7.363   5.207  16.013  0.00  0.00    +0.000 C 
ATOM     17  C   UNL     1       6.974   4.673  17.393  0.00  0.00    +0.000 C 
ENDBRANCH   5  12
BRANCH   2  18
ATOM     18  C   UNL     1       2.188   8.331  18.425  0.00  0.00    +0.000 A 
ATOM     19  N   UNL     1       1.814   8.727  19.628  0.00  0.00    +0.000 NA
ATOM     20  C   UNL     1       0.674   9.459  19.374  0.00  0.00    +0.000 A 
ATOM     21  N   UNL     1       0.328   9.492  18.079  0.00  0.00    +0.000 NA
ATOM     22  O   UNL     1       1.349   8.803  17.448  0.00  0.00    +0.000 OA
BRANCH  20  23
ATOM     23  C   UNL     1      -0.073  10.183  20.396  0.00  0.00    +0.000 A 
ATOM     24  C   UNL     1      -0.278   9.634  21.664  0.00  0.00    +0.000 A 
ATOM     25  C   UNL     1      -0.885  10.386  22.679  0.00  0.00    +0.000 A 
ATOM     26  C   UNL     1      -1.319  11.698  22.433  0.00  0.00    +0.000 A 
ATOM     27  C   UNL     1      -1.148  12.236  21.151  0.00  0.00    +0.000 A 
ATOM     28  C   UNL     1      -0.532  11.485  20.146  0.00  0.00    +0.000 A 
BRANCH  26  29
ATOM     29  C   UNL     1      -1.922  12.535  23.537  0.00  0.00    +0.000 C 
BRANCH  29  30
ATOM     30  N   UNL     1      -3.370  12.450  23.627  0.00  0.00    +0.000 N 
ATOM     31  C   UNL     1      -4.196  12.395  24.705  0.00  0.00    +0.000 A 
ATOM     32  N   UNL     1      -5.437  12.338  24.275  0.00  0.00    +0.000 NA
ATOM     33  N   UNL     1      -5.360  12.361  22.905  0.00  0.00    +0.000 NA
ATOM     34  N   UNL     1      -4.100  12.431  22.500  0.00  0.00    +0.000 NA
ENDBRANCH  29  30
ENDBRANCH  26  29
ENDBRANCH  20  23
ENDBRANCH   2  18
TORSDOF 6
ENDMDL
MODEL 5
REMARK VINA RESULT:      -9.2      2.311      2.964
REMARK  Name = 
REMARK  6 active torsions:
REMARK  status: ('A' for Active; 'I' for Inactive)
REMARK    1  A    between atoms: C_3  and  C_4
REMARK    2  A    between atoms: C_5  and  C_6
REMARK    3  A    between atoms: C_8  and  C_9
REMARK    4  A    between atoms: C_12  and  C_13
REMARK    5  A    between atoms: C_13  and  N_14
REMARK    6  A    between atoms: N_25  and  C_26
REMARK                            x       y       z     vdW  Elec       q    Type
REMARK                         _______ _______ _______ _____ _____    ______ ____
ROOT
ATOM      1  C   UNL     1       3.407   6.047  18.394  0.00  0.00    +0.000 A 
ATOM      2  C   UNL     1       3.138   7.389  18.121  0.00  0.00    +0.000 A 
ATOM      3  C   UNL     1       4.183   7.843  17.314  0.00  0.00    +0.000 A 
ATOM      4  N   UNL     1       5.099   6.906  17.119  0.00  0.00    +0.000 NA
ATOM      5  N   UNL     1       4.618   5.807  17.738  0.00  0.00    +0.000 N 
ENDROOT
BRANCH   1   8
ATOM      6  C   UNL     1       1.710   3.980  21.029  0.00  0.00    +0.000 A 
ATOM      7  C   UNL     1       2.497   4.946  20.425  0.00  0.00    +0.000 A 
ATOM      8  C   UNL     1       2.528   5.043  19.027  0.00  0.00    +0.000 A 
ATOM      9  C   UNL     1       1.736   4.152  18.303  0.00  0.00    +0.000 A 
ATOM     10  C   UNL     1       0.944   3.248  19.000  0.00  0.00    +0.000 A 
ATOM     11  N   UNL     1       0.917   3.137  20.344  0.00  0.00    +0.000 NA
ENDBRANCH   1   8
BRANCH   5  12
ATOM     12  C   UNL     1       5.376   4.560  17.551  0.00  0.00    +0.000 C 
ATOM     13  C   UNL     1       4.927   3.738  16.326  0.00  0.00    +0.000 C 
ATOM     14  C   UNL     1       5.360   4.321  14.979  0.00  0.00    +0.000 C 
ATOM     15  C   UNL     1       6.835   4.712  14.921  0.00  0.00    +0.000 C 
ATOM     16  C   UNL     1       7.373   5.411  16.169  0.00  0.00    +0.000 C 
ATOM     17  C   UNL     1       6.899   4.777  17.478  0.00  0.00    +0.000 C 
ENDBRANCH   5  12
BRANCH   2  18
ATOM     18  C   UNL     1       1.963   8.225  18.490  0.00  0.00    +0.000 A 
ATOM     19  N   UNL     1       1.045   8.708  17.673  0.00  0.00    +0.000 NA
ATOM     20  C   UNL     1       0.248   9.460  18.511  0.00  0.00    +0.000 A 
ATOM     21  N   UNL     1       0.667   9.478  19.785  0.00  0.00    +0.000 NA
ATOM     22  O   UNL     1       1.757   8.624  19.786  0.00  0.00    +0.000 OA
BRANCH  20  23
ATOM     23  C   UNL     1      -0.970  10.137  18.084  0.00  0.00    +0.000 A 
ATOM     24  C   UNL     1      -1.679   9.706  16.960  0.00  0.00    +0.000 A 
ATOM     25  C   UNL     1      -2.914  10.281  16.630  0.00  0.00    +0.000 A 
ATOM     26  C   UNL     1      -3.451  11.316  17.411  0.00  0.00    +0.000 A 
ATOM     27  C   UNL     1      -2.723  11.774  18.518  0.00  0.00    +0.000 A 
ATOM     28  C   UNL     1      -1.497  11.190  18.848  0.00  0.00    +0.000 A 
BRANCH  26  29
ATOM     29  C   UNL     1      -4.808  11.901  17.097  0.00  0.00    +0.000 C 
BRANCH  29  30
ATOM     30  N   UNL     1      -5.795  11.716  18.148  0.00  0.00    +0.000 N 
ATOM     31  C   UNL     1      -6.382  10.591  18.634  0.00  0.00    +0.000 A 
ATOM     32  N   UNL     1      -7.204  10.936  19.600  0.00  0.00    +0.000 NA
ATOM     33  N   UNL     1      -7.112  12.301  19.701  0.00  0.00    +0.000 NA
ATOM     34  N   UNL     1      -6.252  12.787  18.819  0.00  0.00    +0.000 NA
ENDBRANCH  29  30
ENDBRANCH  26  29
ENDBRANCH  20  23
ENDBRANCH   2  18
TORSDOF 6
ENDMDL
MODEL 6
REMARK VINA RESULT:      -9.2      0.991      1.460
REMARK  Name = 
REMARK  6 active torsions:
REMARK  status: ('A' for Active; 'I' for Inactive)
REMARK    1  A    between atoms: C_3  and  C_4
REMARK    2  A    between atoms: C_5  and  C_6
REMARK    3  A    between atoms: C_8  and  C_9
REMARK    4  A    between atoms: C_12  and  C_13
REMARK    5  A    between atoms: C_13  and  N_14
REMARK    6  A    between atoms: N_25  and  C_26
REMARK                            x       y       z     vdW  Elec       q    Type
REMARK                         _______ _______ _______ _____ _____    ______ ____
ROOT
ATOM      1  C   UNL     1       3.084   5.801  18.652  0.00  0.00    +0.000 A 
ATOM      2  C   UNL     1       2.844   7.176  18.640  0.00  0.00    +0.000 A 
ATOM      3  C   UNL     1       3.607   7.699  17.595  0.00  0.00    +0.000 A 
ATOM      4  N   UNL     1       4.339   6.766  17.003  0.00  0.00    +0.000 NA
ATOM      5  N   UNL     1       4.000   5.610  17.613  0.00  0.00    +0.000 N 
ENDROOT
BRANCH   1   8
ATOM      6  C   UNL     1       2.112   3.517  21.469  0.00  0.00    +0.000 A 
ATOM      7  C   UNL     1       2.734   4.527  20.754  0.00  0.00    +0.000 A 
ATOM      8  C   UNL     1       2.381   4.751  19.417  0.00  0.00    +0.000 A 
ATOM      9  C   UNL     1       1.391   3.936  18.868  0.00  0.00    +0.000 A 
ATOM     10  C   UNL     1       0.792   2.978  19.678  0.00  0.00    +0.000 A 
ATOM     11  N   UNL     1       1.133   2.746  20.962  0.00  0.00    +0.000 NA
ENDBRANCH   1   8
BRANCH   5  12
ATOM     12  C   UNL     1       4.561   4.376  17.044  0.00  0.00    +0.000 C 
ATOM     13  C   UNL     1       4.785   4.439  15.520  0.00  0.00    +0.000 C 
ATOM     14  C   UNL     1       5.976   5.297  15.090  0.00  0.00    +0.000 C 
ATOM     15  C   UNL     1       7.260   5.004  15.864  0.00  0.00    +0.000 C 
ATOM     16  C   UNL     1       7.079   4.796  17.367  0.00  0.00    +0.000 C 
ATOM     17  C   UNL     1       5.869   3.930  17.725  0.00  0.00    +0.000 C 
ENDBRANCH   5  12
BRANCH   2  18
ATOM     18  C   UNL     1       1.916   7.994  19.468  0.00  0.00    +0.000 A 
ATOM     19  N   UNL     1       1.175   9.008  19.062  0.00  0.00    +0.000 NA
ATOM     20  C   UNL     1       0.578   9.443  20.226  0.00  0.00    +0.000 A 
ATOM     21  N   UNL     1       0.953   8.757  21.317  0.00  0.00    +0.000 NA
ATOM     22  O   UNL     1       1.785   7.771  20.815  0.00  0.00    +0.000 OA
BRANCH  20  23
ATOM     23  C   UNL     1      -0.412  10.511  20.284  0.00  0.00    +0.000 A 
ATOM     24  C   UNL     1      -1.192  10.832  19.170  0.00  0.00    +0.000 A 
ATOM     25  C   UNL     1      -2.227  11.773  19.270  0.00  0.00    +0.000 A 
ATOM     26  C   UNL     1      -2.485  12.425  20.485  0.00  0.00    +0.000 A 
ATOM     27  C   UNL     1      -1.678  12.131  21.593  0.00  0.00    +0.000 A 
ATOM     28  C   UNL     1      -0.655  11.185  21.491  0.00  0.00    +0.000 A 
BRANCH  26  29
ATOM     29  C   UNL     1      -3.635  13.396  20.615  0.00  0.00    +0.000 C 
BRANCH  29  30
ATOM     30  N   UNL     1      -4.919  12.767  20.878  0.00  0.00    +0.000 N 
ATOM     31  C   UNL     1      -5.898  12.350  20.033  0.00  0.00    +0.000 A 
ATOM     32  N   UNL     1      -6.869  11.828  20.749  0.00  0.00    +0.000 NA
ATOM     33  N   UNL     1      -6.468  11.931  22.056  0.00  0.00    +0.000 NA
ATOM     34  N   UNL     1      -5.276  12.502  22.146  0.00  0.00    +0.000 NA
ENDBRANCH  29  30
ENDBRANCH  26  29
ENDBRANCH  20  23
ENDBRANCH   2  18
TORSDOF 6
ENDMDL
MODEL 7
REMARK VINA RESULT:      -9.2      0.378      1.212
REMARK  Name = 
REMARK  6 active torsions:
REMARK  status: ('A' for Active; 'I' for Inactive)
REMARK    1  A    between atoms: C_3  and  C_4
REMARK    2  A    between atoms: C_5  and  C_6
REMARK    3  A    between atoms: C_8  and  C_9
REMARK    4  A    between atoms: C_12  and  C_13
REMARK    5  A    between atoms: C_13  and  N_14
REMARK    6  A    between atoms: N_25  and  C_26
REMARK                            x       y       z     vdW  Elec       q    Type
REMARK                         _______ _______ _______ _____ _____    ______ ____
ROOT
ATOM      1  C   UNL     1       2.853   6.085  18.797  0.00  0.00    +0.000 A 
ATOM      2  C   UNL     1       2.553   7.440  18.955  0.00  0.00    +0.000 A 
ATOM      3  C   UNL     1       3.179   8.107  17.901  0.00  0.00    +0.000 A 
ATOM      4  N   UNL     1       3.886   7.281  17.143  0.00  0.00    +0.000 NA
ATOM      5  N   UNL     1       3.664   6.052  17.658  0.00  0.00    +0.000 N 
ENDROOT
BRANCH   1   8
ATOM      6  C   UNL     1       2.226   3.527  21.472  0.00  0.00    +0.000 A 
ATOM      7  C   UNL     1       2.723   4.636  20.808  0.00  0.00    +0.000 A 
ATOM      8  C   UNL     1       2.281   4.926  19.511  0.00  0.00    +0.000 A 
ATOM      9  C   UNL     1       1.332   4.073  18.949  0.00  0.00    +0.000 A 
ATOM     10  C   UNL     1       0.858   3.011  19.710  0.00  0.00    +0.000 A 
ATOM     11  N   UNL     1       1.287   2.715  20.955  0.00  0.00    +0.000 NA
ENDBRANCH   1   8
BRANCH   5  12
ATOM     12  C   UNL     1       4.217   4.914  16.908  0.00  0.00    +0.000 C 
ATOM     13  C   UNL     1       5.188   5.324  15.782  0.00  0.00    +0.000 C 
ATOM     14  C   UNL     1       6.558   5.797  16.270  0.00  0.00    +0.000 C 
ATOM     15  C   UNL     1       7.203   4.870  17.298  0.00  0.00    +0.000 C 
ATOM     16  C   UNL     1       6.254   4.321  18.363  0.00  0.00    +0.000 C 
ATOM     17  C   UNL     1       4.903   3.868  17.806  0.00  0.00    +0.000 C 
ENDBRANCH   5  12
BRANCH   2  18
ATOM     18  C   UNL     1       1.680   8.117  19.953  0.00  0.00    +0.000 A 
ATOM     19  N   UNL     1       0.930   9.185  19.756  0.00  0.00    +0.000 NA
ATOM     20  C   UNL     1       0.402   9.429  21.006  0.00  0.00    +0.000 A 
ATOM     21  N   UNL     1       0.829   8.578  21.950  0.00  0.00    +0.000 NA
ATOM     22  O   UNL     1       1.621   7.682  21.252  0.00  0.00    +0.000 OA
BRANCH  20  23
ATOM     23  C   UNL     1      -0.571  10.477  21.288  0.00  0.00    +0.000 A 
ATOM     24  C   UNL     1      -0.911  10.811  22.601  0.00  0.00    +0.000 A 
ATOM     25  C   UNL     1      -1.750  11.902  22.866  0.00  0.00    +0.000 A 
ATOM     26  C   UNL     1      -2.281  12.667  21.817  0.00  0.00    +0.000 A 
ATOM     27  C   UNL     1      -1.971  12.309  20.497  0.00  0.00    +0.000 A 
ATOM     28  C   UNL     1      -1.125  11.227  20.239  0.00  0.00    +0.000 A 
BRANCH  26  29
ATOM     29  C   UNL     1      -3.139  13.879  22.096  0.00  0.00    +0.000 C 
BRANCH  29  30
ATOM     30  N   UNL     1      -4.438  13.570  22.669  0.00  0.00    +0.000 N 
ATOM     31  C   UNL     1      -5.155  14.192  23.643  0.00  0.00    +0.000 A 
ATOM     32  N   UNL     1      -6.286  13.541  23.805  0.00  0.00    +0.000 NA
ATOM     33  N   UNL     1      -6.253  12.503  22.908  0.00  0.00    +0.000 NA
ATOM     34  N   UNL     1      -5.128  12.513  22.208  0.00  0.00    +0.000 NA
ENDBRANCH  29  30
ENDBRANCH  26  29
ENDBRANCH  20  23
ENDBRANCH   2  18
TORSDOF 6
ENDMDL
MODEL 8
REMARK VINA RESULT:      -9.1      1.816      2.326
REMARK  Name = 
REMARK  6 active torsions:
REMARK  status: ('A' for Active; 'I' for Inactive)
REMARK    1  A    between atoms: C_3  and  C_4
REMARK    2  A    between atoms: C_5  and  C_6
REMARK    3  A    between atoms: C_8  and  C_9
REMARK    4  A    between atoms: C_12  and  C_13
REMARK    5  A    between atoms: C_13  and  N_14
REMARK    6  A    between atoms: N_25  and  C_26
REMARK                            x       y       z     vdW  Elec       q    Type
REMARK                         _______ _______ _______ _____ _____    ______ ____
ROOT
ATOM      1  C   UNL     1       2.818   6.101  18.883  0.00  0.00    +0.000 A 
ATOM      2  C   UNL     1       2.456   7.443  19.012  0.00  0.00    +0.000 A 
ATOM      3  C   UNL     1       3.042   8.114  17.938  0.00  0.00    +0.000 A 
ATOM      4  N   UNL     1       3.781   7.305  17.194  0.00  0.00    +0.000 NA
ATOM      5  N   UNL     1       3.621   6.080  17.738  0.00  0.00    +0.000 N 
ENDROOT
BRANCH   1   8
ATOM      6  C   UNL     1       0.825   3.036  19.735  0.00  0.00    +0.000 A 
ATOM      7  C   UNL     1       1.344   4.109  19.030  0.00  0.00    +0.000 A 
ATOM      8  C   UNL     1       2.306   4.934  19.628  0.00  0.00    +0.000 A 
ATOM      9  C   UNL     1       2.708   4.616  20.925  0.00  0.00    +0.000 A 
ATOM     10  C   UNL     1       2.163   3.493  21.535  0.00  0.00    +0.000 A 
ATOM     11  N   UNL     1       1.228   2.699  20.973  0.00  0.00    +0.000 NA
ENDBRANCH   1   8
BRANCH   5  12
ATOM     12  C   UNL     1       4.221   4.952  17.010  0.00  0.00    +0.000 C 
ATOM     13  C   UNL     1       5.177   5.380  15.878  0.00  0.00    +0.000 C 
ATOM     14  C   UNL     1       6.526   5.918  16.358  0.00  0.00    +0.000 C 
ATOM     15  C   UNL     1       7.206   5.036  17.404  0.00  0.00    +0.000 C 
ATOM     16  C   UNL     1       6.278   4.469  18.478  0.00  0.00    +0.000 C 
ATOM     17  C   UNL     1       4.948   3.951  17.928  0.00  0.00    +0.000 C 
ENDBRANCH   5  12
BRANCH   2  18
ATOM     18  C   UNL     1       1.559   8.102  20.002  0.00  0.00    +0.000 A 
ATOM     19  N   UNL     1       1.067   9.325  19.936  0.00  0.00    +0.000 NA
ATOM     20  C   UNL     1       0.379   9.448  21.124  0.00  0.00    +0.000 A 
ATOM     21  N   UNL     1       0.465   8.368  21.915  0.00  0.00    +0.000 NA
ATOM     22  O   UNL     1       1.190   7.463  21.158  0.00  0.00    +0.000 OA
BRANCH  20  23
ATOM     23  C   UNL     1      -0.418  10.614  21.486  0.00  0.00    +0.000 A 
ATOM     24  C   UNL     1      -1.015  10.716  22.745  0.00  0.00    +0.000 A 
ATOM     25  C   UNL     1      -1.672  11.893  23.131  0.00  0.00    +0.000 A 
ATOM     26  C   UNL     1      -1.761  12.982  22.251  0.00  0.00    +0.000 A 
ATOM     27  C   UNL     1      -1.195  12.866  20.974  0.00  0.00    +0.000 A 
ATOM     28  C   UNL     1      -0.532  11.695  20.598  0.00  0.00    +0.000 A 
BRANCH  26  29
ATOM     29  C   UNL     1      -2.417  14.274  22.679  0.00  0.00    +0.000 C 
BRANCH  29  30
ATOM     30  N   UNL     1      -1.949  14.784  23.958  0.00  0.00    +0.000 N 
ATOM     31  C   UNL     1      -2.603  14.980  25.133  0.00  0.00    +0.000 A 
ATOM     32  N   UNL     1      -1.745  15.450  26.012  0.00  0.00    +0.000 NA
ATOM     33  N   UNL     1      -0.545  15.539  25.353  0.00  0.00    +0.000 NA
ATOM     34  N   UNL     1      -0.659  15.133  24.097  0.00  0.00    +0.000 NA
ENDBRANCH  29  30
ENDBRANCH  26  29
ENDBRANCH  20  23
ENDBRANCH   2  18
TORSDOF 6
ENDMDL
MODEL 9
REMARK VINA RESULT:      -9.0      1.839      2.339
REMARK  Name = 
REMARK  6 active torsions:
REMARK  status: ('A' for Active; 'I' for Inactive)
REMARK    1  A    between atoms: C_3  and  C_4
REMARK    2  A    between atoms: C_5  and  C_6
REMARK    3  A    between atoms: C_8  and  C_9
REMARK    4  A    between atoms: C_12  and  C_13
REMARK    5  A    between atoms: C_13  and  N_14
REMARK    6  A    between atoms: N_25  and  C_26
REMARK                            x       y       z     vdW  Elec       q    Type
REMARK                         _______ _______ _______ _____ _____    ______ ____
ROOT
ATOM      1  C   UNL     1       2.824   6.012  18.797  0.00  0.00    +0.000 A 
ATOM      2  C   UNL     1       2.487   7.357  18.954  0.00  0.00    +0.000 A 
ATOM      3  C   UNL     1       3.100   8.042  17.903  0.00  0.00    +0.000 A 
ATOM      4  N   UNL     1       3.832   7.235  17.148  0.00  0.00    +0.000 NA
ATOM      5  N   UNL     1       3.641   6.001  17.661  0.00  0.00    +0.000 N 
ENDROOT
BRANCH   1   8
ATOM      6  C   UNL     1       2.261   3.431  21.464  0.00  0.00    +0.000 A 
ATOM      7  C   UNL     1       2.732   4.553  20.803  0.00  0.00    +0.000 A 
ATOM      8  C   UNL     1       2.280   4.837  19.508  0.00  0.00    +0.000 A 
ATOM      9  C   UNL     1       1.350   3.964  18.944  0.00  0.00    +0.000 A 
ATOM     10  C   UNL     1       0.903   2.889  19.703  0.00  0.00    +0.000 A 
ATOM     11  N   UNL     1       1.340   2.599  20.946  0.00  0.00    +0.000 NA
ENDBRANCH   1   8
BRANCH   5  12
ATOM     12  C   UNL     1       4.227   4.879  16.914  0.00  0.00    +0.000 C 
ATOM     13  C   UNL     1       5.210   5.314  15.807  0.00  0.00    +0.000 C 
ATOM     14  C   UNL     1       6.563   5.809  16.322  0.00  0.00    +0.000 C 
ATOM     15  C   UNL     1       7.206   4.886  17.355  0.00  0.00    +0.000 C 
ATOM     16  C   UNL     1       6.250   4.313  18.400  0.00  0.00    +0.000 C 
ATOM     17  C   UNL     1       4.917   3.839  17.816  0.00  0.00    +0.000 C 
ENDBRANCH   5  12
BRANCH   2  18
ATOM     18  C   UNL     1       1.592   8.010  19.948  0.00  0.00    +0.000 A 
ATOM     19  N   UNL     1       1.304   9.296  20.032  0.00  0.00    +0.000 NA
ATOM     20  C   UNL     1       0.508   9.363  21.156  0.00  0.00    +0.000 A 
ATOM     21  N   UNL     1       0.335   8.183  21.769  0.00  0.00    +0.000 NA
ATOM     22  O   UNL     1       0.996   7.285  20.948  0.00  0.00    +0.000 OA
BRANCH  20  23
ATOM     23  C   UNL     1      -0.139  10.583  21.624  0.00  0.00    +0.000 A 
ATOM     24  C   UNL     1      -0.128  11.747  20.850  0.00  0.00    +0.000 A 
ATOM     25  C   UNL     1      -0.859  12.875  21.248  0.00  0.00    +0.000 A 
ATOM     26  C   UNL     1      -1.597  12.864  22.441  0.00  0.00    +0.000 A 
ATOM     27  C   UNL     1      -1.577  11.710  23.236  0.00  0.00    +0.000 A 
ATOM     28  C   UNL     1      -0.856  10.584  22.830  0.00  0.00    +0.000 A 
BRANCH  26  29
ATOM     29  C   UNL     1      -2.433  14.055  22.847  0.00  0.00    +0.000 C 
BRANCH  29  30
ATOM     30  N   UNL     1      -2.009  14.686  24.086  0.00  0.00    +0.000 N 
ATOM     31  C   UNL     1      -2.699  14.978  25.220  0.00  0.00    +0.000 A 
ATOM     32  N   UNL     1      -1.874  15.539  26.076  0.00  0.00    +0.000 NA
ATOM     33  N   UNL     1      -0.656  15.587  25.445  0.00  0.00    +0.000 NA
ATOM     34  N   UNL     1      -0.729  15.066  24.229  0.00  0.00    +0.000 NA
ENDBRANCH  29  30
ENDBRANCH  26  29
ENDBRANCH  20  23
ENDBRANCH   2  18
TORSDOF 6
ENDMDL
