MODEL 1
REMARK VINA RESULT:      -7.0      0.000      0.000
REMARK  Name = 
REMARK  5 active torsions:
REMARK  status: ('A' for Active; 'I' for Inactive)
REMARK    1  A    between atoms: C_1  and  N_2
REMARK    2  A    between atoms: N_2  and  C_3
REMARK    3  A    between atoms: N_2  and  C_11
REMARK    4  A    between atoms: C_6  and  C_7
REMARK    5  A    between atoms: N_14  and  C_15
REMARK                            x       y       z     vdW  Elec       q    Type
REMARK                         _______ _______ _______ _____ _____    ______ ____
ROOT
ATOM      1  C   UNL     1       3.100   4.346  19.677  0.00  0.00    +0.000 C 
ATOM      2  C   UNL     1       1.813   4.458  18.855  0.00  0.00    +0.000 C 
ATOM      3  C   UNL     1       1.879   5.805  18.172  0.00  0.00    +0.000 C 
ATOM      4  N   UNL     1       2.657   6.655  19.066  0.00  0.00    +0.000 N 
ATOM      5  C   UNL     1       3.589   5.816  19.846  0.00  0.00    +0.000 C 
ENDROOT
BRANCH   4   6
ATOM      6  C   UNL     1       1.961   7.668  19.727  0.00  0.00    +0.000 A 
ATOM      7  N   UNL     1       1.394   7.421  20.943  0.00  0.00    +0.000 NA
ATOM      8  C   UNL     1       0.593   8.344  21.510  0.00  0.00    +0.000 A 
ATOM      9  N   UNL     1       0.236   9.539  21.025  0.00  0.00    +0.000 NA
ATOM     10  C   UNL     1       0.813   9.765  19.839  0.00  0.00    +0.000 A 
ATOM     11  N   UNL     1       0.591  10.882  19.081  0.00  0.00    +0.000 N 
ATOM     12  C   UNL     1       1.323  10.809  17.923  0.00  0.00    +0.000 A 
ATOM     13  C   UNL     1       2.008   9.610  17.938  0.00  0.00    +0.000 A 
ATOM     14  C   UNL     1       1.681   8.928  19.147  0.00  0.00    +0.000 A 
ATOM     15  H   UNL     1      -0.048  11.619  19.344  0.00  0.00    +0.000 HD
ENDBRANCH   4   6
BRANCH   1  17
ATOM     16  C   UNL     1       4.463   2.210  19.899  0.00  0.00    +0.000 C 
ATOM     17  N   UNL     1       4.055   3.360  19.089  0.00  0.00    +0.000 N 
BRANCH  17  18
ATOM     18  C   UNL     1       4.871   3.745  18.010  0.00  0.00    +0.000 A 
ATOM     19  C   UNL     1       6.156   4.282  18.196  0.00  0.00    +0.000 A 
ATOM     20  C   UNL     1       6.948   4.727  17.121  0.00  0.00    +0.000 A 
ATOM     21  C   UNL     1       6.475   4.637  15.813  0.00  0.00    +0.000 A 
ATOM     22  C   UNL     1       5.226   4.069  15.589  0.00  0.00    +0.000 A 
ATOM     23  C   UNL     1       4.460   3.614  16.670  0.00  0.00    +0.000 A 
BRANCH  21  24
ATOM     24  C   UNL     1       7.254   5.116  14.709  0.00  0.00    +0.000 C 
ATOM     25  N   UNL     1       7.886   5.491  13.809  0.00  0.00    +0.000 NA
ENDBRANCH  21  24
ENDBRANCH  17  18
ENDBRANCH   1  17
TORSDOF 4
ENDMDL
MODEL 2
REMARK VINA RESULT:      -7.0      0.927      1.008
REMARK  Name = 
REMARK  5 active torsions:
REMARK  status: ('A' for Active; 'I' for Inactive)
REMARK    1  A    between atoms: C_1  and  N_2
REMARK    2  A    between atoms: N_2  and  C_3
REMARK    3  A    between atoms: N_2  and  C_11
REMARK    4  A    between atoms: C_6  and  C_7
REMARK    5  A    between atoms: N_14  and  C_15
REMARK                            x       y       z     vdW  Elec       q    Type
REMARK                         _______ _______ _______ _____ _____    ______ ____
ROOT
ATOM      1  C   UNL     1       3.749   5.206  19.678  0.00  0.00    +0.000 C 
ATOM      2  C   UNL     1       2.699   4.802  20.717  0.00  0.00    +0.000 C 
ATOM      3  C   UNL     1       1.427   5.511  20.311  0.00  0.00    +0.000 C 
ATOM      4  N   UNL     1       1.861   6.733  19.644  0.00  0.00    +0.000 N 
ATOM      5  C   UNL     1       3.189   6.513  19.039  0.00  0.00    +0.000 C 
ENDROOT
BRANCH   4   6
ATOM      6  C   UNL     1       1.629   7.930  20.323  0.00  0.00    +0.000 A 
ATOM      7  N   UNL     1       1.613   7.946  21.687  0.00  0.00    +0.000 NA
ATOM      8  C   UNL     1       1.237   9.061  22.342  0.00  0.00    +0.000 A 
ATOM      9  N   UNL     1       0.840  10.230  21.823  0.00  0.00    +0.000 NA
ATOM     10  C   UNL     1       0.876  10.196  20.486  0.00  0.00    +0.000 A 
ATOM     11  N   UNL     1       0.474  11.229  19.684  0.00  0.00    +0.000 N 
ATOM     12  C   UNL     1       0.628  10.879  18.367  0.00  0.00    +0.000 A 
ATOM     13  C   UNL     1       1.119   9.589  18.333  0.00  0.00    +0.000 A 
ATOM     14  C   UNL     1       1.267   9.136  19.676  0.00  0.00    +0.000 A 
ATOM     15  H   UNL     1       0.093  12.096  20.037  0.00  0.00    +0.000 HD
ENDBRANCH   4   6
BRANCH   1  17
ATOM     16  C   UNL     1       3.940   2.705  19.253  0.00  0.00    +0.000 C 
ATOM     17  N   UNL     1       4.091   4.077  18.763  0.00  0.00    +0.000 N 
BRANCH  17  18
ATOM     18  C   UNL     1       4.942   4.308  17.667  0.00  0.00    +0.000 A 
ATOM     19  C   UNL     1       6.241   4.823  17.820  0.00  0.00    +0.000 A 
ATOM     20  C   UNL     1       7.069   5.115  16.721  0.00  0.00    +0.000 A 
ATOM     21  C   UNL     1       6.621   4.886  15.422  0.00  0.00    +0.000 A 
ATOM     22  C   UNL     1       5.359   4.333  15.234  0.00  0.00    +0.000 A 
ATOM     23  C   UNL     1       4.555   4.032  16.342  0.00  0.00    +0.000 A 
BRANCH  21  24
ATOM     24  C   UNL     1       7.439   5.208  14.289  0.00  0.00    +0.000 C 
ATOM     25  N   UNL     1       8.091   5.467  13.362  0.00  0.00    +0.000 NA
ENDBRANCH  21  24
ENDBRANCH  17  18
ENDBRANCH   1  17
TORSDOF 4
ENDMDL
MODEL 3
REMARK VINA RESULT:      -6.7      0.539      1.111
REMARK  Name = 
REMARK  5 active torsions:
REMARK  status: ('A' for Active; 'I' for Inactive)
REMARK    1  A    between atoms: C_1  and  N_2
REMARK    2  A    between atoms: N_2  and  C_3
REMARK    3  A    between atoms: N_2  and  C_11
REMARK    4  A    between atoms: C_6  and  C_7
REMARK    5  A    between atoms: N_14  and  C_15
REMARK                            x       y       z     vdW  Elec       q    Type
REMARK                         _______ _______ _______ _____ _____    ______ ____
ROOT
ATOM      1  C   UNL     1       2.854   4.595  19.179  0.00  0.00    +0.000 C 
ATOM      2  C   UNL     1       2.023   5.154  18.020  0.00  0.00    +0.000 C 
ATOM      3  C   UNL     1       2.385   6.619  17.926  0.00  0.00    +0.000 C 
ATOM      4  N   UNL     1       2.738   7.018  19.284  0.00  0.00    +0.000 N 
ATOM      5  C   UNL     1       3.251   5.846  20.019  0.00  0.00    +0.000 C 
ENDROOT
BRANCH   4   6
ATOM      6  C   UNL     1       1.846   7.873  19.934  0.00  0.00    +0.000 A 
ATOM      7  N   UNL     1       1.243   7.474  21.090  0.00  0.00    +0.000 NA
ATOM      8  C   UNL     1       0.269   8.228  21.635  0.00  0.00    +0.000 A 
ATOM      9  N   UNL     1      -0.238   9.380  21.178  0.00  0.00    +0.000 NA
ATOM     10  C   UNL     1       0.377   9.758  20.051  0.00  0.00    +0.000 A 
ATOM     11  N   UNL     1       0.034  10.868  19.329  0.00  0.00    +0.000 N 
ATOM     12  C   UNL     1       0.846  10.974  18.229  0.00  0.00    +0.000 A 
ATOM     13  C   UNL     1       1.709   9.897  18.243  0.00  0.00    +0.000 A 
ATOM     14  C   UNL     1       1.411   9.105  19.391  0.00  0.00    +0.000 A 
ATOM     15  H   UNL     1      -0.731  11.482  19.575  0.00  0.00    +0.000 HD
ENDBRANCH   4   6
BRANCH   1  17
ATOM     16  C   UNL     1       4.458   2.666  19.602  0.00  0.00    +0.000 C 
ATOM     17  N   UNL     1       3.951   3.702  18.699  0.00  0.00    +0.000 N 
BRANCH  17  18
ATOM     18  C   UNL     1       4.766   4.120  17.632  0.00  0.00    +0.000 A 
ATOM     19  C   UNL     1       4.500   3.763  16.299  0.00  0.00    +0.000 A 
ATOM     20  C   UNL     1       5.350   4.127  15.238  0.00  0.00    +0.000 A 
ATOM     21  C   UNL     1       6.498   4.877  15.482  0.00  0.00    +0.000 A 
ATOM     22  C   UNL     1       6.768   5.287  16.782  0.00  0.00    +0.000 A 
ATOM     23  C   UNL     1       5.901   4.931  17.823  0.00  0.00    +0.000 A 
BRANCH  21  24
ATOM     24  C   UNL     1       7.393   5.228  14.418  0.00  0.00    +0.000 C 
ATOM     25  N   UNL     1       8.122   5.523  13.563  0.00  0.00    +0.000 NA
ENDBRANCH  21  24
ENDBRANCH  17  18
ENDBRANCH   1  17
TORSDOF 4
ENDMDL
MODEL 4
REMARK VINA RESULT:      -6.5      0.915      1.967
REMARK  Name = 
REMARK  5 active torsions:
REMARK  status: ('A' for Active; 'I' for Inactive)
REMARK    1  A    between atoms: C_1  and  N_2
REMARK    2  A    between atoms: N_2  and  C_3
REMARK    3  A    between atoms: N_2  and  C_11
REMARK    4  A    between atoms: C_6  and  C_7
REMARK    5  A    between atoms: N_14  and  C_15
REMARK                            x       y       z     vdW  Elec       q    Type
REMARK                         _______ _______ _______ _____ _____    ______ ____
ROOT
ATOM      1  C   UNL     1       3.447   5.256  19.234  0.00  0.00    +0.000 C 
ATOM      2  C   UNL     1       1.974   5.046  18.873  0.00  0.00    +0.000 C 
ATOM      3  C   UNL     1       1.673   6.048  17.782  0.00  0.00    +0.000 C 
ATOM      4  N   UNL     1       2.565   7.174  18.034  0.00  0.00    +0.000 N 
ATOM      5  C   UNL     1       3.778   6.690  18.721  0.00  0.00    +0.000 C 
ENDROOT
BRANCH   4   6
ATOM      6  C   UNL     1       1.970   8.353  18.485  0.00  0.00    +0.000 A 
ATOM      7  N   UNL     1       1.927   9.447  17.672  0.00  0.00    +0.000 NA
ATOM      8  C   UNL     1       1.496  10.628  18.157  0.00  0.00    +0.000 A 
ATOM      9  N   UNL     1       1.086  10.911  19.399  0.00  0.00    +0.000 NA
ATOM     10  C   UNL     1       1.124   9.821  20.175  0.00  0.00    +0.000 A 
ATOM     11  N   UNL     1       0.812   9.820  21.507  0.00  0.00    +0.000 N 
ATOM     12  C   UNL     1       0.956   8.554  22.015  0.00  0.00    +0.000 A 
ATOM     13  C   UNL     1       1.387   7.739  20.987  0.00  0.00    +0.000 A 
ATOM     14  C   UNL     1       1.514   8.537  19.812  0.00  0.00    +0.000 A 
ATOM     15  H   UNL     1       0.551  10.649  22.022  0.00  0.00    +0.000 HD
ENDBRANCH   4   6
BRANCH   1  17
ATOM     16  C   UNL     1       4.648   3.061  19.696  0.00  0.00    +0.000 C 
ATOM     17  N   UNL     1       4.306   4.131  18.756  0.00  0.00    +0.000 N 
BRANCH  17  18
ATOM     18  C   UNL     1       5.117   4.314  17.622  0.00  0.00    +0.000 A 
ATOM     19  C   UNL     1       6.481   4.634  17.718  0.00  0.00    +0.000 A 
ATOM     20  C   UNL     1       7.279   4.880  16.584  0.00  0.00    +0.000 A 
ATOM     21  C   UNL     1       6.729   4.799  15.307  0.00  0.00    +0.000 A 
ATOM     22  C   UNL     1       5.393   4.439  15.172  0.00  0.00    +0.000 A 
ATOM     23  C   UNL     1       4.619   4.180  16.311  0.00  0.00    +0.000 A 
BRANCH  21  24
ATOM     24  C   UNL     1       7.518   5.079  14.142  0.00  0.00    +0.000 C 
ATOM     25  N   UNL     1       8.158   5.318  13.203  0.00  0.00    +0.000 NA
ENDBRANCH  21  24
ENDBRANCH  17  18
ENDBRANCH   1  17
TORSDOF 4
ENDMDL
MODEL 5
REMARK VINA RESULT:      -6.5      1.336      2.466
REMARK  Name = 
REMARK  5 active torsions:
REMARK  status: ('A' for Active; 'I' for Inactive)
REMARK    1  A    between atoms: C_1  and  N_2
REMARK    2  A    between atoms: N_2  and  C_3
REMARK    3  A    between atoms: N_2  and  C_11
REMARK    4  A    between atoms: C_6  and  C_7
REMARK    5  A    between atoms: N_14  and  C_15
REMARK                            x       y       z     vdW  Elec       q    Type
REMARK                         _______ _______ _______ _____ _____    ______ ____
ROOT
ATOM      1  C   UNL     1       2.054   5.837  18.966  0.00  0.00    +0.000 C 
ATOM      2  C   UNL     1       2.097   6.706  17.706  0.00  0.00    +0.000 C 
ATOM      3  C   UNL     1       2.539   8.076  18.167  0.00  0.00    +0.000 C 
ATOM      4  N   UNL     1       2.054   8.198  19.537  0.00  0.00    +0.000 N 
ATOM      5  C   UNL     1       1.964   6.854  20.143  0.00  0.00    +0.000 C 
ENDROOT
BRANCH   4   6
ATOM      6  C   UNL     1       1.008   9.096  19.752  0.00  0.00    +0.000 A 
ATOM      7  N   UNL     1       0.528   9.839  18.714  0.00  0.00    +0.000 NA
ATOM      8  C   UNL     1      -0.371  10.816  18.946  0.00  0.00    +0.000 A 
ATOM      9  N   UNL     1      -0.890  11.199  20.119  0.00  0.00    +0.000 NA
ATOM     10  C   UNL     1      -0.415  10.448  21.120  0.00  0.00    +0.000 A 
ATOM     11  N   UNL     1      -0.728  10.644  22.437  0.00  0.00    +0.000 N 
ATOM     12  C   UNL     1      -0.077   9.717  23.210  0.00  0.00    +0.000 A 
ATOM     13  C   UNL     1       0.681   8.929  22.367  0.00  0.00    +0.000 A 
ATOM     14  C   UNL     1       0.486   9.394  21.033  0.00  0.00    +0.000 A 
ATOM     15  H   UNL     1      -1.326  11.390  22.766  0.00  0.00    +0.000 HD
ENDBRANCH   4   6
BRANCH   1  17
ATOM     16  C   UNL     1       3.460   4.153  20.255  0.00  0.00    +0.000 C 
ATOM     17  N   UNL     1       3.165   4.839  18.994  0.00  0.00    +0.000 N 
BRANCH  17  18
ATOM     18  C   UNL     1       4.164   4.887  18.006  0.00  0.00    +0.000 A 
ATOM     19  C   UNL     1       5.251   5.774  18.079  0.00  0.00    +0.000 A 
ATOM     20  C   UNL     1       6.216   5.869  17.060  0.00  0.00    +0.000 A 
ATOM     21  C   UNL     1       6.126   5.060  15.929  0.00  0.00    +0.000 A 
ATOM     22  C   UNL     1       5.089   4.137  15.844  0.00  0.00    +0.000 A 
ATOM     23  C   UNL     1       4.148   4.045  16.877  0.00  0.00    +0.000 A 
BRANCH  21  24
ATOM     24  C   UNL     1       7.082   5.165  14.865  0.00  0.00    +0.000 C 
ATOM     25  N   UNL     1       7.856   5.264  14.004  0.00  0.00    +0.000 NA
ENDBRANCH  21  24
ENDBRANCH  17  18
ENDBRANCH   1  17
TORSDOF 4
ENDMDL
MODEL 6
REMARK VINA RESULT:      -6.5      1.078      1.171
REMARK  Name = 
REMARK  5 active torsions:
REMARK  status: ('A' for Active; 'I' for Inactive)
REMARK    1  A    between atoms: C_1  and  N_2
REMARK    2  A    between atoms: N_2  and  C_3
REMARK    3  A    between atoms: N_2  and  C_11
REMARK    4  A    between atoms: C_6  and  C_7
REMARK    5  A    between atoms: N_14  and  C_15
REMARK                            x       y       z     vdW  Elec       q    Type
REMARK                         _______ _______ _______ _____ _____    ______ ____
ROOT
ATOM      1  C   UNL     1       2.046   5.026  19.464  0.00  0.00    +0.000 C 
ATOM      2  C   UNL     1       1.828   5.921  18.240  0.00  0.00    +0.000 C 
ATOM      3  C   UNL     1       2.479   7.243  18.578  0.00  0.00    +0.000 C 
ATOM      4  N   UNL     1       2.376   7.366  20.027  0.00  0.00    +0.000 N 
ATOM      5  C   UNL     1       2.342   6.018  20.629  0.00  0.00    +0.000 C 
ENDROOT
BRANCH   4   6
ATOM      6  C   UNL     1       1.494   8.333  20.511  0.00  0.00    +0.000 A 
ATOM      7  N   UNL     1       1.165   8.351  21.834  0.00  0.00    +0.000 NA
ATOM      8  C   UNL     1       0.198   9.180  22.275  0.00  0.00    +0.000 A 
ATOM      9  N   UNL     1      -0.543  10.037  21.562  0.00  0.00    +0.000 NA
ATOM     10  C   UNL     1      -0.194  10.011  20.271  0.00  0.00    +0.000 A 
ATOM     11  N   UNL     1      -0.816  10.743  19.297  0.00  0.00    +0.000 N 
ATOM     12  C   UNL     1      -0.230  10.491  18.083  0.00  0.00    +0.000 A 
ATOM     13  C   UNL     1       0.772   9.564  18.289  0.00  0.00    +0.000 A 
ATOM     14  C   UNL     1       0.796   9.238  19.677  0.00  0.00    +0.000 A 
ATOM     15  H   UNL     1      -1.609  11.346  19.469  0.00  0.00    +0.000 HD
ENDBRANCH   4   6
BRANCH   1  17
ATOM     16  C   UNL     1       3.241   2.907  20.209  0.00  0.00    +0.000 C 
ATOM     17  N   UNL     1       3.045   3.949  19.197  0.00  0.00    +0.000 N 
BRANCH  17  18
ATOM     18  C   UNL     1       4.065   4.169  18.254  0.00  0.00    +0.000 A 
ATOM     19  C   UNL     1       5.275   4.800  18.589  0.00  0.00    +0.000 A 
ATOM     20  C   UNL     1       6.269   5.078  17.632  0.00  0.00    +0.000 A 
ATOM     21  C   UNL     1       6.083   4.717  16.299  0.00  0.00    +0.000 A 
ATOM     22  C   UNL     1       4.918   4.050  15.941  0.00  0.00    +0.000 A 
ATOM     23  C   UNL     1       3.947   3.765  16.910  0.00  0.00    +0.000 A 
BRANCH  21  24
ATOM     24  C   UNL     1       7.070   5.022  15.305  0.00  0.00    +0.000 C 
ATOM     25  N   UNL     1       7.862   5.277  14.493  0.00  0.00    +0.000 NA
ENDBRANCH  21  24
ENDBRANCH  17  18
ENDBRANCH   1  17
TORSDOF 4
ENDMDL
MODEL 7
REMARK VINA RESULT:      -6.3      1.408      2.689
REMARK  Name = 
REMARK  5 active torsions:
REMARK  status: ('A' for Active; 'I' for Inactive)
REMARK    1  A    between atoms: C_1  and  N_2
REMARK    2  A    between atoms: N_2  and  C_3
REMARK    3  A    between atoms: N_2  and  C_11
REMARK    4  A    between atoms: C_6  and  C_7
REMARK    5  A    between atoms: N_14  and  C_15
REMARK                            x       y       z     vdW  Elec       q    Type
REMARK                         _______ _______ _______ _____ _____    ______ ____
ROOT
ATOM      1  C   UNL     1       2.180   6.027  18.852  0.00  0.00    +0.000 C 
ATOM      2  C   UNL     1       2.080   6.876  17.581  0.00  0.00    +0.000 C 
ATOM      3  C   UNL     1       2.454   8.280  17.996  0.00  0.00    +0.000 C 
ATOM      4  N   UNL     1       2.052   8.390  19.394  0.00  0.00    +0.000 N 
ATOM      5  C   UNL     1       2.095   7.054  20.020  0.00  0.00    +0.000 C 
ENDROOT
BRANCH   4   6
ATOM      6  C   UNL     1       0.962   9.218  19.665  0.00  0.00    +0.000 A 
ATOM      7  N   UNL     1       0.399   9.951  18.662  0.00  0.00    +0.000 NA
ATOM      8  C   UNL     1      -0.549  10.865  18.948  0.00  0.00    +0.000 A 
ATOM      9  N   UNL     1      -1.047  11.192  20.147  0.00  0.00    +0.000 NA
ATOM     10  C   UNL     1      -0.490  10.452  21.113  0.00  0.00    +0.000 A 
ATOM     11  N   UNL     1      -0.765  10.602  22.445  0.00  0.00    +0.000 N 
ATOM     12  C   UNL     1      -0.030   9.702  23.174  0.00  0.00    +0.000 A 
ATOM     13  C   UNL     1       0.743   8.979  22.286  0.00  0.00    +0.000 A 
ATOM     14  C   UNL     1       0.471   9.458  20.971  0.00  0.00    +0.000 A 
ATOM     15  H   UNL     1      -1.394  11.302  22.811  0.00  0.00    +0.000 HD
ENDBRANCH   4   6
BRANCH   1  17
ATOM     16  C   UNL     1       3.816   4.510  20.075  0.00  0.00    +0.000 C 
ATOM     17  N   UNL     1       3.357   5.108  18.819  0.00  0.00    +0.000 N 
BRANCH  17  18
ATOM     18  C   UNL     1       4.255   5.172  17.738  0.00  0.00    +0.000 A 
ATOM     19  C   UNL     1       4.209   4.261  16.669  0.00  0.00    +0.000 A 
ATOM     20  C   UNL     1       5.147   4.285  15.620  0.00  0.00    +0.000 A 
ATOM     21  C   UNL     1       6.162   5.239  15.605  0.00  0.00    +0.000 A 
ATOM     22  C   UNL     1       6.209   6.185  16.622  0.00  0.00    +0.000 A 
ATOM     23  C   UNL     1       5.256   6.157  17.649  0.00  0.00    +0.000 A 
BRANCH  21  24
ATOM     24  C   UNL     1       7.145   5.258  14.561  0.00  0.00    +0.000 C 
ATOM     25  N   UNL     1       7.949   5.262  13.722  0.00  0.00    +0.000 NA
ENDBRANCH  21  24
ENDBRANCH  17  18
ENDBRANCH   1  17
TORSDOF 4
ENDMDL
MODEL 8
REMARK VINA RESULT:      -6.3      4.794      7.544
REMARK  Name = 
REMARK  5 active torsions:
REMARK  status: ('A' for Active; 'I' for Inactive)
REMARK    1  A    between atoms: C_1  and  N_2
REMARK    2  A    between atoms: N_2  and  C_3
REMARK    3  A    between atoms: N_2  and  C_11
REMARK    4  A    between atoms: C_6  and  C_7
REMARK    5  A    between atoms: N_14  and  C_15
REMARK                            x       y       z     vdW  Elec       q    Type
REMARK                         _______ _______ _______ _____ _____    ______ ____
ROOT
ATOM      1  C   UNL     1      -1.242  10.486  19.210  0.00  0.00    +0.000 C 
ATOM      2  C   UNL     1      -1.812  10.083  17.846  0.00  0.00    +0.000 C 
ATOM      3  C   UNL     1      -2.586  11.284  17.354  0.00  0.00    +0.000 C 
ATOM      4  N   UNL     1      -3.061  11.958  18.558  0.00  0.00    +0.000 N 
ATOM      5  C   UNL     1      -2.130  11.681  19.670  0.00  0.00    +0.000 C 
ENDROOT
BRANCH   4   6
ATOM      6  C   UNL     1      -4.433  11.898  18.807  0.00  0.00    +0.000 A 
ATOM      7  N   UNL     1      -5.215  11.039  18.093  0.00  0.00    +0.000 NA
ATOM      8  C   UNL     1      -6.556  11.089  18.219  0.00  0.00    +0.000 A 
ATOM      9  N   UNL     1      -7.284  11.914  18.982  0.00  0.00    +0.000 NA
ATOM     10  C   UNL     1      -6.495  12.737  19.682  0.00  0.00    +0.000 A 
ATOM     11  N   UNL     1      -6.962  13.724  20.507  0.00  0.00    +0.000 N 
ATOM     12  C   UNL     1      -5.906  14.393  21.071  0.00  0.00    +0.000 A 
ATOM     13  C   UNL     1      -4.745  13.831  20.578  0.00  0.00    +0.000 A 
ATOM     14  C   UNL     1      -5.106  12.784  19.680  0.00  0.00    +0.000 A 
ATOM     15  H   UNL     1      -7.943  13.929  20.635  0.00  0.00    +0.000 HD
ENDBRANCH   4   6
BRANCH   1  17
ATOM     16  C   UNL     1       0.742  12.016  18.769  0.00  0.00    +0.000 C 
ATOM     17  N   UNL     1       0.235  10.697  19.158  0.00  0.00    +0.000 N 
BRANCH  17  18
ATOM     18  C   UNL     1       1.089   9.587  19.035  0.00  0.00    +0.000 A 
ATOM     19  C   UNL     1       1.835   9.338  17.870  0.00  0.00    +0.000 A 
ATOM     20  C   UNL     1       2.641   8.194  17.722  0.00  0.00    +0.000 A 
ATOM     21  C   UNL     1       2.732   7.260  18.752  0.00  0.00    +0.000 A 
ATOM     22  C   UNL     1       2.045   7.497  19.937  0.00  0.00    +0.000 A 
ATOM     23  C   UNL     1       1.262   8.652  20.073  0.00  0.00    +0.000 A 
BRANCH  21  24
ATOM     24  C   UNL     1       3.522   6.072  18.606  0.00  0.00    +0.000 C 
ATOM     25  N   UNL     1       4.154   5.103  18.498  0.00  0.00    +0.000 NA
ENDBRANCH  21  24
ENDBRANCH  17  18
ENDBRANCH   1  17
TORSDOF 4
ENDMDL
MODEL 9
REMARK VINA RESULT:      -6.3      2.235      3.918
REMARK  Name = 
REMARK  5 active torsions:
REMARK  status: ('A' for Active; 'I' for Inactive)
REMARK    1  A    between atoms: C_1  and  N_2
REMARK    2  A    between atoms: N_2  and  C_3
REMARK    3  A    between atoms: N_2  and  C_11
REMARK    4  A    between atoms: C_6  and  C_7
REMARK    5  A    between atoms: N_14  and  C_15
REMARK                            x       y       z     vdW  Elec       q    Type
REMARK                         _______ _______ _______ _____ _____    ______ ____
ROOT
ATOM      1  C   UNL     1       2.173   8.110  19.561  0.00  0.00    +0.000 C 
ATOM      2  C   UNL     1       1.524   8.549  20.877  0.00  0.00    +0.000 C 
ATOM      3  C   UNL     1       0.200   9.171  20.494  0.00  0.00    +0.000 C 
ATOM      4  N   UNL     1       0.406   9.727  19.161  0.00  0.00    +0.000 N 
ATOM      5  C   UNL     1       1.453   8.953  18.466  0.00  0.00    +0.000 C 
ENDROOT
BRANCH   4   6
ATOM      6  C   UNL     1       0.432  11.119  19.064  0.00  0.00    +0.000 A 
ATOM      7  N   UNL     1       1.605  11.759  18.791  0.00  0.00    +0.000 NA
ATOM      8  C   UNL     1       1.667  13.104  18.850  0.00  0.00    +0.000 A 
ATOM      9  N   UNL     1       0.691  13.962  19.168  0.00  0.00    +0.000 NA
ATOM     10  C   UNL     1      -0.452  13.314  19.419  0.00  0.00    +0.000 A 
ATOM     11  N   UNL     1      -1.607  13.928  19.821  0.00  0.00    +0.000 N 
ATOM     12  C   UNL     1      -2.592  12.991  20.001  0.00  0.00    +0.000 A 
ATOM     13  C   UNL     1      -2.044  11.753  19.727  0.00  0.00    +0.000 A 
ATOM     14  C   UNL     1      -0.677  11.943  19.369  0.00  0.00    +0.000 A 
ATOM     15  H   UNL     1      -1.684  14.922  19.986  0.00  0.00    +0.000 HD
ENDBRANCH   4   6
BRANCH   1  17
ATOM     16  C   UNL     1       1.739   5.801  20.537  0.00  0.00    +0.000 C 
ATOM     17  N   UNL     1       2.173   6.625  19.406  0.00  0.00    +0.000 N 
BRANCH  17  18
ATOM     18  C   UNL     1       2.973   6.033  18.413  0.00  0.00    +0.000 A 
ATOM     19  C   UNL     1       2.881   4.669  18.089  0.00  0.00    +0.000 A 
ATOM     20  C   UNL     1       3.726   4.062  17.140  0.00  0.00    +0.000 A 
ATOM     21  C   UNL     1       4.690   4.814  16.473  0.00  0.00    +0.000 A 
ATOM     22  C   UNL     1       4.778   6.177  16.735  0.00  0.00    +0.000 A 
ATOM     23  C   UNL     1       3.916   6.767  17.669  0.00  0.00    +0.000 A 
BRANCH  21  24
ATOM     24  C   UNL     1       5.580   4.206  15.528  0.00  0.00    +0.000 C 
ATOM     25  N   UNL     1       6.297   3.722  14.752  0.00  0.00    +0.000 NA
ENDBRANCH  21  24
ENDBRANCH  17  18
ENDBRANCH   1  17
TORSDOF 4
ENDMDL
