MODEL 1
REMARK VINA RESULT:      -7.5      0.000      0.000
REMARK  Name = 
REMARK  5 active torsions:
REMARK  status: ('A' for Active; 'I' for Inactive)
REMARK    1  A    between atoms: C_1  and  C_2
REMARK    2  A    between atoms: C_2  and  N_3
REMARK    3  A    between atoms: C_4  and  C_5
REMARK    4  A    between atoms: C_14  and  O_15
REMARK    5  A    between atoms: O_15  and  C_16
REMARK                            x       y       z     vdW  Elec       q    Type
REMARK                         _______ _______ _______ _____ _____    ______ ____
ROOT
ATOM      1  N   UNL     1       5.538   4.873  18.040  0.00  0.00    +0.000 N 
ATOM      2  C   UNL     1       4.331   4.155  18.135  0.00  0.00    +0.000 A 
ATOM      3  C   UNL     1       4.094   3.644  16.866  0.00  0.00    +0.000 A 
ATOM      4  C   UNL     1       5.133   4.042  15.991  0.00  0.00    +0.000 A 
ATOM      5  C   UNL     1       5.391   3.795  14.623  0.00  0.00    +0.000 A 
ATOM      6  C   UNL     1       6.522   4.340  14.004  0.00  0.00    +0.000 A 
ATOM      7  C   UNL     1       7.394   5.117  14.751  0.00  0.00    +0.000 A 
ATOM      8  C   UNL     1       7.162   5.362  16.108  0.00  0.00    +0.000 A 
ATOM      9  C   UNL     1       6.024   4.818  16.735  0.00  0.00    +0.000 A 
ENDROOT
BRANCH   2  10
ATOM     10  C   UNL     1       3.524   3.916  19.360  0.00  0.00    +0.000 A 
ATOM     11  C   UNL     1       3.673   2.785  20.174  0.00  0.00    +0.000 A 
ATOM     12  C   UNL     1       2.829   2.544  21.264  0.00  0.00    +0.000 A 
ATOM     13  C   UNL     1       1.856   3.476  21.608  0.00  0.00    +0.000 A 
ATOM     14  C   UNL     1       1.742   4.647  20.871  0.00  0.00    +0.000 A 
ATOM     15  C   UNL     1       2.562   4.863  19.754  0.00  0.00    +0.000 A 
ENDBRANCH   2  10
BRANCH   1  17
ATOM     16  C   UNL     1       7.663   5.586  19.355  0.00  0.00    +0.000 C 
ATOM     17  C   UNL     1       6.155   5.541  19.178  0.00  0.00    +0.000 C 
ENDBRANCH   1  17
BRANCH   6  18
ATOM     18  O   UNL     1       6.667   4.041  12.675  0.00  0.00    +0.000 OA
ATOM     19  C   UNL     1       5.720   3.132  12.123  0.00  0.00    +0.000 C 
ENDBRANCH   6  18
TORSDOF 3
ENDMDL
MODEL 2
REMARK VINA RESULT:      -7.4      0.330      1.127
REMARK  Name = 
REMARK  5 active torsions:
REMARK  status: ('A' for Active; 'I' for Inactive)
REMARK    1  A    between atoms: C_1  and  C_2
REMARK    2  A    between atoms: C_2  and  N_3
REMARK    3  A    between atoms: C_4  and  C_5
REMARK    4  A    between atoms: C_14  and  O_15
REMARK    5  A    between atoms: O_15  and  C_16
REMARK                            x       y       z     vdW  Elec       q    Type
REMARK                         _______ _______ _______ _____ _____    ______ ____
ROOT
ATOM      1  N   UNL     1       5.286   4.811  18.065  0.00  0.00    +0.000 N 
ATOM      2  C   UNL     1       4.067   4.109  18.048  0.00  0.00    +0.000 A 
ATOM      3  C   UNL     1       3.914   3.648  16.747  0.00  0.00    +0.000 A 
ATOM      4  C   UNL     1       5.016   4.063  15.963  0.00  0.00    +0.000 A 
ATOM      5  C   UNL     1       5.366   3.863  14.607  0.00  0.00    +0.000 A 
ATOM      6  C   UNL     1       6.545   4.413  14.090  0.00  0.00    +0.000 A 
ATOM      7  C   UNL     1       7.372   5.148  14.925  0.00  0.00    +0.000 A 
ATOM      8  C   UNL     1       7.048   5.346  16.271  0.00  0.00    +0.000 A 
ATOM      9  C   UNL     1       5.862   4.797  16.796  0.00  0.00    +0.000 A 
ENDROOT
BRANCH   2  10
ATOM     10  C   UNL     1       3.173   3.836  19.204  0.00  0.00    +0.000 A 
ATOM     11  C   UNL     1       1.966   4.513  19.423  0.00  0.00    +0.000 A 
ATOM     12  C   UNL     1       1.198   4.300  20.573  0.00  0.00    +0.000 A 
ATOM     13  C   UNL     1       1.590   3.343  21.502  0.00  0.00    +0.000 A 
ATOM     14  C   UNL     1       2.738   2.596  21.270  0.00  0.00    +0.000 A 
ATOM     15  C   UNL     1       3.525   2.844  20.136  0.00  0.00    +0.000 A 
ENDBRANCH   2  10
BRANCH   1  17
ATOM     16  C   UNL     1       7.327   5.568  19.485  0.00  0.00    +0.000 C 
ATOM     17  C   UNL     1       5.831   5.427  19.268  0.00  0.00    +0.000 C 
ENDBRANCH   1  17
BRANCH   6  18
ATOM     18  O   UNL     1       6.780   4.162  12.765  0.00  0.00    +0.000 OA
ATOM     19  C   UNL     1       5.959   3.171  12.153  0.00  0.00    +0.000 C 
ENDBRANCH   6  18
TORSDOF 3
ENDMDL
MODEL 3
REMARK VINA RESULT:      -7.3      1.526      2.057
REMARK  Name = 
REMARK  5 active torsions:
REMARK  status: ('A' for Active; 'I' for Inactive)
REMARK    1  A    between atoms: C_1  and  C_2
REMARK    2  A    between atoms: C_2  and  N_3
REMARK    3  A    between atoms: C_4  and  C_5
REMARK    4  A    between atoms: C_14  and  O_15
REMARK    5  A    between atoms: O_15  and  C_16
REMARK                            x       y       z     vdW  Elec       q    Type
REMARK                         _______ _______ _______ _____ _____    ______ ____
ROOT
ATOM      1  N   UNL     1       3.903   5.280  17.848  0.00  0.00    +0.000 N 
ATOM      2  C   UNL     1       3.543   3.956  18.157  0.00  0.00    +0.000 A 
ATOM      3  C   UNL     1       4.156   3.163  17.195  0.00  0.00    +0.000 A 
ATOM      4  C   UNL     1       4.882   3.980  16.297  0.00  0.00    +0.000 A 
ATOM      5  C   UNL     1       5.683   3.698  15.167  0.00  0.00    +0.000 A 
ATOM      6  C   UNL     1       6.286   4.736  14.447  0.00  0.00    +0.000 A 
ATOM      7  C   UNL     1       6.098   6.045  14.861  0.00  0.00    +0.000 A 
ATOM      8  C   UNL     1       5.319   6.343  15.984  0.00  0.00    +0.000 A 
ATOM      9  C   UNL     1       4.708   5.303  16.710  0.00  0.00    +0.000 A 
ENDROOT
BRANCH   2  10
ATOM     10  C   UNL     1       2.747   3.492  19.323  0.00  0.00    +0.000 A 
ATOM     11  C   UNL     1       1.348   3.562  19.381  0.00  0.00    +0.000 A 
ATOM     12  C   UNL     1       0.639   3.207  20.534  0.00  0.00    +0.000 A 
ATOM     13  C   UNL     1       1.315   2.701  21.638  0.00  0.00    +0.000 A 
ATOM     14  C   UNL     1       2.694   2.540  21.578  0.00  0.00    +0.000 A 
ATOM     15  C   UNL     1       3.403   2.937  20.436  0.00  0.00    +0.000 A 
ENDBRANCH   2  10
BRANCH   1  17
ATOM     16  C   UNL     1       2.403   7.377  18.173  0.00  0.00    +0.000 C 
ATOM     17  C   UNL     1       3.485   6.423  18.648  0.00  0.00    +0.000 C 
ENDBRANCH   1  17
BRANCH   6  18
ATOM     18  O   UNL     1       7.033   4.347  13.367  0.00  0.00    +0.000 OA
ATOM     19  C   UNL     1       6.372   3.540  12.397  0.00  0.00    +0.000 C 
ENDBRANCH   6  18
TORSDOF 3
ENDMDL
MODEL 4
REMARK VINA RESULT:      -7.2      1.515      1.822
REMARK  Name = 
REMARK  5 active torsions:
REMARK  status: ('A' for Active; 'I' for Inactive)
REMARK    1  A    between atoms: C_1  and  C_2
REMARK    2  A    between atoms: C_2  and  N_3
REMARK    3  A    between atoms: C_4  and  C_5
REMARK    4  A    between atoms: C_14  and  O_15
REMARK    5  A    between atoms: O_15  and  C_16
REMARK                            x       y       z     vdW  Elec       q    Type
REMARK                         _______ _______ _______ _____ _____    ______ ____
ROOT
ATOM      1  N   UNL     1       3.941   5.312  17.834  0.00  0.00    +0.000 N 
ATOM      2  C   UNL     1       3.587   3.998  18.195  0.00  0.00    +0.000 A 
ATOM      3  C   UNL     1       4.187   3.173  17.252  0.00  0.00    +0.000 A 
ATOM      4  C   UNL     1       4.898   3.960  16.315  0.00  0.00    +0.000 A 
ATOM      5  C   UNL     1       5.681   3.639  15.182  0.00  0.00    +0.000 A 
ATOM      6  C   UNL     1       6.272   4.651  14.417  0.00  0.00    +0.000 A 
ATOM      7  C   UNL     1       6.088   5.975  14.789  0.00  0.00    +0.000 A 
ATOM      8  C   UNL     1       5.326   6.310  15.912  0.00  0.00    +0.000 A 
ATOM      9  C   UNL     1       4.728   5.295  16.684  0.00  0.00    +0.000 A 
ENDROOT
BRANCH   2  10
ATOM     10  C   UNL     1       2.810   3.575  19.388  0.00  0.00    +0.000 A 
ATOM     11  C   UNL     1       3.399   3.050  20.547  0.00  0.00    +0.000 A 
ATOM     12  C   UNL     1       2.630   2.570  21.613  0.00  0.00    +0.000 A 
ATOM     13  C   UNL     1       1.244   2.673  21.571  0.00  0.00    +0.000 A 
ATOM     14  C   UNL     1       0.636   3.266  20.472  0.00  0.00    +0.000 A 
ATOM     15  C   UNL     1       1.410   3.706  19.389  0.00  0.00    +0.000 A 
ENDBRANCH   2  10
BRANCH   1  17
ATOM     16  C   UNL     1       2.402   7.383  18.140  0.00  0.00    +0.000 C 
ATOM     17  C   UNL     1       3.534   6.482  18.601  0.00  0.00    +0.000 C 
ENDBRANCH   1  17
BRANCH   6  18
ATOM     18  O   UNL     1       7.003   4.226  13.341  0.00  0.00    +0.000 OA
ATOM     19  C   UNL     1       6.304   3.459  12.364  0.00  0.00    +0.000 C 
ENDBRANCH   6  18
TORSDOF 3
ENDMDL
MODEL 5
REMARK VINA RESULT:      -7.0      2.510      6.457
REMARK  Name = 
REMARK  5 active torsions:
REMARK  status: ('A' for Active; 'I' for Inactive)
REMARK    1  A    between atoms: C_1  and  C_2
REMARK    2  A    between atoms: C_2  and  N_3
REMARK    3  A    between atoms: C_4  and  C_5
REMARK    4  A    between atoms: C_14  and  O_15
REMARK    5  A    between atoms: O_15  and  C_16
REMARK                            x       y       z     vdW  Elec       q    Type
REMARK                         _______ _______ _______ _____ _____    ______ ____
ROOT
ATOM      1  N   UNL     1       5.092   5.533  16.907  0.00  0.00    +0.000 N 
ATOM      2  C   UNL     1       5.090   4.472  15.982  0.00  0.00    +0.000 A 
ATOM      3  C   UNL     1       4.162   3.556  16.459  0.00  0.00    +0.000 A 
ATOM      4  C   UNL     1       3.598   4.034  17.666  0.00  0.00    +0.000 A 
ATOM      5  C   UNL     1       2.617   3.518  18.544  0.00  0.00    +0.000 A 
ATOM      6  C   UNL     1       2.256   4.224  19.697  0.00  0.00    +0.000 A 
ATOM      7  C   UNL     1       2.862   5.442  19.964  0.00  0.00    +0.000 A 
ATOM      8  C   UNL     1       3.826   5.973  19.101  0.00  0.00    +0.000 A 
ATOM      9  C   UNL     1       4.195   5.266  17.940  0.00  0.00    +0.000 A 
ENDROOT
BRANCH   2  10
ATOM     10  C   UNL     1       5.855   4.390  14.711  0.00  0.00    +0.000 A 
ATOM     11  C   UNL     1       7.103   4.998  14.519  0.00  0.00    +0.000 A 
ATOM     12  C   UNL     1       7.749   4.983  13.278  0.00  0.00    +0.000 A 
ATOM     13  C   UNL     1       7.188   4.290  12.211  0.00  0.00    +0.000 A 
ATOM     14  C   UNL     1       5.993   3.605  12.395  0.00  0.00    +0.000 A 
ATOM     15  C   UNL     1       5.330   3.660  13.629  0.00  0.00    +0.000 A 
ENDBRANCH   2  10
BRANCH   1  17
ATOM     16  C   UNL     1       7.133   6.974  17.623  0.00  0.00    +0.000 C 
ATOM     17  C   UNL     1       5.917   6.723  16.748  0.00  0.00    +0.000 C 
ENDBRANCH   1  17
BRANCH   6  18
ATOM     18  O   UNL     1       1.302   3.627  20.478  0.00  0.00    +0.000 OA
ATOM     19  C   UNL     1       1.774   2.884  21.598  0.00  0.00    +0.000 C 
ENDBRANCH   6  18
TORSDOF 3
ENDMDL
MODEL 6
REMARK VINA RESULT:      -6.9      3.007      4.237
REMARK  Name = 
REMARK  5 active torsions:
REMARK  status: ('A' for Active; 'I' for Inactive)
REMARK    1  A    between atoms: C_1  and  C_2
REMARK    2  A    between atoms: C_2  and  N_3
REMARK    3  A    between atoms: C_4  and  C_5
REMARK    4  A    between atoms: C_14  and  O_15
REMARK    5  A    between atoms: O_15  and  C_16
REMARK                            x       y       z     vdW  Elec       q    Type
REMARK                         _______ _______ _______ _____ _____    ______ ____
ROOT
ATOM      1  N   UNL     1       2.787   5.772  18.557  0.00  0.00    +0.000 N 
ATOM      2  C   UNL     1       2.799   7.176  18.464  0.00  0.00    +0.000 A 
ATOM      3  C   UNL     1       3.765   7.484  17.515  0.00  0.00    +0.000 A 
ATOM      4  C   UNL     1       4.351   6.292  17.028  0.00  0.00    +0.000 A 
ATOM      5  C   UNL     1       5.352   6.032  16.064  0.00  0.00    +0.000 A 
ATOM      6  C   UNL     1       5.747   4.718  15.788  0.00  0.00    +0.000 A 
ATOM      7  C   UNL     1       5.138   3.671  16.462  0.00  0.00    +0.000 A 
ATOM      8  C   UNL     1       4.138   3.909  17.411  0.00  0.00    +0.000 A 
ATOM      9  C   UNL     1       3.738   5.229  17.694  0.00  0.00    +0.000 A 
ENDROOT
BRANCH   2  10
ATOM     10  C   UNL     1       1.901   8.128  19.168  0.00  0.00    +0.000 A 
ATOM     11  C   UNL     1       1.636   8.069  20.542  0.00  0.00    +0.000 A 
ATOM     12  C   UNL     1       0.709   8.921  21.153  0.00  0.00    +0.000 A 
ATOM     13  C   UNL     1       0.075   9.907  20.406  0.00  0.00    +0.000 A 
ATOM     14  C   UNL     1       0.382  10.045  19.059  0.00  0.00    +0.000 A 
ATOM     15  C   UNL     1       1.279   9.161  18.443  0.00  0.00    +0.000 A 
ENDBRANCH   2  10
BRANCH   1  17
ATOM     16  C   UNL     1       2.334   4.467  20.758  0.00  0.00    +0.000 C 
ATOM     17  C   UNL     1       1.877   5.042  19.429  0.00  0.00    +0.000 C 
ENDBRANCH   1  17
BRANCH   6  18
ATOM     18  O   UNL     1       6.729   4.585  14.842  0.00  0.00    +0.000 OA
ATOM     19  C   UNL     1       6.346   3.973  13.614  0.00  0.00    +0.000 C 
ENDBRANCH   6  18
TORSDOF 3
ENDMDL
MODEL 7
REMARK VINA RESULT:      -6.8      2.869      4.158
REMARK  Name = 
REMARK  5 active torsions:
REMARK  status: ('A' for Active; 'I' for Inactive)
REMARK    1  A    between atoms: C_1  and  C_2
REMARK    2  A    between atoms: C_2  and  N_3
REMARK    3  A    between atoms: C_4  and  C_5
REMARK    4  A    between atoms: C_14  and  O_15
REMARK    5  A    between atoms: O_15  and  C_16
REMARK                            x       y       z     vdW  Elec       q    Type
REMARK                         _______ _______ _______ _____ _____    ______ ____
ROOT
ATOM      1  N   UNL     1       2.897   5.610  18.291  0.00  0.00    +0.000 N 
ATOM      2  C   UNL     1       2.950   7.016  18.274  0.00  0.00    +0.000 A 
ATOM      3  C   UNL     1       3.954   7.346  17.373  0.00  0.00    +0.000 A 
ATOM      4  C   UNL     1       4.522   6.164  16.840  0.00  0.00    +0.000 A 
ATOM      5  C   UNL     1       5.546   5.927  15.894  0.00  0.00    +0.000 A 
ATOM      6  C   UNL     1       5.913   4.618  15.559  0.00  0.00    +0.000 A 
ATOM      7  C   UNL     1       5.254   3.555  16.158  0.00  0.00    +0.000 A 
ATOM      8  C   UNL     1       4.231   3.771  17.087  0.00  0.00    +0.000 A 
ATOM      9  C   UNL     1       3.859   5.086  17.429  0.00  0.00    +0.000 A 
ENDROOT
BRANCH   2  10
ATOM     10  C   UNL     1       2.057   7.956  19.000  0.00  0.00    +0.000 A 
ATOM     11  C   UNL     1       1.390   9.021  18.382  0.00  0.00    +0.000 A 
ATOM     12  C   UNL     1       0.635   9.945  19.114  0.00  0.00    +0.000 A 
ATOM     13  C   UNL     1       0.471   9.777  20.484  0.00  0.00    +0.000 A 
ATOM     14  C   UNL     1       1.050   8.681  21.111  0.00  0.00    +0.000 A 
ATOM     15  C   UNL     1       1.841   7.784  20.380  0.00  0.00    +0.000 A 
ENDBRANCH   2  10
BRANCH   1  17
ATOM     16  C   UNL     1       2.350   4.163  20.379  0.00  0.00    +0.000 C 
ATOM     17  C   UNL     1       1.940   4.862  19.095  0.00  0.00    +0.000 C 
ENDBRANCH   1  17
BRANCH   6  18
ATOM     18  O   UNL     1       6.920   4.507  14.638  0.00  0.00    +0.000 OA
ATOM     19  C   UNL     1       6.555   3.994  13.360  0.00  0.00    +0.000 C 
ENDBRANCH   6  18
TORSDOF 3
ENDMDL
MODEL 8
REMARK VINA RESULT:      -6.8      4.582      7.327
REMARK  Name = 
REMARK  5 active torsions:
REMARK  status: ('A' for Active; 'I' for Inactive)
REMARK    1  A    between atoms: C_1  and  C_2
REMARK    2  A    between atoms: C_2  and  N_3
REMARK    3  A    between atoms: C_4  and  C_5
REMARK    4  A    between atoms: C_14  and  O_15
REMARK    5  A    between atoms: O_15  and  C_16
REMARK                            x       y       z     vdW  Elec       q    Type
REMARK                         _______ _______ _______ _____ _____    ______ ____
ROOT
ATOM      1  N   UNL     1       2.513   6.744  19.495  0.00  0.00    +0.000 N 
ATOM      2  C   UNL     1       2.964   6.925  18.174  0.00  0.00    +0.000 A 
ATOM      3  C   UNL     1       2.511   8.180  17.789  0.00  0.00    +0.000 A 
ATOM      4  C   UNL     1       1.783   8.769  18.850  0.00  0.00    +0.000 A 
ATOM      5  C   UNL     1       1.130  10.014  18.998  0.00  0.00    +0.000 A 
ATOM      6  C   UNL     1       0.465  10.331  20.189  0.00  0.00    +0.000 A 
ATOM      7  C   UNL     1       0.465   9.413  21.228  0.00  0.00    +0.000 A 
ATOM      8  C   UNL     1       1.116   8.181  21.104  0.00  0.00    +0.000 A 
ATOM      9  C   UNL     1       1.784   7.857  19.907  0.00  0.00    +0.000 A 
ENDROOT
BRANCH   2  10
ATOM     10  C   UNL     1       3.825   6.005  17.386  0.00  0.00    +0.000 A 
ATOM     11  C   UNL     1       3.648   4.616  17.359  0.00  0.00    +0.000 A 
ATOM     12  C   UNL     1       4.538   3.771  16.685  0.00  0.00    +0.000 A 
ATOM     13  C   UNL     1       5.592   4.312  15.957  0.00  0.00    +0.000 A 
ATOM     14  C   UNL     1       5.742   5.692  15.896  0.00  0.00    +0.000 A 
ATOM     15  C   UNL     1       4.873   6.530  16.608  0.00  0.00    +0.000 A 
ENDBRANCH   2  10
BRANCH   1  17
ATOM     16  C   UNL     1       1.736   4.544  20.641  0.00  0.00    +0.000 C 
ATOM     17  C   UNL     1       2.813   5.553  20.279  0.00  0.00    +0.000 C 
ENDBRANCH   1  17
BRANCH   6  18
ATOM     18  O   UNL     1      -0.138  11.560  20.218  0.00  0.00    +0.000 OA
ATOM     19  C   UNL     1      -0.566  12.085  18.965  0.00  0.00    +0.000 C 
ENDBRANCH   6  18
TORSDOF 3
ENDMDL
MODEL 9
REMARK VINA RESULT:      -6.8      2.487      6.449
REMARK  Name = 
REMARK  5 active torsions:
REMARK  status: ('A' for Active; 'I' for Inactive)
REMARK    1  A    between atoms: C_1  and  C_2
REMARK    2  A    between atoms: C_2  and  N_3
REMARK    3  A    between atoms: C_4  and  C_5
REMARK    4  A    between atoms: C_14  and  O_15
REMARK    5  A    between atoms: O_15  and  C_16
REMARK                            x       y       z     vdW  Elec       q    Type
REMARK                         _______ _______ _______ _____ _____    ______ ____
ROOT
ATOM      1  N   UNL     1       5.123   5.379  16.927  0.00  0.00    +0.000 N 
ATOM      2  C   UNL     1       5.032   4.382  15.937  0.00  0.00    +0.000 A 
ATOM      3  C   UNL     1       4.072   3.487  16.390  0.00  0.00    +0.000 A 
ATOM      4  C   UNL     1       3.578   3.913  17.645  0.00  0.00    +0.000 A 
ATOM      5  C   UNL     1       2.602   3.392  18.525  0.00  0.00    +0.000 A 
ATOM      6  C   UNL     1       2.319   4.039  19.734  0.00  0.00    +0.000 A 
ATOM      7  C   UNL     1       3.000   5.203  20.055  0.00  0.00    +0.000 A 
ATOM      8  C   UNL     1       3.960   5.740  19.191  0.00  0.00    +0.000 A 
ATOM      9  C   UNL     1       4.250   5.092  17.974  0.00  0.00    +0.000 A 
ENDROOT
BRANCH   2  10
ATOM     10  C   UNL     1       5.747   4.344  14.635  0.00  0.00    +0.000 A 
ATOM     11  C   UNL     1       5.252   3.686  13.501  0.00  0.00    +0.000 A 
ATOM     12  C   UNL     1       5.998   3.587  12.321  0.00  0.00    +0.000 A 
ATOM     13  C   UNL     1       7.235   4.214  12.226  0.00  0.00    +0.000 A 
ATOM     14  C   UNL     1       7.713   4.946  13.305  0.00  0.00    +0.000 A 
ATOM     15  C   UNL     1       6.981   5.006  14.500  0.00  0.00    +0.000 A 
ENDBRANCH   2  10
BRANCH   1  17
ATOM     16  C   UNL     1       7.247   6.676  17.675  0.00  0.00    +0.000 C 
ATOM     17  C   UNL     1       6.006   6.532  16.812  0.00  0.00    +0.000 C 
ENDBRANCH   1  17
BRANCH   6  18
ATOM     18  O   UNL     1       1.362   3.443  20.511  0.00  0.00    +0.000 OA
ATOM     19  C   UNL     1       1.816   2.815  21.706  0.00  0.00    +0.000 C 
ENDBRANCH   6  18
TORSDOF 3
ENDMDL
