MODEL 1
REMARK VINA RESULT:      -8.9      0.000      0.000
REMARK  Name = 
REMARK  16 active torsions:
REMARK  status: ('A' for Active; 'I' for Inactive)
REMARK    1  A    between atoms: C_1  and  C_2
REMARK    2  A    between atoms: C_2  and  C_3
REMARK    3  A    between atoms: C_2  and  C_4
REMARK    4  A    between atoms: C_7  and  O_8
REMARK    5  A    between atoms: O_8  and  C_9
REMARK    6  A    between atoms: C_9  and  C_10
REMARK    7  A    between atoms: C_9  and  C_11
REMARK    8  A    between atoms: C_9  and  C_12
REMARK    9  A    between atoms: N_14  and  C_15
REMARK   10  A    between atoms: C_15  and  C_16
REMARK   11  A    between atoms: C_15  and  C_23
REMARK   12  A    between atoms: C_16  and  C_17
REMARK   13  A    between atoms: N_25  and  C_26
REMARK   14  A    between atoms: C_26  and  C_27
REMARK   15  A    between atoms: C_27  and  C_28
REMARK   16  A    between atoms: C_28  and  N_29
REMARK                            x       y       z     vdW  Elec       q    Type
REMARK                         _______ _______ _______ _____ _____    ______ ____
ROOT
ATOM      1  C   UNL     1       5.861   4.807  16.949  0.00  0.00    +0.000 C 
ENDROOT
BRANCH   1   4
ATOM      2  C   UNL     1       3.917   3.923  18.303  0.00  0.00    +0.000 C 
ATOM      3  O   UNL     1       3.928   2.823  17.755  0.00  0.00    +0.000 OA
ATOM      4  N   UNL     1       4.825   4.907  17.986  0.00  0.00    +0.000 N 
ATOM      5  H   UNL     1       4.898   5.692  18.633  0.00  0.00    +0.000 HD
BRANCH   2   6
ATOM      6  C   UNL     1       2.773   4.389  19.261  0.00  0.00    +0.000 C 
ATOM      7  C   UNL     1       2.649   3.351  20.377  0.00  0.00    +0.000 C 
ATOM      8  C   UNL     1       1.527   4.451  18.354  0.00  0.00    +0.000 C 
BRANCH   6   9
ATOM      9  O   UNL     1       3.203   5.669  19.771  0.00  0.00    +0.000 OA
BRANCH   9  13
ATOM     10  C   UNL     1       1.108   9.291  19.507  0.00  0.00    +0.000 A 
ATOM     11  C   UNL     1       1.050   8.475  20.645  0.00  0.00    +0.000 A 
ATOM     12  C   UNL     1       1.745   7.254  20.685  0.00  0.00    +0.000 A 
ATOM     13  C   UNL     1       2.484   6.814  19.586  0.00  0.00    +0.000 A 
ATOM     14  C   UNL     1       2.494   7.602  18.443  0.00  0.00    +0.000 A 
ATOM     15  C   UNL     1       1.831   8.828  18.407  0.00  0.00    +0.000 A 
BRANCH  10  17
ATOM     16  C   UNL     1       1.424  11.622  18.721  0.00  0.00    +0.000 C 
ATOM     17  C   UNL     1       0.504  10.685  19.511  0.00  0.00    +0.000 C 
ATOM     18  C   UNL     1      -0.919  10.750  18.938  0.00  0.00    +0.000 C 
ENDBRANCH  10  17
ENDBRANCH   9  13
ENDBRANCH   6   9
ENDBRANCH   2   6
ENDBRANCH   1   4
BRANCH   1  19
ATOM     19  C   UNL     1       7.148   5.437  17.549  0.00  0.00    +0.000 C 
ATOM     20  O   UNL     1       8.120   4.747  17.866  0.00  0.00    +0.000 OA
ATOM     21  N   UNL     1       7.166   6.820  17.662  0.00  0.00    +0.000 N 
ATOM     22  H   UNL     1       6.271   7.291  17.655  0.00  0.00    +0.000 HD
BRANCH  21  23
ATOM     23  C   UNL     1       8.223   7.521  18.364  0.00  0.00    +0.000 C 
BRANCH  23  24
ATOM     24  C   UNL     1       8.199   8.995  17.967  0.00  0.00    +0.000 C 
BRANCH  24  25
ATOM     25  C   UNL     1       9.027   9.883  18.900  0.00  0.00    +0.000 C 
BRANCH  25  26
ATOM     26  N   UNL     1       9.780  10.926  18.178  0.00  0.00    +0.000 NA
ATOM     27  C   UNL     1      11.043  11.258  18.878  0.00  0.00    +0.000 C 
ATOM     28  C   UNL     1      10.838  12.109  20.144  0.00  0.00    +0.000 C 
ATOM     29  O   UNL     1      10.146  13.327  19.844  0.00  0.00    +0.000 OA
ATOM     30  C   UNL     1       8.887  13.065  19.214  0.00  0.00    +0.000 C 
ATOM     31  C   UNL     1       9.047  12.192  17.957  0.00  0.00    +0.000 C 
ENDBRANCH  25  26
ENDBRANCH  24  25
ENDBRANCH  23  24
ENDBRANCH  21  23
ENDBRANCH   1  19
BRANCH   1  32
ATOM     32  C   UNL     1       5.436   5.447  15.602  0.00  0.00    +0.000 C 
BRANCH  32  33
ATOM     33  C   UNL     1       6.042   4.832  14.353  0.00  0.00    +0.000 A 
ATOM     34  C   UNL     1       7.265   5.304  13.860  0.00  0.00    +0.000 A 
ATOM     35  C   UNL     1       7.775   4.817  12.654  0.00  0.00    +0.000 A 
ATOM     36  C   UNL     1       7.088   3.834  11.943  0.00  0.00    +0.000 A 
ATOM     37  C   UNL     1       5.907   3.316  12.450  0.00  0.00    +0.000 A 
ATOM     38  C   UNL     1       5.397   3.808  13.645  0.00  0.00    +0.000 A 
ENDBRANCH  32  33
ENDBRANCH   1  32
TORSDOF 12
ENDMDL
MODEL 2
REMARK VINA RESULT:      -7.9      3.185      8.168
REMARK  Name = 
REMARK  16 active torsions:
REMARK  status: ('A' for Active; 'I' for Inactive)
REMARK    1  A    between atoms: C_1  and  C_2
REMARK    2  A    between atoms: C_2  and  C_3
REMARK    3  A    between atoms: C_2  and  C_4
REMARK    4  A    between atoms: C_7  and  O_8
REMARK    5  A    between atoms: O_8  and  C_9
REMARK    6  A    between atoms: C_9  and  C_10
REMARK    7  A    between atoms: C_9  and  C_11
REMARK    8  A    between atoms: C_9  and  C_12
REMARK    9  A    between atoms: N_14  and  C_15
REMARK   10  A    between atoms: C_15  and  C_16
REMARK   11  A    between atoms: C_15  and  C_23
REMARK   12  A    between atoms: C_16  and  C_17
REMARK   13  A    between atoms: N_25  and  C_26
REMARK   14  A    between atoms: C_26  and  C_27
REMARK   15  A    between atoms: C_27  and  C_28
REMARK   16  A    between atoms: C_28  and  N_29
REMARK                            x       y       z     vdW  Elec       q    Type
REMARK                         _______ _______ _______ _____ _____    ______ ____
ROOT
ATOM      1  C   UNL     1       3.179   5.709  17.511  0.00  0.00    +0.000 C 
ENDROOT
BRANCH   1   4
ATOM      2  C   UNL     1       5.528   6.321  16.803  0.00  0.00    +0.000 C 
ATOM      3  O   UNL     1       5.154   7.190  16.019  0.00  0.00    +0.000 OA
ATOM      4  N   UNL     1       4.643   5.593  17.565  0.00  0.00    +0.000 N 
ATOM      5  H   UNL     1       5.033   5.064  18.345  0.00  0.00    +0.000 HD
BRANCH   2   6
ATOM      6  C   UNL     1       7.006   5.816  16.878  0.00  0.00    +0.000 C 
ATOM      7  C   UNL     1       6.973   4.344  17.295  0.00  0.00    +0.000 C 
ATOM      8  C   UNL     1       7.660   6.727  17.935  0.00  0.00    +0.000 C 
BRANCH   6   9
ATOM      9  O   UNL     1       7.531   5.978  15.543  0.00  0.00    +0.000 OA
BRANCH   9  13
ATOM     10  C   UNL     1       6.139   3.554  12.419  0.00  0.00    +0.000 A 
ATOM     11  C   UNL     1       5.535   3.564  13.683  0.00  0.00    +0.000 A 
ATOM     12  C   UNL     1       6.048   4.371  14.714  0.00  0.00    +0.000 A 
ATOM     13  C   UNL     1       7.183   5.156  14.511  0.00  0.00    +0.000 A 
ATOM     14  C   UNL     1       7.808   5.100  13.273  0.00  0.00    +0.000 A 
ATOM     15  C   UNL     1       7.288   4.325  12.237  0.00  0.00    +0.000 A 
BRANCH  10  17
ATOM     16  C   UNL     1       5.881   1.339  11.334  0.00  0.00    +0.000 C 
ATOM     17  C   UNL     1       5.500   2.821  11.251  0.00  0.00    +0.000 C 
ATOM     18  C   UNL     1       3.973   2.962  11.187  0.00  0.00    +0.000 C 
ENDBRANCH  10  17
ENDBRANCH   9  13
ENDBRANCH   6   9
ENDBRANCH   2   6
ENDBRANCH   1   4
BRANCH   1  19
ATOM     19  C   UNL     1       2.772   6.679  18.655  0.00  0.00    +0.000 C 
ATOM     20  O   UNL     1       3.029   6.432  19.836  0.00  0.00    +0.000 OA
ATOM     21  N   UNL     1       2.151   7.860  18.274  0.00  0.00    +0.000 N 
ATOM     22  H   UNL     1       1.727   7.879  17.357  0.00  0.00    +0.000 HD
BRANCH  21  23
ATOM     23  C   UNL     1       1.562   8.767  19.240  0.00  0.00    +0.000 C 
BRANCH  23  24
ATOM     24  C   UNL     1       0.806   9.868  18.502  0.00  0.00    +0.000 C 
BRANCH  24  25
ATOM     25  C   UNL     1       1.396  11.262  18.732  0.00  0.00    +0.000 C 
BRANCH  25  26
ATOM     26  N   UNL     1       0.368  12.276  19.034  0.00  0.00    +0.000 NA
ATOM     27  C   UNL     1       0.984  13.563  19.434  0.00  0.00    +0.000 C 
ATOM     28  C   UNL     1       1.566  13.549  20.859  0.00  0.00    +0.000 C 
ATOM     29  O   UNL     1       0.566  13.200  21.824  0.00  0.00    +0.000 OA
ATOM     30  C   UNL     1      -0.028  11.933  21.519  0.00  0.00    +0.000 C 
ATOM     31  C   UNL     1      -0.597  11.898  20.090  0.00  0.00    +0.000 C 
ENDBRANCH  25  26
ENDBRANCH  24  25
ENDBRANCH  23  24
ENDBRANCH  21  23
ENDBRANCH   1  19
BRANCH   1  32
ATOM     32  C   UNL     1       2.459   4.339  17.585  0.00  0.00    +0.000 C 
BRANCH  32  33
ATOM     33  C   UNL     1       2.401   3.691  18.957  0.00  0.00    +0.000 A 
ATOM     34  C   UNL     1       1.209   3.709  19.692  0.00  0.00    +0.000 A 
ATOM     35  C   UNL     1       1.177   3.210  20.997  0.00  0.00    +0.000 A 
ATOM     36  C   UNL     1       2.323   2.661  21.570  0.00  0.00    +0.000 A 
ATOM     37  C   UNL     1       3.492   2.582  20.831  0.00  0.00    +0.000 A 
ATOM     38  C   UNL     1       3.524   3.087  19.538  0.00  0.00    +0.000 A 
ENDBRANCH  32  33
ENDBRANCH   1  32
TORSDOF 12
ENDMDL
MODEL 3
REMARK VINA RESULT:      -7.9      0.813      1.433
REMARK  Name = 
REMARK  16 active torsions:
REMARK  status: ('A' for Active; 'I' for Inactive)
REMARK    1  A    between atoms: C_1  and  C_2
REMARK    2  A    between atoms: C_2  and  C_3
REMARK    3  A    between atoms: C_2  and  C_4
REMARK    4  A    between atoms: C_7  and  O_8
REMARK    5  A    between atoms: O_8  and  C_9
REMARK    6  A    between atoms: C_9  and  C_10
REMARK    7  A    between atoms: C_9  and  C_11
REMARK    8  A    between atoms: C_9  and  C_12
REMARK    9  A    between atoms: N_14  and  C_15
REMARK   10  A    between atoms: C_15  and  C_16
REMARK   11  A    between atoms: C_15  and  C_23
REMARK   12  A    between atoms: C_16  and  C_17
REMARK   13  A    between atoms: N_25  and  C_26
REMARK   14  A    between atoms: C_26  and  C_27
REMARK   15  A    between atoms: C_27  and  C_28
REMARK   16  A    between atoms: C_28  and  N_29
REMARK                            x       y       z     vdW  Elec       q    Type
REMARK                         _______ _______ _______ _____ _____    ______ ____
ROOT
ATOM      1  C   UNL     1       5.917   5.049  16.427  0.00  0.00    +0.000 C 
ENDROOT
BRANCH   1   4
ATOM      2  C   UNL     1       4.076   4.091  17.870  0.00  0.00    +0.000 C 
ATOM      3  O   UNL     1       3.962   3.073  17.192  0.00  0.00    +0.000 OA
ATOM      4  N   UNL     1       5.004   5.064  17.578  0.00  0.00    +0.000 N 
ATOM      5  H   UNL     1       5.193   5.753  18.305  0.00  0.00    +0.000 HD
BRANCH   2   6
ATOM      6  C   UNL     1       3.069   4.483  19.000  0.00  0.00    +0.000 C 
ATOM      7  C   UNL     1       3.231   3.474  20.138  0.00  0.00    +0.000 C 
ATOM      8  C   UNL     1       1.689   4.404  18.316  0.00  0.00    +0.000 C 
BRANCH   6   9
ATOM      9  O   UNL     1       3.456   5.812  19.410  0.00  0.00    +0.000 OA
BRANCH   9  13
ATOM     10  C   UNL     1       1.107   9.276  19.171  0.00  0.00    +0.000 A 
ATOM     11  C   UNL     1       1.188   8.506  20.339  0.00  0.00    +0.000 A 
ATOM     12  C   UNL     1       1.965   7.335  20.372  0.00  0.00    +0.000 A 
ATOM     13  C   UNL     1       2.650   6.898  19.237  0.00  0.00    +0.000 A 
ATOM     14  C   UNL     1       2.522   7.637  18.069  0.00  0.00    +0.000 A 
ATOM     15  C   UNL     1       1.776   8.814  18.037  0.00  0.00    +0.000 A 
BRANCH  10  17
ATOM     16  C   UNL     1      -0.839  10.534  18.289  0.00  0.00    +0.000 C 
ATOM     17  C   UNL     1       0.411  10.626  19.170  0.00  0.00    +0.000 C 
ATOM     18  C   UNL     1       0.026  11.131  20.567  0.00  0.00    +0.000 C 
ENDBRANCH  10  17
ENDBRANCH   9  13
ENDBRANCH   6   9
ENDBRANCH   2   6
ENDBRANCH   1   4
BRANCH   1  19
ATOM     19  C   UNL     1       7.069   6.037  16.766  0.00  0.00    +0.000 C 
ATOM     20  O   UNL     1       7.933   6.333  15.938  0.00  0.00    +0.000 OA
ATOM     21  N   UNL     1       7.044   6.605  18.032  0.00  0.00    +0.000 N 
ATOM     22  H   UNL     1       6.500   6.128  18.738  0.00  0.00    +0.000 HD
BRANCH  21  23
ATOM     23  C   UNL     1       8.146   7.399  18.540  0.00  0.00    +0.000 C 
BRANCH  23  24
ATOM     24  C   UNL     1       8.026   8.825  18.009  0.00  0.00    +0.000 C 
BRANCH  24  25
ATOM     25  C   UNL     1       9.209   9.715  18.400  0.00  0.00    +0.000 C 
BRANCH  25  26
ATOM     26  N   UNL     1       8.789  10.999  18.992  0.00  0.00    +0.000 NA
ATOM     27  C   UNL     1       8.985  12.118  18.041  0.00  0.00    +0.000 C 
ATOM     28  C   UNL     1      10.458  12.534  17.878  0.00  0.00    +0.000 C 
ATOM     29  O   UNL     1      11.037  12.896  19.138  0.00  0.00    +0.000 OA
ATOM     30  C   UNL     1      10.926  11.827  20.084  0.00  0.00    +0.000 C 
ATOM     31  C   UNL     1       9.469  11.363  20.254  0.00  0.00    +0.000 C 
ENDBRANCH  25  26
ENDBRANCH  24  25
ENDBRANCH  23  24
ENDBRANCH  21  23
ENDBRANCH   1  19
BRANCH   1  32
ATOM     32  C   UNL     1       5.209   5.372  15.087  0.00  0.00    +0.000 C 
BRANCH  32  33
ATOM     33  C   UNL     1       5.740   4.646  13.863  0.00  0.00    +0.000 A 
ATOM     34  C   UNL     1       4.965   3.658  13.242  0.00  0.00    +0.000 A 
ATOM     35  C   UNL     1       5.489   2.912  12.183  0.00  0.00    +0.000 A 
ATOM     36  C   UNL     1       6.777   3.165  11.711  0.00  0.00    +0.000 A 
ATOM     37  C   UNL     1       7.530   4.181  12.277  0.00  0.00    +0.000 A 
ATOM     38  C   UNL     1       7.011   4.914  13.336  0.00  0.00    +0.000 A 
ENDBRANCH  32  33
ENDBRANCH   1  32
TORSDOF 12
ENDMDL
MODEL 4
REMARK VINA RESULT:      -7.8      3.049      8.979
REMARK  Name = 
REMARK  16 active torsions:
REMARK  status: ('A' for Active; 'I' for Inactive)
REMARK    1  A    between atoms: C_1  and  C_2
REMARK    2  A    between atoms: C_2  and  C_3
REMARK    3  A    between atoms: C_2  and  C_4
REMARK    4  A    between atoms: C_7  and  O_8
REMARK    5  A    between atoms: O_8  and  C_9
REMARK    6  A    between atoms: C_9  and  C_10
REMARK    7  A    between atoms: C_9  and  C_11
REMARK    8  A    between atoms: C_9  and  C_12
REMARK    9  A    between atoms: N_14  and  C_15
REMARK   10  A    between atoms: C_15  and  C_16
REMARK   11  A    between atoms: C_15  and  C_23
REMARK   12  A    between atoms: C_16  and  C_17
REMARK   13  A    between atoms: N_25  and  C_26
REMARK   14  A    between atoms: C_26  and  C_27
REMARK   15  A    between atoms: C_27  and  C_28
REMARK   16  A    between atoms: C_28  and  N_29
REMARK                            x       y       z     vdW  Elec       q    Type
REMARK                         _______ _______ _______ _____ _____    ______ ____
ROOT
ATOM      1  C   UNL     1       3.468   6.646  18.189  0.00  0.00    +0.000 C 
ENDROOT
BRANCH   1   4
ATOM      2  C   UNL     1       5.817   5.714  18.153  0.00  0.00    +0.000 C 
ATOM      3  O   UNL     1       5.693   5.136  19.230  0.00  0.00    +0.000 OA
ATOM      4  N   UNL     1       4.790   6.432  17.586  0.00  0.00    +0.000 N 
ATOM      5  H   UNL     1       4.891   6.683  16.602  0.00  0.00    +0.000 HD
BRANCH   2   6
ATOM      6  C   UNL     1       7.188   5.863  17.416  0.00  0.00    +0.000 C 
ATOM      7  C   UNL     1       7.853   4.486  17.388  0.00  0.00    +0.000 C 
ATOM      8  C   UNL     1       7.962   6.889  18.267  0.00  0.00    +0.000 C 
BRANCH   6   9
ATOM      9  O   UNL     1       6.857   6.319  16.087  0.00  0.00    +0.000 OA
BRANCH   9  13
ATOM     10  C   UNL     1       6.101   3.810  12.814  0.00  0.00    +0.000 A 
ATOM     11  C   UNL     1       5.241   3.878  13.919  0.00  0.00    +0.000 A 
ATOM     12  C   UNL     1       5.543   4.711  15.010  0.00  0.00    +0.000 A 
ATOM     13  C   UNL     1       6.716   5.467  15.031  0.00  0.00    +0.000 A 
ATOM     14  C   UNL     1       7.589   5.354  13.958  0.00  0.00    +0.000 A 
ATOM     15  C   UNL     1       7.282   4.551  12.860  0.00  0.00    +0.000 A 
BRANCH  10  17
ATOM     16  C   UNL     1       6.198   1.602  11.690  0.00  0.00    +0.000 C 
ATOM     17  C   UNL     1       5.707   3.048  11.561  0.00  0.00    +0.000 C 
ATOM     18  C   UNL     1       4.200   3.061  11.271  0.00  0.00    +0.000 C 
ENDBRANCH  10  17
ENDBRANCH   9  13
ENDBRANCH   6   9
ENDBRANCH   2   6
ENDBRANCH   1   4
BRANCH   1  19
ATOM     19  C   UNL     1       2.572   5.465  17.720  0.00  0.00    +0.000 C 
ATOM     20  O   UNL     1       1.344   5.565  17.667  0.00  0.00    +0.000 OA
ATOM     21  N   UNL     1       3.230   4.312  17.316  0.00  0.00    +0.000 N 
ATOM     22  H   UNL     1       4.181   4.191  17.638  0.00  0.00    +0.000 HD
BRANCH  21  23
ATOM     23  C   UNL     1       2.520   3.082  17.027  0.00  0.00    +0.000 C 
BRANCH  23  24
ATOM     24  C   UNL     1       3.025   1.979  17.953  0.00  0.00    +0.000 C 
BRANCH  24  25
ATOM     25  C   UNL     1       3.644   2.516  19.246  0.00  0.00    +0.000 C 
BRANCH  25  26
ATOM     26  N   UNL     1       2.825   2.224  20.437  0.00  0.00    +0.000 NA
ATOM     27  C   UNL     1       1.402   2.025  20.075  0.00  0.00    +0.000 C 
ATOM     28  C   UNL     1       0.666   3.333  19.737  0.00  0.00    +0.000 C 
ATOM     29  O   UNL     1       0.736   4.264  20.824  0.00  0.00    +0.000 OA
ATOM     30  C   UNL     1       2.095   4.538  21.183  0.00  0.00    +0.000 C 
ATOM     31  C   UNL     1       2.873   3.251  21.501  0.00  0.00    +0.000 C 
ENDBRANCH  25  26
ENDBRANCH  24  25
ENDBRANCH  23  24
ENDBRANCH  21  23
ENDBRANCH   1  19
BRANCH   1  32
ATOM     32  C   UNL     1       2.868   8.037  17.860  0.00  0.00    +0.000 C 
BRANCH  32  33
ATOM     33  C   UNL     1       1.830   8.562  18.836  0.00  0.00    +0.000 A 
ATOM     34  C   UNL     1       0.933   9.561  18.438  0.00  0.00    +0.000 A 
ATOM     35  C   UNL     1       0.048  10.124  19.360  0.00  0.00    +0.000 A 
ATOM     36  C   UNL     1       0.025   9.675  20.681  0.00  0.00    +0.000 A 
ATOM     37  C   UNL     1       0.865   8.645  21.072  0.00  0.00    +0.000 A 
ATOM     38  C   UNL     1       1.751   8.094  20.155  0.00  0.00    +0.000 A 
ENDBRANCH  32  33
ENDBRANCH   1  32
TORSDOF 12
ENDMDL
MODEL 5
REMARK VINA RESULT:      -7.7      3.138      8.700
REMARK  Name = 
REMARK  16 active torsions:
REMARK  status: ('A' for Active; 'I' for Inactive)
REMARK    1  A    between atoms: C_1  and  C_2
REMARK    2  A    between atoms: C_2  and  C_3
REMARK    3  A    between atoms: C_2  and  C_4
REMARK    4  A    between atoms: C_7  and  O_8
REMARK    5  A    between atoms: O_8  and  C_9
REMARK    6  A    between atoms: C_9  and  C_10
REMARK    7  A    between atoms: C_9  and  C_11
REMARK    8  A    between atoms: C_9  and  C_12
REMARK    9  A    between atoms: N_14  and  C_15
REMARK   10  A    between atoms: C_15  and  C_16
REMARK   11  A    between atoms: C_15  and  C_23
REMARK   12  A    between atoms: C_16  and  C_17
REMARK   13  A    between atoms: N_25  and  C_26
REMARK   14  A    between atoms: C_26  and  C_27
REMARK   15  A    between atoms: C_27  and  C_28
REMARK   16  A    between atoms: C_28  and  N_29
REMARK                            x       y       z     vdW  Elec       q    Type
REMARK                         _______ _______ _______ _____ _____    ______ ____
ROOT
ATOM      1  C   UNL     1       3.165   6.592  18.268  0.00  0.00    +0.000 C 
ENDROOT
BRANCH   1   4
ATOM      2  C   UNL     1       5.348   5.478  17.647  0.00  0.00    +0.000 C 
ATOM      3  O   UNL     1       4.989   4.370  18.037  0.00  0.00    +0.000 OA
ATOM      4  N   UNL     1       4.522   6.577  17.704  0.00  0.00    +0.000 N 
ATOM      5  H   UNL     1       4.802   7.392  17.159  0.00  0.00    +0.000 HD
BRANCH   2   6
ATOM      6  C   UNL     1       6.821   5.803  17.234  0.00  0.00    +0.000 C 
ATOM      7  C   UNL     1       7.641   4.521  17.390  0.00  0.00    +0.000 C 
ATOM      8  C   UNL     1       7.248   6.914  18.214  0.00  0.00    +0.000 C 
BRANCH   6   9
ATOM      9  O   UNL     1       6.745   6.220  15.854  0.00  0.00    +0.000 OA
BRANCH   9  13
ATOM     10  C   UNL     1       5.996   3.445  12.803  0.00  0.00    +0.000 A 
ATOM     11  C   UNL     1       7.199   4.159  12.885  0.00  0.00    +0.000 A 
ATOM     12  C   UNL     1       7.402   5.102  13.908  0.00  0.00    +0.000 A 
ATOM     13  C   UNL     1       6.404   5.368  14.846  0.00  0.00    +0.000 A 
ATOM     14  C   UNL     1       5.195   4.695  14.726  0.00  0.00    +0.000 A 
ATOM     15  C   UNL     1       4.997   3.738  13.732  0.00  0.00    +0.000 A 
BRANCH  10  17
ATOM     16  C   UNL     1       4.621   2.610  10.916  0.00  0.00    +0.000 C 
ATOM     17  C   UNL     1       5.828   2.307  11.810  0.00  0.00    +0.000 C 
ATOM     18  C   UNL     1       7.066   2.049  10.941  0.00  0.00    +0.000 C 
ENDBRANCH  10  17
ENDBRANCH   9  13
ENDBRANCH   6   9
ENDBRANCH   2   6
ENDBRANCH   1   4
BRANCH   1  19
ATOM     19  C   UNL     1       2.601   8.018  18.019  0.00  0.00    +0.000 C 
ATOM     20  O   UNL     1       2.836   8.636  16.978  0.00  0.00    +0.000 OA
ATOM     21  N   UNL     1       1.777   8.539  19.007  0.00  0.00    +0.000 N 
ATOM     22  H   UNL     1       1.847   8.125  19.927  0.00  0.00    +0.000 HD
BRANCH  21  23
ATOM     23  C   UNL     1       1.329   9.918  18.987  0.00  0.00    +0.000 C 
BRANCH  23  24
ATOM     24  C   UNL     1      -0.130   9.967  18.537  0.00  0.00    +0.000 C 
BRANCH  24  25
ATOM     25  C   UNL     1      -1.046  10.669  19.543  0.00  0.00    +0.000 C 
BRANCH  25  26
ATOM     26  N   UNL     1      -1.871  11.724  18.926  0.00  0.00    +0.000 NA
ATOM     27  C   UNL     1      -1.043  12.647  18.115  0.00  0.00    +0.000 C 
ATOM     28  C   UNL     1      -0.206  13.624  18.960  0.00  0.00    +0.000 C 
ATOM     29  O   UNL     1      -1.037  14.400  19.832  0.00  0.00    +0.000 OA
ATOM     30  C   UNL     1      -1.822  13.557  20.682  0.00  0.00    +0.000 C 
ATOM     31  C   UNL     1      -2.654  12.546  19.874  0.00  0.00    +0.000 C 
ENDBRANCH  25  26
ENDBRANCH  24  25
ENDBRANCH  23  24
ENDBRANCH  21  23
ENDBRANCH   1  19
BRANCH   1  32
ATOM     32  C   UNL     1       3.123   6.168  19.758  0.00  0.00    +0.000 C 
BRANCH  32  33
ATOM     33  C   UNL     1       2.426   4.852  20.056  0.00  0.00    +0.000 A 
ATOM     34  C   UNL     1       1.670   4.217  19.062  0.00  0.00    +0.000 A 
ATOM     35  C   UNL     1       0.941   3.064  19.360  0.00  0.00    +0.000 A 
ATOM     36  C   UNL     1       0.981   2.513  20.640  0.00  0.00    +0.000 A 
ATOM     37  C   UNL     1       1.773   3.098  21.615  0.00  0.00    +0.000 A 
ATOM     38  C   UNL     1       2.491   4.250  21.320  0.00  0.00    +0.000 A 
ENDBRANCH  32  33
ENDBRANCH   1  32
TORSDOF 12
ENDMDL
MODEL 6
REMARK VINA RESULT:      -7.6      1.041      1.382
REMARK  Name = 
REMARK  16 active torsions:
REMARK  status: ('A' for Active; 'I' for Inactive)
REMARK    1  A    between atoms: C_1  and  C_2
REMARK    2  A    between atoms: C_2  and  C_3
REMARK    3  A    between atoms: C_2  and  C_4
REMARK    4  A    between atoms: C_7  and  O_8
REMARK    5  A    between atoms: O_8  and  C_9
REMARK    6  A    between atoms: C_9  and  C_10
REMARK    7  A    between atoms: C_9  and  C_11
REMARK    8  A    between atoms: C_9  and  C_12
REMARK    9  A    between atoms: N_14  and  C_15
REMARK   10  A    between atoms: C_15  and  C_16
REMARK   11  A    between atoms: C_15  and  C_23
REMARK   12  A    between atoms: C_16  and  C_17
REMARK   13  A    between atoms: N_25  and  C_26
REMARK   14  A    between atoms: C_26  and  C_27
REMARK   15  A    between atoms: C_27  and  C_28
REMARK   16  A    between atoms: C_28  and  N_29
REMARK                            x       y       z     vdW  Elec       q    Type
REMARK                         _______ _______ _______ _____ _____    ______ ____
ROOT
ATOM      1  C   UNL     1       6.336   4.875  16.780  0.00  0.00    +0.000 C 
ENDROOT
BRANCH   1   4
ATOM      2  C   UNL     1       4.138   5.740  17.683  0.00  0.00    +0.000 C 
ATOM      3  O   UNL     1       4.250   6.834  17.137  0.00  0.00    +0.000 OA
ATOM      4  N   UNL     1       5.082   4.750  17.537  0.00  0.00    +0.000 N 
ATOM      5  H   UNL     1       4.812   3.809  17.824  0.00  0.00    +0.000 HD
BRANCH   2   6
ATOM      6  C   UNL     1       3.035   5.422  18.744  0.00  0.00    +0.000 C 
ATOM      7  C   UNL     1       3.356   4.057  19.355  0.00  0.00    +0.000 C 
ATOM      8  C   UNL     1       1.723   5.426  17.934  0.00  0.00    +0.000 C 
BRANCH   6   9
ATOM      9  O   UNL     1       3.134   6.478  19.723  0.00  0.00    +0.000 OA
BRANCH   9  13
ATOM     10  C   UNL     1       0.310   9.573  19.584  0.00  0.00    +0.000 A 
ATOM     11  C   UNL     1       1.228   9.352  18.549  0.00  0.00    +0.000 A 
ATOM     12  C   UNL     1       2.178   8.320  18.645  0.00  0.00    +0.000 A 
ATOM     13  C   UNL     1       2.247   7.513  19.781  0.00  0.00    +0.000 A 
ATOM     14  C   UNL     1       1.370   7.773  20.825  0.00  0.00    +0.000 A 
ATOM     15  C   UNL     1       0.406   8.775  20.725  0.00  0.00    +0.000 A 
BRANCH  10  17
ATOM     16  C   UNL     1      -0.230  11.966  19.220  0.00  0.00    +0.000 C 
ATOM     17  C   UNL     1      -0.827  10.569  19.424  0.00  0.00    +0.000 C 
ATOM     18  C   UNL     1      -1.786  10.240  18.271  0.00  0.00    +0.000 C 
ENDBRANCH  10  17
ENDBRANCH   9  13
ENDBRANCH   6   9
ENDBRANCH   2   6
ENDBRANCH   1   4
BRANCH   1  19
ATOM     19  C   UNL     1       7.360   5.554  17.733  0.00  0.00    +0.000 C 
ATOM     20  O   UNL     1       8.025   4.900  18.540  0.00  0.00    +0.000 OA
ATOM     21  N   UNL     1       7.522   6.924  17.592  0.00  0.00    +0.000 N 
ATOM     22  H   UNL     1       6.776   7.429  17.133  0.00  0.00    +0.000 HD
BRANCH  21  23
ATOM     23  C   UNL     1       8.306   7.706  18.528  0.00  0.00    +0.000 C 
BRANCH  23  24
ATOM     24  C   UNL     1       8.327   9.164  18.073  0.00  0.00    +0.000 C 
BRANCH  24  25
ATOM     25  C   UNL     1       9.227  10.051  18.937  0.00  0.00    +0.000 C 
BRANCH  25  26
ATOM     26  N   UNL     1       9.547  11.339  18.295  0.00  0.00    +0.000 NA
ATOM     27  C   UNL     1      11.011  11.520  18.153  0.00  0.00    +0.000 C 
ATOM     28  C   UNL     1      11.718  11.864  19.477  0.00  0.00    +0.000 C 
ATOM     29  O   UNL     1      11.165  13.046  20.068  0.00  0.00    +0.000 OA
ATOM     30  C   UNL     1       9.756  12.907  20.281  0.00  0.00    +0.000 C 
ATOM     31  C   UNL     1       9.016  12.535  18.984  0.00  0.00    +0.000 C 
ENDBRANCH  25  26
ENDBRANCH  24  25
ENDBRANCH  23  24
ENDBRANCH  21  23
ENDBRANCH   1  19
BRANCH   1  32
ATOM     32  C   UNL     1       6.160   5.626  15.436  0.00  0.00    +0.000 C 
BRANCH  32  33
ATOM     33  C   UNL     1       6.310   4.785  14.180  0.00  0.00    +0.000 A 
ATOM     34  C   UNL     1       7.423   4.957  13.348  0.00  0.00    +0.000 A 
ATOM     35  C   UNL     1       7.514   4.265  12.138  0.00  0.00    +0.000 A 
ATOM     36  C   UNL     1       6.512   3.371  11.759  0.00  0.00    +0.000 A 
ATOM     37  C   UNL     1       5.435   3.148  12.602  0.00  0.00    +0.000 A 
ATOM     38  C   UNL     1       5.343   3.844  13.801  0.00  0.00    +0.000 A 
ENDBRANCH  32  33
ENDBRANCH   1  32
TORSDOF 12
ENDMDL
MODEL 7
REMARK VINA RESULT:      -7.6      3.162      8.302
REMARK  Name = 
REMARK  16 active torsions:
REMARK  status: ('A' for Active; 'I' for Inactive)
REMARK    1  A    between atoms: C_1  and  C_2
REMARK    2  A    between atoms: C_2  and  C_3
REMARK    3  A    between atoms: C_2  and  C_4
REMARK    4  A    between atoms: C_7  and  O_8
REMARK    5  A    between atoms: O_8  and  C_9
REMARK    6  A    between atoms: C_9  and  C_10
REMARK    7  A    between atoms: C_9  and  C_11
REMARK    8  A    between atoms: C_9  and  C_12
REMARK    9  A    between atoms: N_14  and  C_15
REMARK   10  A    between atoms: C_15  and  C_16
REMARK   11  A    between atoms: C_15  and  C_23
REMARK   12  A    between atoms: C_16  and  C_17
REMARK   13  A    between atoms: N_25  and  C_26
REMARK   14  A    between atoms: C_26  and  C_27
REMARK   15  A    between atoms: C_27  and  C_28
REMARK   16  A    between atoms: C_28  and  N_29
REMARK                            x       y       z     vdW  Elec       q    Type
REMARK                         _______ _______ _______ _____ _____    ______ ____
ROOT
ATOM      1  C   UNL     1       3.178   5.869  17.474  0.00  0.00    +0.000 C 
ENDROOT
BRANCH   1   4
ATOM      2  C   UNL     1       5.616   6.355  17.008  0.00  0.00    +0.000 C 
ATOM      3  O   UNL     1       5.370   7.299  16.262  0.00  0.00    +0.000 OA
ATOM      4  N   UNL     1       4.621   5.643  17.639  0.00  0.00    +0.000 N 
ATOM      5  H   UNL     1       4.905   5.036  18.408  0.00  0.00    +0.000 HD
BRANCH   2   6
ATOM      6  C   UNL     1       7.044   5.739  17.167  0.00  0.00    +0.000 C 
ATOM      7  C   UNL     1       6.881   4.326  17.729  0.00  0.00    +0.000 C 
ATOM      8  C   UNL     1       7.758   6.697  18.142  0.00  0.00    +0.000 C 
BRANCH   6   9
ATOM      9  O   UNL     1       7.600   5.720  15.835  0.00  0.00    +0.000 OA
BRANCH   9  13
ATOM     10  C   UNL     1       5.959   3.751  12.517  0.00  0.00    +0.000 A 
ATOM     11  C   UNL     1       7.128   4.519  12.429  0.00  0.00    +0.000 A 
ATOM     12  C   UNL     1       7.632   5.187  13.558  0.00  0.00    +0.000 A 
ATOM     13  C   UNL     1       6.968   5.124  14.783  0.00  0.00    +0.000 A 
ATOM     14  C   UNL     1       5.782   4.405  14.851  0.00  0.00    +0.000 A 
ATOM     15  C   UNL     1       5.292   3.717  13.742  0.00  0.00    +0.000 A 
BRANCH  10  17
ATOM     16  C   UNL     1       6.028   1.467  11.554  0.00  0.00    +0.000 C 
ATOM     17  C   UNL     1       5.497   2.891  11.353  0.00  0.00    +0.000 C 
ATOM     18  C   UNL     1       3.974   2.856  11.169  0.00  0.00    +0.000 C 
ENDBRANCH  10  17
ENDBRANCH   9  13
ENDBRANCH   6   9
ENDBRANCH   2   6
ENDBRANCH   1   4
BRANCH   1  19
ATOM     19  C   UNL     1       2.793   7.003  18.465  0.00  0.00    +0.000 C 
ATOM     20  O   UNL     1       3.108   6.957  19.656  0.00  0.00    +0.000 OA
ATOM     21  N   UNL     1       2.123   8.093  17.927  0.00  0.00    +0.000 N 
ATOM     22  H   UNL     1       1.659   7.954  17.040  0.00  0.00    +0.000 HD
BRANCH  21  23
ATOM     23  C   UNL     1       1.551   9.132  18.762  0.00  0.00    +0.000 C 
BRANCH  23  24
ATOM     24  C   UNL     1       1.910  10.498  18.182  0.00  0.00    +0.000 C 
BRANCH  24  25
ATOM     25  C   UNL     1       1.432  11.665  19.050  0.00  0.00    +0.000 C 
BRANCH  25  26
ATOM     26  N   UNL     1       0.286  12.384  18.464  0.00  0.00    +0.000 NA
ATOM     27  C   UNL     1       0.243  13.792  18.922  0.00  0.00    +0.000 C 
ATOM     28  C   UNL     1      -0.243  13.950  20.374  0.00  0.00    +0.000 C 
ATOM     29  O   UNL     1      -1.541  13.370  20.553  0.00  0.00    +0.000 OA
ATOM     30  C   UNL     1      -1.546  11.989  20.176  0.00  0.00    +0.000 C 
ATOM     31  C   UNL     1      -1.039  11.786  18.738  0.00  0.00    +0.000 C 
ENDBRANCH  25  26
ENDBRANCH  24  25
ENDBRANCH  23  24
ENDBRANCH  21  23
ENDBRANCH   1  19
BRANCH   1  32
ATOM     32  C   UNL     1       2.337   4.581  17.661  0.00  0.00    +0.000 C 
BRANCH  32  33
ATOM     33  C   UNL     1       2.378   3.955  19.044  0.00  0.00    +0.000 A 
ATOM     34  C   UNL     1       3.524   3.274  19.473  0.00  0.00    +0.000 A 
ATOM     35  C   UNL     1       3.530   2.605  20.699  0.00  0.00    +0.000 A 
ATOM     36  C   UNL     1       2.406   2.634  21.524  0.00  0.00    +0.000 A 
ATOM     37  C   UNL     1       1.288   3.355  21.138  0.00  0.00    +0.000 A 
ATOM     38  C   UNL     1       1.280   4.011  19.914  0.00  0.00    +0.000 A 
ENDBRANCH  32  33
ENDBRANCH   1  32
TORSDOF 12
ENDMDL
MODEL 8
REMARK VINA RESULT:      -7.5      3.298      8.430
REMARK  Name = 
REMARK  16 active torsions:
REMARK  status: ('A' for Active; 'I' for Inactive)
REMARK    1  A    between atoms: C_1  and  C_2
REMARK    2  A    between atoms: C_2  and  C_3
REMARK    3  A    between atoms: C_2  and  C_4
REMARK    4  A    between atoms: C_7  and  O_8
REMARK    5  A    between atoms: O_8  and  C_9
REMARK    6  A    between atoms: C_9  and  C_10
REMARK    7  A    between atoms: C_9  and  C_11
REMARK    8  A    between atoms: C_9  and  C_12
REMARK    9  A    between atoms: N_14  and  C_15
REMARK   10  A    between atoms: C_15  and  C_16
REMARK   11  A    between atoms: C_15  and  C_23
REMARK   12  A    between atoms: C_16  and  C_17
REMARK   13  A    between atoms: N_25  and  C_26
REMARK   14  A    between atoms: C_26  and  C_27
REMARK   15  A    between atoms: C_27  and  C_28
REMARK   16  A    between atoms: C_28  and  N_29
REMARK                            x       y       z     vdW  Elec       q    Type
REMARK                         _______ _______ _______ _____ _____    ______ ____
ROOT
ATOM      1  C   UNL     1       2.701   6.804  18.583  0.00  0.00    +0.000 C 
ENDROOT
BRANCH   1   4
ATOM      2  C   UNL     1       4.857   5.538  18.211  0.00  0.00    +0.000 C 
ATOM      3  O   UNL     1       4.357   4.446  18.467  0.00  0.00    +0.000 OA
ATOM      4  N   UNL     1       4.122   6.701  18.223  0.00  0.00    +0.000 N 
ATOM      5  H   UNL     1       4.544   7.518  17.783  0.00  0.00    +0.000 HD
BRANCH   2   6
ATOM      6  C   UNL     1       6.396   5.754  18.041  0.00  0.00    +0.000 C 
ATOM      7  C   UNL     1       7.024   5.745  19.436  0.00  0.00    +0.000 C 
ATOM      8  C   UNL     1       6.507   7.123  17.339  0.00  0.00    +0.000 C 
BRANCH   6   9
ATOM      9  O   UNL     1       6.852   4.638  17.247  0.00  0.00    +0.000 OA
BRANCH   9  13
ATOM     10  C   UNL     1       5.996   3.941  13.202  0.00  0.00    +0.000 A 
ATOM     11  C   UNL     1       7.182   4.560  13.620  0.00  0.00    +0.000 A 
ATOM     12  C   UNL     1       7.421   4.802  14.984  0.00  0.00    +0.000 A 
ATOM     13  C   UNL     1       6.473   4.457  15.949  0.00  0.00    +0.000 A 
ATOM     14  C   UNL     1       5.279   3.893  15.523  0.00  0.00    +0.000 A 
ATOM     15  C   UNL     1       5.047   3.624  14.175  0.00  0.00    +0.000 A 
BRANCH  10  17
ATOM     16  C   UNL     1       6.722   2.336  11.457  0.00  0.00    +0.000 C 
ATOM     17  C   UNL     1       5.799   3.522  11.755  0.00  0.00    +0.000 C 
ATOM     18  C   UNL     1       4.351   3.154  11.405  0.00  0.00    +0.000 C 
ENDBRANCH  10  17
ENDBRANCH   9  13
ENDBRANCH   6   9
ENDBRANCH   2   6
ENDBRANCH   1   4
BRANCH   1  19
ATOM     19  C   UNL     1       2.241   8.227  18.158  0.00  0.00    +0.000 C 
ATOM     20  O   UNL     1       2.492   8.681  17.039  0.00  0.00    +0.000 OA
ATOM     21  N   UNL     1       1.490   8.937  19.084  0.00  0.00    +0.000 N 
ATOM     22  H   UNL     1       1.556   8.643  20.049  0.00  0.00    +0.000 HD
BRANCH  21  23
ATOM     23  C   UNL     1       1.150  10.333  18.890  0.00  0.00    +0.000 C 
BRANCH  23  24
ATOM     24  C   UNL     1      -0.359  10.509  19.038  0.00  0.00    +0.000 C 
BRANCH  24  25
ATOM     25  C   UNL     1      -0.838  11.920  18.688  0.00  0.00    +0.000 C 
BRANCH  25  26
ATOM     26  N   UNL     1      -1.544  12.578  19.804  0.00  0.00    +0.000 NA
ATOM     27  C   UNL     1      -1.034  13.951  20.027  0.00  0.00    +0.000 C 
ATOM     28  C   UNL     1       0.344  13.991  20.712  0.00  0.00    +0.000 C 
ATOM     29  O   UNL     1       0.318  13.302  21.968  0.00  0.00    +0.000 OA
ATOM     30  C   UNL     1      -0.116  11.947  21.806  0.00  0.00    +0.000 C 
ATOM     31  C   UNL     1      -1.479  11.864  21.098  0.00  0.00    +0.000 C 
ENDBRANCH  25  26
ENDBRANCH  24  25
ENDBRANCH  23  24
ENDBRANCH  21  23
ENDBRANCH   1  19
BRANCH   1  32
ATOM     32  C   UNL     1       2.429   6.494  20.077  0.00  0.00    +0.000 C 
BRANCH  32  33
ATOM     33  C   UNL     1       1.981   5.077  20.391  0.00  0.00    +0.000 A 
ATOM     34  C   UNL     1       2.499   4.408  21.507  0.00  0.00    +0.000 A 
ATOM     35  C   UNL     1       2.174   3.070  21.742  0.00  0.00    +0.000 A 
ATOM     36  C   UNL     1       1.305   2.394  20.885  0.00  0.00    +0.000 A 
ATOM     37  C   UNL     1       0.738   3.063  19.813  0.00  0.00    +0.000 A 
ATOM     38  C   UNL     1       1.070   4.391  19.576  0.00  0.00    +0.000 A 
ENDBRANCH  32  33
ENDBRANCH   1  32
TORSDOF 12
ENDMDL
MODEL 9
REMARK VINA RESULT:      -7.5      3.126      8.170
REMARK  Name = 
REMARK  16 active torsions:
REMARK  status: ('A' for Active; 'I' for Inactive)
REMARK    1  A    between atoms: C_1  and  C_2
REMARK    2  A    between atoms: C_2  and  C_3
REMARK    3  A    between atoms: C_2  and  C_4
REMARK    4  A    between atoms: C_7  and  O_8
REMARK    5  A    between atoms: O_8  and  C_9
REMARK    6  A    between atoms: C_9  and  C_10
REMARK    7  A    between atoms: C_9  and  C_11
REMARK    8  A    between atoms: C_9  and  C_12
REMARK    9  A    between atoms: N_14  and  C_15
REMARK   10  A    between atoms: C_15  and  C_16
REMARK   11  A    between atoms: C_15  and  C_23
REMARK   12  A    between atoms: C_16  and  C_17
REMARK   13  A    between atoms: N_25  and  C_26
REMARK   14  A    between atoms: C_26  and  C_27
REMARK   15  A    between atoms: C_27  and  C_28
REMARK   16  A    between atoms: C_28  and  N_29
REMARK                            x       y       z     vdW  Elec       q    Type
REMARK                         _______ _______ _______ _____ _____    ______ ____
ROOT
ATOM      1  C   UNL     1       2.864   6.166  18.051  0.00  0.00    +0.000 C 
ENDROOT
BRANCH   1   4
ATOM      2  C   UNL     1       5.339   6.443  17.617  0.00  0.00    +0.000 C 
ATOM      3  O   UNL     1       5.171   7.198  16.662  0.00  0.00    +0.000 OA
ATOM      4  N   UNL     1       4.285   5.933  18.340  0.00  0.00    +0.000 N 
ATOM      5  H   UNL     1       4.507   5.509  19.241  0.00  0.00    +0.000 HD
BRANCH   2   6
ATOM      6  C   UNL     1       6.728   5.830  17.988  0.00  0.00    +0.000 C 
ATOM      7  C   UNL     1       6.776   5.673  19.508  0.00  0.00    +0.000 C 
ATOM      8  C   UNL     1       7.746   6.859  17.456  0.00  0.00    +0.000 C 
BRANCH   6   9
ATOM      9  O   UNL     1       6.770   4.551  17.320  0.00  0.00    +0.000 OA
BRANCH   9  13
ATOM     10  C   UNL     1       5.899   3.916  13.269  0.00  0.00    +0.000 A 
ATOM     11  C   UNL     1       7.071   4.559  13.690  0.00  0.00    +0.000 A 
ATOM     12  C   UNL     1       7.314   4.778  15.057  0.00  0.00    +0.000 A 
ATOM     13  C   UNL     1       6.385   4.386  16.021  0.00  0.00    +0.000 A 
ATOM     14  C   UNL     1       5.203   3.799  15.594  0.00  0.00    +0.000 A 
ATOM     15  C   UNL     1       4.967   3.552  14.242  0.00  0.00    +0.000 A 
BRANCH  10  17
ATOM     16  C   UNL     1       6.564   2.292  11.517  0.00  0.00    +0.000 C 
ATOM     17  C   UNL     1       5.700   3.522  11.815  0.00  0.00    +0.000 C 
ATOM     18  C   UNL     1       4.240   3.235  11.440  0.00  0.00    +0.000 C 
ENDBRANCH  10  17
ENDBRANCH   9  13
ENDBRANCH   6   9
ENDBRANCH   2   6
ENDBRANCH   1   4
BRANCH   1  19
ATOM     19  C   UNL     1       2.348   7.146  19.142  0.00  0.00    +0.000 C 
ATOM     20  O   UNL     1       2.516   6.925  20.343  0.00  0.00    +0.000 OA
ATOM     21  N   UNL     1       1.734   8.306  18.690  0.00  0.00    +0.000 N 
ATOM     22  H   UNL     1       1.382   8.299  17.743  0.00  0.00    +0.000 HD
BRANCH  21  23
ATOM     23  C   UNL     1       1.052   9.215  19.591  0.00  0.00    +0.000 C 
BRANCH  23  24
ATOM     24  C   UNL     1       1.104  10.628  19.013  0.00  0.00    +0.000 C 
BRANCH  24  25
ATOM     25  C   UNL     1       1.256  11.711  20.085  0.00  0.00    +0.000 C 
BRANCH  25  26
ATOM     26  N   UNL     1      -0.031  12.320  20.470  0.00  0.00    +0.000 NA
ATOM     27  C   UNL     1      -0.920  12.482  19.296  0.00  0.00    +0.000 C 
ATOM     28  C   UNL     1      -0.509  13.640  18.370  0.00  0.00    +0.000 C 
ATOM     29  O   UNL     1      -0.459  14.882  19.083  0.00  0.00    +0.000 OA
ATOM     30  C   UNL     1       0.433  14.801  20.200  0.00  0.00    +0.000 C 
ATOM     31  C   UNL     1       0.070  13.636  21.137  0.00  0.00    +0.000 C 
ENDBRANCH  25  26
ENDBRANCH  24  25
ENDBRANCH  23  24
ENDBRANCH  21  23
ENDBRANCH   1  19
BRANCH   1  32
ATOM     32  C   UNL     1       2.039   4.856  17.966  0.00  0.00    +0.000 C 
BRANCH  32  33
ATOM     33  C   UNL     1       2.123   3.937  19.172  0.00  0.00    +0.000 A 
ATOM     34  C   UNL     1       1.023   3.799  20.027  0.00  0.00    +0.000 A 
ATOM     35  C   UNL     1       1.128   3.040  21.196  0.00  0.00    +0.000 A 
ATOM     36  C   UNL     1       2.320   2.387  21.508  0.00  0.00    +0.000 A 
ATOM     37  C   UNL     1       3.396   2.467  20.639  0.00  0.00    +0.000 A 
ATOM     38  C   UNL     1       3.292   3.229  19.483  0.00  0.00    +0.000 A 
ENDBRANCH  32  33
ENDBRANCH   1  32
TORSDOF 12
ENDMDL
