MODEL 1
REMARK VINA RESULT:      -7.2      0.000      0.000
REMARK  Name = 
REMARK  10 active torsions:
REMARK  status: ('A' for Active; 'I' for Inactive)
REMARK    1  A    between atoms: C_1  and  C_2
REMARK    2  A    between atoms: C_2  and  C_3
REMARK    3  A    between atoms: C_3  and  C_4
REMARK    4  A    between atoms: C_4  and  CA_5
REMARK    5  A    between atoms: CA_5  and  C_6
REMARK    6  A    between atoms: CA_5  and  N_8
REMARK    7  A    between atoms: C_9  and  O_11
REMARK    8  A    between atoms: O_11  and  C_12
REMARK    9  A    between atoms: C_12  and  C_13
REMARK   10  A    between atoms: C_13  and  C_14
REMARK                            x       y       z     vdW  Elec       q    Type
REMARK                         _______ _______ _______ _____ _____    ______ ____
ROOT
ATOM      1  O   UNL     1       3.648   3.710  18.001  0.00  0.00    +0.000 OA
ENDROOT
BRANCH   1   3
ATOM      2  N   UNL     1       5.356   4.483  16.839  0.00  0.00    +0.000 N 
ATOM      3  C   UNL     1       4.982   3.956  18.035  0.00  0.00    +0.000 C 
ATOM      4  O   UNL     1       5.712   3.767  18.994  0.00  0.00    +0.000 OA
ATOM      5  H   UNL     1       4.609   4.957  16.347  0.00  0.00    +0.000 HD
BRANCH   2   6
ATOM      6  CA  UNL     1       6.732   4.846  16.554  0.00  0.00    +0.000 C 
BRANCH   6   7
ATOM      7  C   UNL     1       7.037   6.256  17.052  0.00  0.00    +0.000 C 
ATOM      8  O   UNL     1       7.551   6.525  18.133  0.00  0.00    +0.000 OA
ENDBRANCH   6   7
BRANCH   6   9
ATOM      9  C   UNL     1       6.983   4.751  15.043  0.00  0.00    +0.000 C 
BRANCH   9  10
ATOM     10  C   UNL     1       5.806   4.130  14.292  0.00  0.00    +0.000 C 
BRANCH  10  12
ATOM     11  C   UNL     1       4.980   3.322  12.063  0.00  0.00    +0.000 C 
ATOM     12  C   UNL     1       6.207   3.672  12.889  0.00  0.00    +0.000 C 
ENDBRANCH  10  12
ENDBRANCH   9  10
ENDBRANCH   6   9
ENDBRANCH   2   6
ENDBRANCH   1   3
BRANCH   1  13
ATOM     13  C   UNL     1       2.880   4.127  19.159  0.00  0.00    +0.000 C 
ATOM     14  C   UNL     1       1.345   4.263  18.876  0.00  0.00    +0.000 C 
ATOM     15  C   UNL     1       1.060   3.564  20.209  0.00  0.00    +0.000 C 
ATOM     16  C   UNL     1       2.487   3.002  20.170  0.00  0.00    +0.000 C 
BRANCH  13  17
ATOM     17  C   UNL     1       3.501   5.403  19.768  0.00  0.00    +0.000 C 
BRANCH  17  18
ATOM     18  C   UNL     1       2.799   6.703  19.389  0.00  0.00    +0.000 A 
ATOM     19  C   UNL     1       1.954   7.434  20.239  0.00  0.00    +0.000 A 
ATOM     20  C   UNL     1       1.339   8.614  19.814  0.00  0.00    +0.000 A 
ATOM     21  C   UNL     1       1.574   9.098  18.534  0.00  0.00    +0.000 A 
ATOM     22  C   UNL     1       2.416   8.397  17.675  0.00  0.00    +0.000 A 
ATOM     23  C   UNL     1       3.020   7.209  18.098  0.00  0.00    +0.000 A 
ENDBRANCH  17  18
ENDBRANCH  13  17
ENDBRANCH   1  13
TORSDOF 9
ENDMDL
MODEL 2
REMARK VINA RESULT:      -6.9      1.168      1.275
REMARK  Name = 
REMARK  10 active torsions:
REMARK  status: ('A' for Active; 'I' for Inactive)
REMARK    1  A    between atoms: C_1  and  C_2
REMARK    2  A    between atoms: C_2  and  C_3
REMARK    3  A    between atoms: C_3  and  C_4
REMARK    4  A    between atoms: C_4  and  CA_5
REMARK    5  A    between atoms: CA_5  and  C_6
REMARK    6  A    between atoms: CA_5  and  N_8
REMARK    7  A    between atoms: C_9  and  O_11
REMARK    8  A    between atoms: O_11  and  C_12
REMARK    9  A    between atoms: C_12  and  C_13
REMARK   10  A    between atoms: C_13  and  C_14
REMARK                            x       y       z     vdW  Elec       q    Type
REMARK                         _______ _______ _______ _____ _____    ______ ____
ROOT
ATOM      1  O   UNL     1       2.431   4.319  18.089  0.00  0.00    +0.000 OA
ENDROOT
BRANCH   1   3
ATOM      2  N   UNL     1       4.344   4.471  17.002  0.00  0.00    +0.000 N 
ATOM      3  C   UNL     1       3.449   3.604  17.546  0.00  0.00    +0.000 C 
ATOM      4  O   UNL     1       3.555   2.389  17.573  0.00  0.00    +0.000 OA
ATOM      5  H   UNL     1       4.335   5.390  17.425  0.00  0.00    +0.000 HD
BRANCH   2   6
ATOM      6  CA  UNL     1       5.547   4.015  16.329  0.00  0.00    +0.000 C 
BRANCH   6   7
ATOM      7  C   UNL     1       6.754   4.850  16.748  0.00  0.00    +0.000 C 
ATOM      8  O   UNL     1       7.791   4.399  17.221  0.00  0.00    +0.000 OA
ENDBRANCH   6   7
BRANCH   6   9
ATOM      9  C   UNL     1       5.346   4.098  14.810  0.00  0.00    +0.000 C 
BRANCH   9  10
ATOM     10  C   UNL     1       6.666   4.057  14.041  0.00  0.00    +0.000 C 
BRANCH  10  12
ATOM     11  C   UNL     1       5.896   2.839  11.986  0.00  0.00    +0.000 C 
ATOM     12  C   UNL     1       6.446   4.147  12.531  0.00  0.00    +0.000 C 
ENDBRANCH  10  12
ENDBRANCH   9  10
ENDBRANCH   6   9
ENDBRANCH   2   6
ENDBRANCH   1   3
BRANCH   1  13
ATOM     13  C   UNL     1       2.467   4.509  19.527  0.00  0.00    +0.000 C 
ATOM     14  C   UNL     1       1.057   4.424  20.204  0.00  0.00    +0.000 C 
ATOM     15  C   UNL     1       1.671   3.578  21.324  0.00  0.00    +0.000 C 
ATOM     16  C   UNL     1       2.838   3.255  20.382  0.00  0.00    +0.000 C 
BRANCH  13  17
ATOM     17  C   UNL     1       3.225   5.811  19.865  0.00  0.00    +0.000 C 
BRANCH  17  18
ATOM     18  C   UNL     1       2.474   7.096  19.532  0.00  0.00    +0.000 A 
ATOM     19  C   UNL     1       1.685   7.821  20.441  0.00  0.00    +0.000 A 
ATOM     20  C   UNL     1       1.019   8.987  20.058  0.00  0.00    +0.000 A 
ATOM     21  C   UNL     1       1.145   9.464  18.759  0.00  0.00    +0.000 A 
ATOM     22  C   UNL     1       1.929   8.770  17.842  0.00  0.00    +0.000 A 
ATOM     23  C   UNL     1       2.583   7.595  18.224  0.00  0.00    +0.000 A 
ENDBRANCH  17  18
ENDBRANCH  13  17
ENDBRANCH   1  13
TORSDOF 9
ENDMDL
MODEL 3
REMARK VINA RESULT:      -6.8      2.273      4.318
REMARK  Name = 
REMARK  10 active torsions:
REMARK  status: ('A' for Active; 'I' for Inactive)
REMARK    1  A    between atoms: C_1  and  C_2
REMARK    2  A    between atoms: C_2  and  C_3
REMARK    3  A    between atoms: C_3  and  C_4
REMARK    4  A    between atoms: C_4  and  CA_5
REMARK    5  A    between atoms: CA_5  and  C_6
REMARK    6  A    between atoms: CA_5  and  N_8
REMARK    7  A    between atoms: C_9  and  O_11
REMARK    8  A    between atoms: O_11  and  C_12
REMARK    9  A    between atoms: C_12  and  C_13
REMARK   10  A    between atoms: C_13  and  C_14
REMARK                            x       y       z     vdW  Elec       q    Type
REMARK                         _______ _______ _______ _____ _____    ______ ____
ROOT
ATOM      1  O   UNL     1       5.716   5.863  16.118  0.00  0.00    +0.000 OA
ENDROOT
BRANCH   1   3
ATOM      2  N   UNL     1       5.863   4.699  14.250  0.00  0.00    +0.000 N 
ATOM      3  C   UNL     1       6.509   5.029  15.399  0.00  0.00    +0.000 C 
ATOM      4  O   UNL     1       7.629   4.666  15.719  0.00  0.00    +0.000 OA
ATOM      5  H   UNL     1       5.184   5.387  13.949  0.00  0.00    +0.000 HD
BRANCH   2   6
ATOM      6  CA  UNL     1       6.447   3.805  13.266  0.00  0.00    +0.000 C 
BRANCH   6   7
ATOM      7  C   UNL     1       7.273   4.585  12.246  0.00  0.00    +0.000 C 
ATOM      8  O   UNL     1       7.938   5.585  12.496  0.00  0.00    +0.000 OA
ENDBRANCH   6   7
BRANCH   6   9
ATOM      9  C   UNL     1       5.332   3.024  12.560  0.00  0.00    +0.000 C 
BRANCH   9  10
ATOM     10  C   UNL     1       4.927   3.656  11.227  0.00  0.00    +0.000 C 
BRANCH  10  12
ATOM     11  C   UNL     1       2.980   4.128   9.716  0.00  0.00    +0.000 C 
ATOM     12  C   UNL     1       3.538   3.200  10.783  0.00  0.00    +0.000 C 
ENDBRANCH  10  12
ENDBRANCH   9  10
ENDBRANCH   6   9
ENDBRANCH   2   6
ENDBRANCH   1   3
BRANCH   1  13
ATOM     13  C   UNL     1       5.027   5.285  17.256  0.00  0.00    +0.000 C 
ATOM     14  C   UNL     1       5.907   5.217  18.551  0.00  0.00    +0.000 C 
ATOM     15  C   UNL     1       4.705   5.707  19.365  0.00  0.00    +0.000 C 
ATOM     16  C   UNL     1       4.097   6.247  18.063  0.00  0.00    +0.000 C 
BRANCH  13  17
ATOM     17  C   UNL     1       4.418   3.921  16.863  0.00  0.00    +0.000 C 
BRANCH  17  18
ATOM     18  C   UNL     1       3.234   3.477  17.715  0.00  0.00    +0.000 A 
ATOM     19  C   UNL     1       1.911   3.915  17.538  0.00  0.00    +0.000 A 
ATOM     20  C   UNL     1       0.880   3.468  18.367  0.00  0.00    +0.000 A 
ATOM     21  C   UNL     1       1.148   2.556  19.380  0.00  0.00    +0.000 A 
ATOM     22  C   UNL     1       2.449   2.098  19.569  0.00  0.00    +0.000 A 
ATOM     23  C   UNL     1       3.482   2.558  18.747  0.00  0.00    +0.000 A 
ENDBRANCH  17  18
ENDBRANCH  13  17
ENDBRANCH   1  13
TORSDOF 9
ENDMDL
MODEL 4
REMARK VINA RESULT:      -6.8      2.076      3.850
REMARK  Name = 
REMARK  10 active torsions:
REMARK  status: ('A' for Active; 'I' for Inactive)
REMARK    1  A    between atoms: C_1  and  C_2
REMARK    2  A    between atoms: C_2  and  C_3
REMARK    3  A    between atoms: C_3  and  C_4
REMARK    4  A    between atoms: C_4  and  CA_5
REMARK    5  A    between atoms: CA_5  and  C_6
REMARK    6  A    between atoms: CA_5  and  N_8
REMARK    7  A    between atoms: C_9  and  O_11
REMARK    8  A    between atoms: O_11  and  C_12
REMARK    9  A    between atoms: C_12  and  C_13
REMARK   10  A    between atoms: C_13  and  C_14
REMARK                            x       y       z     vdW  Elec       q    Type
REMARK                         _______ _______ _______ _____ _____    ______ ____
ROOT
ATOM      1  O   UNL     1       4.931   5.939  15.989  0.00  0.00    +0.000 OA
ENDROOT
BRANCH   1   3
ATOM      2  N   UNL     1       5.871   4.870  14.303  0.00  0.00    +0.000 N 
ATOM      3  C   UNL     1       6.116   5.544  15.458  0.00  0.00    +0.000 C 
ATOM      4  O   UNL     1       7.217   5.785  15.925  0.00  0.00    +0.000 OA
ATOM      5  H   UNL     1       4.999   5.125  13.856  0.00  0.00    +0.000 HD
BRANCH   2   6
ATOM      6  CA  UNL     1       6.938   4.305  13.498  0.00  0.00    +0.000 C 
BRANCH   6   7
ATOM      7  C   UNL     1       7.718   5.404  12.781  0.00  0.00    +0.000 C 
ATOM      8  O   UNL     1       8.805   5.845  13.141  0.00  0.00    +0.000 OA
ENDBRANCH   6   7
BRANCH   6   9
ATOM      9  C   UNL     1       6.346   3.323  12.479  0.00  0.00    +0.000 C 
BRANCH   9  10
ATOM     10  C   UNL     1       4.828   3.452  12.356  0.00  0.00    +0.000 C 
BRANCH  10  12
ATOM     11  C   UNL     1       3.081   3.125  10.583  0.00  0.00    +0.000 C 
ATOM     12  C   UNL     1       4.402   3.793  10.928  0.00  0.00    +0.000 C 
ENDBRANCH  10  12
ENDBRANCH   9  10
ENDBRANCH   6   9
ENDBRANCH   2   6
ENDBRANCH   1   3
BRANCH   1  13
ATOM     13  C   UNL     1       4.705   5.615  17.385  0.00  0.00    +0.000 C 
ATOM     14  C   UNL     1       4.940   4.103  17.721  0.00  0.00    +0.000 C 
ATOM     15  C   UNL     1       5.682   4.525  18.994  0.00  0.00    +0.000 C 
ATOM     16  C   UNL     1       5.886   5.910  18.364  0.00  0.00    +0.000 C 
BRANCH  13  17
ATOM     17  C   UNL     1       3.315   6.125  17.823  0.00  0.00    +0.000 C 
BRANCH  17  18
ATOM     18  C   UNL     1       2.426   5.078  18.485  0.00  0.00    +0.000 A 
ATOM     19  C   UNL     1       1.838   3.989  17.820  0.00  0.00    +0.000 A 
ATOM     20  C   UNL     1       1.026   3.075  18.496  0.00  0.00    +0.000 A 
ATOM     21  C   UNL     1       0.802   3.220  19.859  0.00  0.00    +0.000 A 
ATOM     22  C   UNL     1       1.382   4.285  20.543  0.00  0.00    +0.000 A 
ATOM     23  C   UNL     1       2.182   5.206  19.862  0.00  0.00    +0.000 A 
ENDBRANCH  17  18
ENDBRANCH  13  17
ENDBRANCH   1  13
TORSDOF 9
ENDMDL
MODEL 5
REMARK VINA RESULT:      -6.7      1.375      1.967
REMARK  Name = 
REMARK  10 active torsions:
REMARK  status: ('A' for Active; 'I' for Inactive)
REMARK    1  A    between atoms: C_1  and  C_2
REMARK    2  A    between atoms: C_2  and  C_3
REMARK    3  A    between atoms: C_3  and  C_4
REMARK    4  A    between atoms: C_4  and  CA_5
REMARK    5  A    between atoms: CA_5  and  C_6
REMARK    6  A    between atoms: CA_5  and  N_8
REMARK    7  A    between atoms: C_9  and  O_11
REMARK    8  A    between atoms: O_11  and  C_12
REMARK    9  A    between atoms: C_12  and  C_13
REMARK   10  A    between atoms: C_13  and  C_14
REMARK                            x       y       z     vdW  Elec       q    Type
REMARK                         _______ _______ _______ _____ _____    ______ ____
ROOT
ATOM      1  O   UNL     1       3.805   3.508  20.200  0.00  0.00    +0.000 OA
ENDROOT
BRANCH   1   3
ATOM      2  N   UNL     1       5.213   4.466  18.799  0.00  0.00    +0.000 N 
ATOM      3  C   UNL     1       4.382   3.405  18.976  0.00  0.00    +0.000 C 
ATOM      4  O   UNL     1       4.210   2.492  18.186  0.00  0.00    +0.000 OA
ATOM      5  H   UNL     1       5.560   4.866  19.662  0.00  0.00    +0.000 HD
BRANCH   2   6
ATOM      6  CA  UNL     1       5.974   4.653  17.577  0.00  0.00    +0.000 C 
BRANCH   6   7
ATOM      7  C   UNL     1       7.473   4.576  17.854  0.00  0.00    +0.000 C 
ATOM      8  O   UNL     1       8.327   4.271  17.027  0.00  0.00    +0.000 OA
ENDBRANCH   6   7
BRANCH   6   9
ATOM      9  C   UNL     1       5.619   6.010  16.955  0.00  0.00    +0.000 C 
BRANCH   9  10
ATOM     10  C   UNL     1       5.288   5.904  15.467  0.00  0.00    +0.000 C 
BRANCH  10  12
ATOM     11  C   UNL     1       6.444   4.274  13.947  0.00  0.00    +0.000 C 
ATOM     12  C   UNL     1       5.341   4.457  14.976  0.00  0.00    +0.000 C 
ENDBRANCH  10  12
ENDBRANCH   9  10
ENDBRANCH   6   9
ENDBRANCH   2   6
ENDBRANCH   1   3
BRANCH   1  13
ATOM     13  C   UNL     1       2.387   3.817  20.225  0.00  0.00    +0.000 C 
ATOM     14  C   UNL     1       1.728   3.841  18.804  0.00  0.00    +0.000 C 
ATOM     15  C   UNL     1       0.531   3.071  19.371  0.00  0.00    +0.000 C 
ATOM     16  C   UNL     1       1.425   2.626  20.537  0.00  0.00    +0.000 C 
BRANCH  13  17
ATOM     17  C   UNL     1       2.148   5.114  21.028  0.00  0.00    +0.000 C 
BRANCH  17  18
ATOM     18  C   UNL     1       2.063   6.384  20.187  0.00  0.00    +0.000 A 
ATOM     19  C   UNL     1       2.629   6.538  18.911  0.00  0.00    +0.000 A 
ATOM     20  C   UNL     1       2.516   7.738  18.205  0.00  0.00    +0.000 A 
ATOM     21  C   UNL     1       1.816   8.804  18.755  0.00  0.00    +0.000 A 
ATOM     22  C   UNL     1       1.237   8.673  20.014  0.00  0.00    +0.000 A 
ATOM     23  C   UNL     1       1.363   7.476  20.725  0.00  0.00    +0.000 A 
ENDBRANCH  17  18
ENDBRANCH  13  17
ENDBRANCH   1  13
TORSDOF 9
ENDMDL
MODEL 6
REMARK VINA RESULT:      -6.7      2.558      4.692
REMARK  Name = 
REMARK  10 active torsions:
REMARK  status: ('A' for Active; 'I' for Inactive)
REMARK    1  A    between atoms: C_1  and  C_2
REMARK    2  A    between atoms: C_2  and  C_3
REMARK    3  A    between atoms: C_3  and  C_4
REMARK    4  A    between atoms: C_4  and  CA_5
REMARK    5  A    between atoms: CA_5  and  C_6
REMARK    6  A    between atoms: CA_5  and  N_8
REMARK    7  A    between atoms: C_9  and  O_11
REMARK    8  A    between atoms: O_11  and  C_12
REMARK    9  A    between atoms: C_12  and  C_13
REMARK   10  A    between atoms: C_13  and  C_14
REMARK                            x       y       z     vdW  Elec       q    Type
REMARK                         _______ _______ _______ _____ _____    ______ ____
ROOT
ATOM      1  O   UNL     1       7.212   5.404  15.351  0.00  0.00    +0.000 OA
ENDROOT
BRANCH   1   3
ATOM      2  N   UNL     1       6.676   4.379  13.472  0.00  0.00    +0.000 N 
ATOM      3  C   UNL     1       6.665   4.277  14.828  0.00  0.00    +0.000 C 
ATOM      4  O   UNL     1       6.264   3.321  15.470  0.00  0.00    +0.000 OA
ATOM      5  H   UNL     1       7.397   4.992  13.112  0.00  0.00    +0.000 HD
BRANCH   2   6
ATOM      6  CA  UNL     1       6.145   3.334  12.617  0.00  0.00    +0.000 C 
BRANCH   6   7
ATOM      7  C   UNL     1       7.137   2.979  11.512  0.00  0.00    +0.000 C 
ATOM      8  O   UNL     1       7.405   1.840  11.147  0.00  0.00    +0.000 OA
ENDBRANCH   6   7
BRANCH   6   9
ATOM      9  C   UNL     1       4.816   3.798  12.007  0.00  0.00    +0.000 C 
BRANCH   9  10
ATOM     10  C   UNL     1       4.192   2.745  11.091  0.00  0.00    +0.000 C 
BRANCH  10  12
ATOM     11  C   UNL     1       3.050   4.384   9.572  0.00  0.00    +0.000 C 
ATOM     12  C   UNL     1       2.853   3.212  10.520  0.00  0.00    +0.000 C 
ENDBRANCH  10  12
ENDBRANCH   9  10
ENDBRANCH   6   9
ENDBRANCH   2   6
ENDBRANCH   1   3
BRANCH   1  13
ATOM     13  C   UNL     1       6.605   5.917  16.565  0.00  0.00    +0.000 C 
ATOM     14  C   UNL     1       6.702   4.930  17.778  0.00  0.00    +0.000 C 
ATOM     15  C   UNL     1       7.079   6.111  18.679  0.00  0.00    +0.000 C 
ATOM     16  C   UNL     1       7.482   6.888  17.419  0.00  0.00    +0.000 C 
BRANCH  13  17
ATOM     17  C   UNL     1       5.162   6.382  16.273  0.00  0.00    +0.000 C 
BRANCH  17  18
ATOM     18  C   UNL     1       4.106   5.838  17.231  0.00  0.00    +0.000 A 
ATOM     19  C   UNL     1       3.532   6.564  18.286  0.00  0.00    +0.000 A 
ATOM     20  C   UNL     1       2.575   5.992  19.128  0.00  0.00    +0.000 A 
ATOM     21  C   UNL     1       2.158   4.684  18.917  0.00  0.00    +0.000 A 
ATOM     22  C   UNL     1       2.704   3.946  17.871  0.00  0.00    +0.000 A 
ATOM     23  C   UNL     1       3.672   4.517  17.039  0.00  0.00    +0.000 A 
ENDBRANCH  17  18
ENDBRANCH  13  17
ENDBRANCH   1  13
TORSDOF 9
ENDMDL
MODEL 7
REMARK VINA RESULT:      -6.6      1.494      6.585
REMARK  Name = 
REMARK  10 active torsions:
REMARK  status: ('A' for Active; 'I' for Inactive)
REMARK    1  A    between atoms: C_1  and  C_2
REMARK    2  A    between atoms: C_2  and  C_3
REMARK    3  A    between atoms: C_3  and  C_4
REMARK    4  A    between atoms: C_4  and  CA_5
REMARK    5  A    between atoms: CA_5  and  C_6
REMARK    6  A    between atoms: CA_5  and  N_8
REMARK    7  A    between atoms: C_9  and  O_11
REMARK    8  A    between atoms: O_11  and  C_12
REMARK    9  A    between atoms: C_12  and  C_13
REMARK   10  A    between atoms: C_13  and  C_14
REMARK                            x       y       z     vdW  Elec       q    Type
REMARK                         _______ _______ _______ _____ _____    ______ ____
ROOT
ATOM      1  O   UNL     1       4.537   4.049  17.003  0.00  0.00    +0.000 OA
ENDROOT
BRANCH   1   3
ATOM      2  N   UNL     1       2.933   4.385  18.480  0.00  0.00    +0.000 N 
ATOM      3  C   UNL     1       4.145   3.802  18.279  0.00  0.00    +0.000 C 
ATOM      4  O   UNL     1       4.764   3.139  19.094  0.00  0.00    +0.000 OA
ATOM      5  H   UNL     1       2.391   4.507  17.635  0.00  0.00    +0.000 HD
BRANCH   2   6
ATOM      6  CA  UNL     1       2.246   4.312  19.757  0.00  0.00    +0.000 C 
BRANCH   6   7
ATOM      7  C   UNL     1       0.927   3.555  19.621  0.00  0.00    +0.000 C 
ATOM      8  O   UNL     1       0.783   2.492  19.026  0.00  0.00    +0.000 OA
ENDBRANCH   6   7
BRANCH   6   9
ATOM      9  C   UNL     1       1.991   5.731  20.282  0.00  0.00    +0.000 C 
BRANCH   9  10
ATOM     10  C   UNL     1       2.759   6.793  19.495  0.00  0.00    +0.000 C 
BRANCH  10  12
ATOM     11  C   UNL     1       2.372   8.553  17.747  0.00  0.00    +0.000 C 
ATOM     12  C   UNL     1       1.843   7.923  19.025  0.00  0.00    +0.000 C 
ENDBRANCH  10  12
ENDBRANCH   9  10
ENDBRANCH   6   9
ENDBRANCH   2   6
ENDBRANCH   1   3
BRANCH   1  13
ATOM     13  C   UNL     1       5.600   5.021  16.827  0.00  0.00    +0.000 C 
ATOM     14  C   UNL     1       5.144   6.313  16.066  0.00  0.00    +0.000 C 
ATOM     15  C   UNL     1       5.926   7.157  17.079  0.00  0.00    +0.000 C 
ATOM     16  C   UNL     1       5.884   5.962  18.041  0.00  0.00    +0.000 C 
BRANCH  13  17
ATOM     17  C   UNL     1       6.831   4.342  16.188  0.00  0.00    +0.000 C 
BRANCH  17  18
ATOM     18  C   UNL     1       6.831   4.315  14.664  0.00  0.00    +0.000 A 
ATOM     19  C   UNL     1       6.008   3.492  13.877  0.00  0.00    +0.000 A 
ATOM     20  C   UNL     1       6.073   3.519  12.482  0.00  0.00    +0.000 A 
ATOM     21  C   UNL     1       6.950   4.386  11.844  0.00  0.00    +0.000 A 
ATOM     22  C   UNL     1       7.769   5.220  12.600  0.00  0.00    +0.000 A 
ATOM     23  C   UNL     1       7.712   5.181  13.997  0.00  0.00    +0.000 A 
ENDBRANCH  17  18
ENDBRANCH  13  17
ENDBRANCH   1  13
TORSDOF 9
ENDMDL
MODEL 8
REMARK VINA RESULT:      -6.6      1.340      3.583
REMARK  Name = 
REMARK  10 active torsions:
REMARK  status: ('A' for Active; 'I' for Inactive)
REMARK    1  A    between atoms: C_1  and  C_2
REMARK    2  A    between atoms: C_2  and  C_3
REMARK    3  A    between atoms: C_3  and  C_4
REMARK    4  A    between atoms: C_4  and  CA_5
REMARK    5  A    between atoms: CA_5  and  C_6
REMARK    6  A    between atoms: CA_5  and  N_8
REMARK    7  A    between atoms: C_9  and  O_11
REMARK    8  A    between atoms: O_11  and  C_12
REMARK    9  A    between atoms: C_12  and  C_13
REMARK   10  A    between atoms: C_13  and  C_14
REMARK                            x       y       z     vdW  Elec       q    Type
REMARK                         _______ _______ _______ _____ _____    ______ ____
ROOT
ATOM      1  O   UNL     1       4.074   6.177  18.902  0.00  0.00    +0.000 OA
ENDROOT
BRANCH   1   3
ATOM      2  N   UNL     1       5.231   4.805  17.619  0.00  0.00    +0.000 N 
ATOM      3  C   UNL     1       5.045   6.109  17.956  0.00  0.00    +0.000 C 
ATOM      4  O   UNL     1       5.627   7.063  17.467  0.00  0.00    +0.000 OA
ATOM      5  H   UNL     1       4.419   4.220  17.777  0.00  0.00    +0.000 HD
BRANCH   2   6
ATOM      6  CA  UNL     1       6.216   4.395  16.635  0.00  0.00    +0.000 C 
BRANCH   6   7
ATOM      7  C   UNL     1       7.632   4.563  17.182  0.00  0.00    +0.000 C 
ATOM      8  O   UNL     1       7.952   4.433  18.358  0.00  0.00    +0.000 OA
ENDBRANCH   6   7
BRANCH   6   9
ATOM      9  C   UNL     1       6.039   5.226  15.358  0.00  0.00    +0.000 C 
BRANCH   9  10
ATOM     10  C   UNL     1       5.268   4.474  14.272  0.00  0.00    +0.000 C 
BRANCH  10  12
ATOM     11  C   UNL     1       5.458   3.224  12.104  0.00  0.00    +0.000 C 
ATOM     12  C   UNL     1       6.207   3.722  13.329  0.00  0.00    +0.000 C 
ENDBRANCH  10  12
ENDBRANCH   9  10
ENDBRANCH   6   9
ENDBRANCH   2   6
ENDBRANCH   1   3
BRANCH   1  13
ATOM     13  C   UNL     1       2.806   6.748  18.490  0.00  0.00    +0.000 C 
ATOM     14  C   UNL     1       2.131   7.634  19.593  0.00  0.00    +0.000 C 
ATOM     15  C   UNL     1       1.787   8.670  18.518  0.00  0.00    +0.000 C 
ATOM     16  C   UNL     1       2.881   8.054  17.635  0.00  0.00    +0.000 C 
BRANCH  13  17
ATOM     17  C   UNL     1       1.879   5.636  17.953  0.00  0.00    +0.000 C 
BRANCH  17  18
ATOM     18  C   UNL     1       1.751   4.415  18.858  0.00  0.00    +0.000 A 
ATOM     19  C   UNL     1       1.298   4.447  20.187  0.00  0.00    +0.000 A 
ATOM     20  C   UNL     1       1.217   3.284  20.956  0.00  0.00    +0.000 A 
ATOM     21  C   UNL     1       1.570   2.059  20.403  0.00  0.00    +0.000 A 
ATOM     22  C   UNL     1       2.013   1.999  19.085  0.00  0.00    +0.000 A 
ATOM     23  C   UNL     1       2.106   3.167  18.321  0.00  0.00    +0.000 A 
ENDBRANCH  17  18
ENDBRANCH  13  17
ENDBRANCH   1  13
TORSDOF 9
ENDMDL
MODEL 9
REMARK VINA RESULT:      -6.6      2.435      4.324
REMARK  Name = 
REMARK  10 active torsions:
REMARK  status: ('A' for Active; 'I' for Inactive)
REMARK    1  A    between atoms: C_1  and  C_2
REMARK    2  A    between atoms: C_2  and  C_3
REMARK    3  A    between atoms: C_3  and  C_4
REMARK    4  A    between atoms: C_4  and  CA_5
REMARK    5  A    between atoms: CA_5  and  C_6
REMARK    6  A    between atoms: CA_5  and  N_8
REMARK    7  A    between atoms: C_9  and  O_11
REMARK    8  A    between atoms: O_11  and  C_12
REMARK    9  A    between atoms: C_12  and  C_13
REMARK   10  A    between atoms: C_13  and  C_14
REMARK                            x       y       z     vdW  Elec       q    Type
REMARK                         _______ _______ _______ _____ _____    ______ ____
ROOT
ATOM      1  O   UNL     1       5.067   5.288  16.534  0.00  0.00    +0.000 OA
ENDROOT
BRANCH   1   3
ATOM      2  N   UNL     1       6.323   5.103  14.730  0.00  0.00    +0.000 N 
ATOM      3  C   UNL     1       5.756   4.415  15.756  0.00  0.00    +0.000 C 
ATOM      4  O   UNL     1       5.874   3.219  15.966  0.00  0.00    +0.000 OA
ATOM      5  H   UNL     1       6.490   6.081  14.933  0.00  0.00    +0.000 HD
BRANCH   2   6
ATOM      6  CA  UNL     1       7.121   4.448  13.709  0.00  0.00    +0.000 C 
BRANCH   6   7
ATOM      7  C   UNL     1       7.890   5.472  12.880  0.00  0.00    +0.000 C 
ATOM      8  O   UNL     1       8.961   5.977  13.202  0.00  0.00    +0.000 OA
ENDBRANCH   6   7
BRANCH   6   9
ATOM      9  C   UNL     1       6.207   3.612  12.804  0.00  0.00    +0.000 C 
BRANCH   9  10
ATOM     10  C   UNL     1       6.817   3.363  11.425  0.00  0.00    +0.000 C 
BRANCH  10  12
ATOM     11  C   UNL     1       6.150   0.982  10.990  0.00  0.00    +0.000 C 
ATOM     12  C   UNL     1       7.309   1.923  11.274  0.00  0.00    +0.000 C 
ENDBRANCH  10  12
ENDBRANCH   9  10
ENDBRANCH   6   9
ENDBRANCH   2   6
ENDBRANCH   1   3
BRANCH   1  13
ATOM     13  C   UNL     1       5.713   5.713  17.761  0.00  0.00    +0.000 C 
ATOM     14  C   UNL     1       7.144   5.104  17.958  0.00  0.00    +0.000 C 
ATOM     15  C   UNL     1       7.640   6.479  18.420  0.00  0.00    +0.000 C 
ATOM     16  C   UNL     1       6.424   7.104  17.723  0.00  0.00    +0.000 C 
BRANCH  13  17
ATOM     17  C   UNL     1       4.776   5.461  18.962  0.00  0.00    +0.000 C 
BRANCH  17  18
ATOM     18  C   UNL     1       3.756   4.345  18.758  0.00  0.00    +0.000 A 
ATOM     19  C   UNL     1       4.020   2.977  18.937  0.00  0.00    +0.000 A 
ATOM     20  C   UNL     1       3.033   2.012  18.721  0.00  0.00    +0.000 A 
ATOM     21  C   UNL     1       1.755   2.398  18.339  0.00  0.00    +0.000 A 
ATOM     22  C   UNL     1       1.466   3.749  18.165  0.00  0.00    +0.000 A 
ATOM     23  C   UNL     1       2.458   4.712  18.368  0.00  0.00    +0.000 A 
ENDBRANCH  17  18
ENDBRANCH  13  17
ENDBRANCH   1  13
TORSDOF 9
ENDMDL
