MODEL 1
REMARK VINA RESULT:      -8.4      0.000      0.000
REMARK  Name = 
REMARK  5 active torsions:
REMARK  status: ('A' for Active; 'I' for Inactive)
REMARK    1  A    between atoms: C_2  and  C_18
REMARK    2  A    between atoms: N_3  and  C_4
REMARK    3  A    between atoms: N_7  and  S_8
REMARK    4  A    between atoms: S_8  and  C_11
REMARK    5  A    between atoms: C_20  and  C_21
REMARK                            x       y       z     vdW  Elec       q    Type
REMARK                         _______ _______ _______ _____ _____    ______ ____
ROOT
ATOM      1  C   UNL     1       6.564   6.180  16.403  0.00  0.00    +0.000 C 
ATOM      2  C   UNL     1       5.023   6.150  16.309  0.00  0.00    +0.000 C 
ATOM      3  C   UNL     1       4.283   5.475  17.467  0.00  0.00    +0.000 C 
ATOM      4  N   UNL     1       4.951   4.192  17.814  0.00  0.00    +0.000 NA
ATOM      5  C   UNL     1       6.316   4.506  18.344  0.00  0.00    +0.000 C 
ATOM      6  C   UNL     1       7.176   5.016  17.194  0.00  0.00    +0.000 C 
ENDROOT
BRANCH   1   9
ATOM      7  O   UNL     1       8.211   6.768  18.642  0.00  0.00    +0.000 OA
ATOM      8  C   UNL     1       7.886   7.688  17.897  0.00  0.00    +0.000 C 
ATOM      9  N   UNL     1       7.093   7.488  16.793  0.00  0.00    +0.000 N 
ATOM     10  H   UNL     1       6.907   8.303  16.212  0.00  0.00    +0.000 HD
BRANCH   8  11
ATOM     11  C   UNL     1       8.321   9.045  18.184  0.00  0.00    +0.000 A 
ATOM     12  C   UNL     1       9.159   9.386  19.272  0.00  0.00    +0.000 A 
ATOM     13  C   UNL     1       9.258  10.748  19.239  0.00  0.00    +0.000 A 
ATOM     14  O   UNL     1       8.556  11.217  18.169  0.00  0.00    +0.000 OA
ATOM     15  N   UNL     1       7.968  10.143  17.489  0.00  0.00    +0.000 NA
BRANCH  13  16
ATOM     16  C   UNL     1      10.019  11.542  20.280  0.00  0.00    +0.000 C 
ATOM     17  C   UNL     1      11.475  11.863  20.056  0.00  0.00    +0.000 C 
ATOM     18  C   UNL     1      10.458  12.946  19.935  0.00  0.00    +0.000 C 
ENDBRANCH  13  16
ENDBRANCH   8  11
ENDBRANCH   1   9
BRANCH   4  19
ATOM     19  S   UNL     1       4.071   3.147  18.850  0.00  0.00    +0.000 S 
ATOM     20  O   UNL     1       3.553   2.064  18.039  0.00  0.00    +0.000 OA
ATOM     21  O   UNL     1       4.922   2.867  19.989  0.00  0.00    +0.000 OA
BRANCH  19  22
ATOM     22  C   UNL     1       2.694   4.155  19.420  0.00  0.00    +0.000 C 
ATOM     23  C   UNL     1       2.579   4.135  20.942  0.00  0.00    +0.000 C 
ATOM     24  C   UNL     1       1.497   3.107  21.205  0.00  0.00    +0.000 C 
ATOM     25  N   UNL     1       0.531   3.343  20.127  0.00  0.00    +0.000 NA
ATOM     26  C   UNL     1       1.349   3.637  18.931  0.00  0.00    +0.000 C 
ATOM     27  H   UNL     1      -0.033   4.160  20.364  0.00  0.00    +0.000 HD
ENDBRANCH  19  22
ENDBRANCH   4  19
TORSDOF 5
ENDMDL
MODEL 2
REMARK VINA RESULT:      -8.3      1.616      1.938
REMARK  Name = 
REMARK  5 active torsions:
REMARK  status: ('A' for Active; 'I' for Inactive)
REMARK    1  A    between atoms: C_2  and  C_18
REMARK    2  A    between atoms: N_3  and  C_4
REMARK    3  A    between atoms: N_7  and  S_8
REMARK    4  A    between atoms: S_8  and  C_11
REMARK    5  A    between atoms: C_20  and  C_21
REMARK                            x       y       z     vdW  Elec       q    Type
REMARK                         _______ _______ _______ _____ _____    ______ ____
ROOT
ATOM      1  C   UNL     1       6.919   6.797  16.882  0.00  0.00    +0.000 C 
ATOM      2  C   UNL     1       5.396   6.821  16.630  0.00  0.00    +0.000 C 
ATOM      3  C   UNL     1       4.512   6.258  17.746  0.00  0.00    +0.000 C 
ATOM      4  N   UNL     1       5.082   4.977  18.244  0.00  0.00    +0.000 NA
ATOM      5  C   UNL     1       6.399   5.274  18.893  0.00  0.00    +0.000 C 
ATOM      6  C   UNL     1       7.393   5.668  17.808  0.00  0.00    +0.000 C 
ENDROOT
BRANCH   1   9
ATOM      7  O   UNL     1       8.656   7.402  19.047  0.00  0.00    +0.000 OA
ATOM      8  C   UNL     1       8.303   8.316  18.308  0.00  0.00    +0.000 C 
ATOM      9  N   UNL     1       7.465   8.107  17.238  0.00  0.00    +0.000 N 
ATOM     10  H   UNL     1       7.256   8.918  16.658  0.00  0.00    +0.000 HD
BRANCH   8  11
ATOM     11  C   UNL     1       8.751   9.675  18.565  0.00  0.00    +0.000 A 
ATOM     12  C   UNL     1       8.582  10.742  17.652  0.00  0.00    +0.000 A 
ATOM     13  C   UNL     1       9.207  11.812  18.226  0.00  0.00    +0.000 A 
ATOM     14  O   UNL     1       9.697  11.438  19.441  0.00  0.00    +0.000 OA
ATOM     15  N   UNL     1       9.404  10.087  19.668  0.00  0.00    +0.000 NA
BRANCH  13  16
ATOM     16  C   UNL     1       9.322  13.160  17.544  0.00  0.00    +0.000 C 
ATOM     17  C   UNL     1       9.782  14.359  18.334  0.00  0.00    +0.000 C 
ATOM     18  C   UNL     1      10.699  13.743  17.334  0.00  0.00    +0.000 C 
ENDBRANCH  13  16
ENDBRANCH   8  11
ENDBRANCH   1   9
BRANCH   4  19
ATOM     19  S   UNL     1       4.054   4.042  19.249  0.00  0.00    +0.000 S 
ATOM     20  O   UNL     1       4.842   2.949  19.782  0.00  0.00    +0.000 OA
ATOM     21  O   UNL     1       3.384   4.965  20.143  0.00  0.00    +0.000 OA
BRANCH  19  22
ATOM     22  C   UNL     1       2.825   3.374  18.117  0.00  0.00    +0.000 C 
ATOM     23  C   UNL     1       1.426   3.885  18.446  0.00  0.00    +0.000 C 
ATOM     24  C   UNL     1       0.811   2.756  19.247  0.00  0.00    +0.000 C 
ATOM     25  N   UNL     1       1.309   1.550  18.576  0.00  0.00    +0.000 NA
ATOM     26  C   UNL     1       2.707   1.859  18.211  0.00  0.00    +0.000 C 
ATOM     27  H   UNL     1       0.761   1.395  17.729  0.00  0.00    +0.000 HD
ENDBRANCH  19  22
ENDBRANCH   4  19
TORSDOF 5
ENDMDL
MODEL 3
REMARK VINA RESULT:      -8.3      6.760      9.024
REMARK  Name = 
REMARK  5 active torsions:
REMARK  status: ('A' for Active; 'I' for Inactive)
REMARK    1  A    between atoms: C_2  and  C_18
REMARK    2  A    between atoms: N_3  and  C_4
REMARK    3  A    between atoms: N_7  and  S_8
REMARK    4  A    between atoms: S_8  and  C_11
REMARK    5  A    between atoms: C_20  and  C_21
REMARK                            x       y       z     vdW  Elec       q    Type
REMARK                         _______ _______ _______ _____ _____    ______ ____
ROOT
ATOM      1  C   UNL     1       1.317   9.450  19.024  0.00  0.00    +0.000 C 
ATOM      2  C   UNL     1       2.179   8.784  17.930  0.00  0.00    +0.000 C 
ATOM      3  C   UNL     1       2.347   7.265  18.025  0.00  0.00    +0.000 C 
ATOM      4  N   UNL     1       2.644   6.877  19.431  0.00  0.00    +0.000 NA
ATOM      5  C   UNL     1       1.442   7.197  20.266  0.00  0.00    +0.000 C 
ATOM      6  C   UNL     1       1.316   8.712  20.370  0.00  0.00    +0.000 C 
ENDROOT
BRANCH   1   9
ATOM      7  O   UNL     1       0.184  12.053  18.926  0.00  0.00    +0.000 OA
ATOM      8  C   UNL     1      -0.496  11.104  18.547  0.00  0.00    +0.000 C 
ATOM      9  N   UNL     1      -0.023   9.814  18.562  0.00  0.00    +0.000 N 
ATOM     10  H   UNL     1      -0.644   9.097  18.194  0.00  0.00    +0.000 HD
BRANCH   8  11
ATOM     11  C   UNL     1      -1.858  11.323  18.087  0.00  0.00    +0.000 A 
ATOM     12  C   UNL     1      -2.933  11.651  18.946  0.00  0.00    +0.000 A 
ATOM     13  C   UNL     1      -4.039  11.685  18.146  0.00  0.00    +0.000 A 
ATOM     14  O   UNL     1      -3.662  11.432  16.861  0.00  0.00    +0.000 OA
ATOM     15  N   UNL     1      -2.280  11.212  16.813  0.00  0.00    +0.000 NA
BRANCH  13  16
ATOM     16  C   UNL     1      -5.433  11.938  18.681  0.00  0.00    +0.000 C 
ATOM     17  C   UNL     1      -6.590  12.054  17.722  0.00  0.00    +0.000 C 
ATOM     18  C   UNL     1      -6.458  10.834  18.567  0.00  0.00    +0.000 C 
ENDBRANCH  13  16
ENDBRANCH   8  11
ENDBRANCH   1   9
BRANCH   4  19
ATOM     19  S   UNL     1       3.192   5.269  19.663  0.00  0.00    +0.000 S 
ATOM     20  O   UNL     1       4.633   5.273  19.507  0.00  0.00    +0.000 OA
ATOM     21  O   UNL     1       2.590   4.791  20.890  0.00  0.00    +0.000 OA
BRANCH  19  22
ATOM     22  C   UNL     1       2.463   4.357  18.293  0.00  0.00    +0.000 C 
ATOM     23  C   UNL     1       1.217   3.593  18.732  0.00  0.00    +0.000 C 
ATOM     24  C   UNL     1       1.724   2.183  18.961  0.00  0.00    +0.000 C 
ATOM     25  N   UNL     1       2.693   1.988  17.877  0.00  0.00    +0.000 NA
ATOM     26  C   UNL     1       3.393   3.283  17.746  0.00  0.00    +0.000 C 
ATOM     27  H   UNL     1       2.186   1.785  17.015  0.00  0.00    +0.000 HD
ENDBRANCH  19  22
ENDBRANCH   4  19
TORSDOF 5
ENDMDL
MODEL 4
REMARK VINA RESULT:      -8.3      1.506      1.866
REMARK  Name = 
REMARK  5 active torsions:
REMARK  status: ('A' for Active; 'I' for Inactive)
REMARK    1  A    between atoms: C_2  and  C_18
REMARK    2  A    between atoms: N_3  and  C_4
REMARK    3  A    between atoms: N_7  and  S_8
REMARK    4  A    between atoms: S_8  and  C_11
REMARK    5  A    between atoms: C_20  and  C_21
REMARK                            x       y       z     vdW  Elec       q    Type
REMARK                         _______ _______ _______ _____ _____    ______ ____
ROOT
ATOM      1  C   UNL     1       7.715   5.935  18.383  0.00  0.00    +0.000 C 
ATOM      2  C   UNL     1       7.050   5.827  16.994  0.00  0.00    +0.000 C 
ATOM      3  C   UNL     1       5.520   5.835  16.969  0.00  0.00    +0.000 C 
ATOM      4  N   UNL     1       4.992   4.934  18.029  0.00  0.00    +0.000 NA
ATOM      5  C   UNL     1       5.371   5.507  19.359  0.00  0.00    +0.000 C 
ATOM      6  C   UNL     1       6.877   5.365  19.536  0.00  0.00    +0.000 C 
ENDROOT
BRANCH   1   9
ATOM      7  O   UNL     1       7.130   8.349  17.005  0.00  0.00    +0.000 OA
ATOM      8  C   UNL     1       7.920   8.389  17.944  0.00  0.00    +0.000 C 
ATOM      9  N   UNL     1       8.256   7.266  18.662  0.00  0.00    +0.000 N 
ATOM     10  H   UNL     1       8.890   7.401  19.448  0.00  0.00    +0.000 HD
BRANCH   8  11
ATOM     11  C   UNL     1       8.553   9.645  18.311  0.00  0.00    +0.000 A 
ATOM     12  C   UNL     1       9.317   9.823  19.488  0.00  0.00    +0.000 A 
ATOM     13  C   UNL     1       9.655  11.146  19.503  0.00  0.00    +0.000 A 
ATOM     14  O   UNL     1       9.163  11.741  18.380  0.00  0.00    +0.000 OA
ATOM     15  N   UNL     1       8.472  10.794  17.614  0.00  0.00    +0.000 NA
BRANCH  13  16
ATOM     16  C   UNL     1      10.429  11.784  20.638  0.00  0.00    +0.000 C 
ATOM     17  C   UNL     1      10.594  13.283  20.678  0.00  0.00    +0.000 C 
ATOM     18  C   UNL     1       9.672  12.620  21.644  0.00  0.00    +0.000 C 
ENDBRANCH  13  16
ENDBRANCH   8  11
ENDBRANCH   1   9
BRANCH   4  19
ATOM     19  S   UNL     1       3.322   4.560  17.929  0.00  0.00    +0.000 S 
ATOM     20  O   UNL     1       2.598   5.813  17.857  0.00  0.00    +0.000 OA
ATOM     21  O   UNL     1       3.174   3.568  16.884  0.00  0.00    +0.000 OA
BRANCH  19  22
ATOM     22  C   UNL     1       2.956   3.769  19.503  0.00  0.00    +0.000 C 
ATOM     23  C   UNL     1       2.424   2.352  19.306  0.00  0.00    +0.000 C 
ATOM     24  C   UNL     1       0.922   2.514  19.421  0.00  0.00    +0.000 C 
ATOM     25  N   UNL     1       0.766   3.506  20.490  0.00  0.00    +0.000 NA
ATOM     26  C   UNL     1       1.854   4.483  20.274  0.00  0.00    +0.000 C 
ATOM     27  H   UNL     1       0.897   3.044  21.390  0.00  0.00    +0.000 HD
ENDBRANCH  19  22
ENDBRANCH   4  19
TORSDOF 5
ENDMDL
MODEL 5
REMARK VINA RESULT:      -8.2      1.014      1.110
REMARK  Name = 
REMARK  5 active torsions:
REMARK  status: ('A' for Active; 'I' for Inactive)
REMARK    1  A    between atoms: C_2  and  C_18
REMARK    2  A    between atoms: N_3  and  C_4
REMARK    3  A    between atoms: N_7  and  S_8
REMARK    4  A    between atoms: S_8  and  C_11
REMARK    5  A    between atoms: C_20  and  C_21
REMARK                            x       y       z     vdW  Elec       q    Type
REMARK                         _______ _______ _______ _____ _____    ______ ____
ROOT
ATOM      1  C   UNL     1       7.156   5.418  16.695  0.00  0.00    +0.000 C 
ATOM      2  C   UNL     1       6.008   5.132  15.704  0.00  0.00    +0.000 C 
ATOM      3  C   UNL     1       4.651   4.776  16.317  0.00  0.00    +0.000 C 
ATOM      4  N   UNL     1       4.837   3.792  17.418  0.00  0.00    +0.000 NA
ATOM      5  C   UNL     1       5.605   4.461  18.515  0.00  0.00    +0.000 C 
ATOM      6  C   UNL     1       7.035   4.683  18.038  0.00  0.00    +0.000 C 
ENDROOT
BRANCH   1   9
ATOM      7  O   UNL     1       8.243   6.724  18.972  0.00  0.00    +0.000 OA
ATOM      8  C   UNL     1       7.980   7.399  17.980  0.00  0.00    +0.000 C 
ATOM      9  N   UNL     1       7.453   6.844  16.839  0.00  0.00    +0.000 N 
ATOM     10  H   UNL     1       7.303   7.474  16.054  0.00  0.00    +0.000 HD
BRANCH   8  11
ATOM     11  C   UNL     1       8.201   8.835  17.998  0.00  0.00    +0.000 A 
ATOM     12  C   UNL     1       9.104   9.479  18.876  0.00  0.00    +0.000 A 
ATOM     13  C   UNL     1       8.954  10.815  18.635  0.00  0.00    +0.000 A 
ATOM     14  O   UNL     1       8.040  10.984  17.638  0.00  0.00    +0.000 OA
ATOM     15  N   UNL     1       7.566   9.734  17.221  0.00  0.00    +0.000 NA
BRANCH  13  16
ATOM     16  C   UNL     1       9.696  11.880  19.416  0.00  0.00    +0.000 C 
ATOM     17  C   UNL     1      10.759  11.475  20.405  0.00  0.00    +0.000 C 
ATOM     18  C   UNL     1      11.159  12.104  19.114  0.00  0.00    +0.000 C 
ENDBRANCH  13  16
ENDBRANCH   8  11
ENDBRANCH   1   9
BRANCH   4  19
ATOM     19  S   UNL     1       3.411   3.030  17.988  0.00  0.00    +0.000 S 
ATOM     20  O   UNL     1       2.333   3.395  17.091  0.00  0.00    +0.000 OA
ATOM     21  O   UNL     1       3.737   1.636  18.211  0.00  0.00    +0.000 OA
BRANCH  19  22
ATOM     22  C   UNL     1       3.116   3.795  19.590  0.00  0.00    +0.000 C 
ATOM     23  C   UNL     1       2.690   2.765  20.631  0.00  0.00    +0.000 C 
ATOM     24  C   UNL     1       1.180   2.896  20.667  0.00  0.00    +0.000 C 
ATOM     25  N   UNL     1       0.960   4.340  20.533  0.00  0.00    +0.000 NA
ATOM     26  C   UNL     1       1.971   4.798  19.557  0.00  0.00    +0.000 C 
ATOM     27  H   UNL     1       1.132   4.785  21.436  0.00  0.00    +0.000 HD
ENDBRANCH  19  22
ENDBRANCH   4  19
TORSDOF 5
ENDMDL
MODEL 6
REMARK VINA RESULT:      -8.2      1.133      1.304
REMARK  Name = 
REMARK  5 active torsions:
REMARK  status: ('A' for Active; 'I' for Inactive)
REMARK    1  A    between atoms: C_2  and  C_18
REMARK    2  A    between atoms: N_3  and  C_4
REMARK    3  A    between atoms: N_7  and  S_8
REMARK    4  A    between atoms: S_8  and  C_11
REMARK    5  A    between atoms: C_20  and  C_21
REMARK                            x       y       z     vdW  Elec       q    Type
REMARK                         _______ _______ _______ _____ _____    ______ ____
ROOT
ATOM      1  C   UNL     1       6.826   6.278  16.550  0.00  0.00    +0.000 C 
ATOM      2  C   UNL     1       5.311   6.255  16.253  0.00  0.00    +0.000 C 
ATOM      3  C   UNL     1       4.420   5.601  17.311  0.00  0.00    +0.000 C 
ATOM      4  N   UNL     1       5.027   4.319  17.761  0.00  0.00    +0.000 NA
ATOM      5  C   UNL     1       6.311   4.633  18.463  0.00  0.00    +0.000 C 
ATOM      6  C   UNL     1       7.319   5.121  17.430  0.00  0.00    +0.000 C 
ENDROOT
BRANCH   1   9
ATOM      7  O   UNL     1       8.398   6.847  18.846  0.00  0.00    +0.000 OA
ATOM      8  C   UNL     1       8.067   7.779  18.118  0.00  0.00    +0.000 C 
ATOM      9  N   UNL     1       7.309   7.588  16.988  0.00  0.00    +0.000 N 
ATOM     10  H   UNL     1       7.115   8.413  16.425  0.00  0.00    +0.000 HD
BRANCH   8  11
ATOM     11  C   UNL     1       8.457   9.138  18.453  0.00  0.00    +0.000 A 
ATOM     12  C   UNL     1       8.324  10.233  17.567  0.00  0.00    +0.000 A 
ATOM     13  C   UNL     1       8.875  11.297  18.221  0.00  0.00    +0.000 A 
ATOM     14  O   UNL     1       9.288  10.893  19.455  0.00  0.00    +0.000 OA
ATOM     15  N   UNL     1       9.017   9.528  19.615  0.00  0.00    +0.000 NA
BRANCH  13  16
ATOM     16  C   UNL     1       9.001  12.672  17.596  0.00  0.00    +0.000 C 
ATOM     17  C   UNL     1       9.622  13.796  18.385  0.00  0.00    +0.000 C 
ATOM     18  C   UNL     1      10.381  13.184  17.258  0.00  0.00    +0.000 C 
ENDBRANCH  13  16
ENDBRANCH   8  11
ENDBRANCH   1   9
BRANCH   4  19
ATOM     19  S   UNL     1       4.009   3.294  18.685  0.00  0.00    +0.000 S 
ATOM     20  O   UNL     1       3.406   2.341  17.775  0.00  0.00    +0.000 OA
ATOM     21  O   UNL     1       4.789   2.833  19.816  0.00  0.00    +0.000 OA
BRANCH  19  22
ATOM     22  C   UNL     1       2.727   4.394  19.306  0.00  0.00    +0.000 C 
ATOM     23  C   UNL     1       2.745   4.469  20.830  0.00  0.00    +0.000 C 
ATOM     24  C   UNL     1       1.652   3.507  21.248  0.00  0.00    +0.000 C 
ATOM     25  N   UNL     1       0.605   3.722  20.244  0.00  0.00    +0.000 NA
ATOM     26  C   UNL     1       1.325   3.907  18.967  0.00  0.00    +0.000 C 
ATOM     27  H   UNL     1       0.096   4.575  20.475  0.00  0.00    +0.000 HD
ENDBRANCH  19  22
ENDBRANCH   4  19
TORSDOF 5
ENDMDL
MODEL 7
REMARK VINA RESULT:      -8.2      1.800      2.210
REMARK  Name = 
REMARK  5 active torsions:
REMARK  status: ('A' for Active; 'I' for Inactive)
REMARK    1  A    between atoms: C_2  and  C_18
REMARK    2  A    between atoms: N_3  and  C_4
REMARK    3  A    between atoms: N_7  and  S_8
REMARK    4  A    between atoms: S_8  and  C_11
REMARK    5  A    between atoms: C_20  and  C_21
REMARK                            x       y       z     vdW  Elec       q    Type
REMARK                         _______ _______ _______ _____ _____    ______ ____
ROOT
ATOM      1  C   UNL     1       7.696   5.833  18.466  0.00  0.00    +0.000 C 
ATOM      2  C   UNL     1       7.089   5.710  17.052  0.00  0.00    +0.000 C 
ATOM      3  C   UNL     1       5.561   5.733  16.962  0.00  0.00    +0.000 C 
ATOM      4  N   UNL     1       4.980   4.853  18.011  0.00  0.00    +0.000 NA
ATOM      5  C   UNL     1       5.308   5.443  19.348  0.00  0.00    +0.000 C 
ATOM      6  C   UNL     1       6.804   5.288  19.590  0.00  0.00    +0.000 C 
ENDROOT
BRANCH   1   9
ATOM      7  O   UNL     1       7.264   8.214  16.977  0.00  0.00    +0.000 OA
ATOM      8  C   UNL     1       7.979   8.268  17.973  0.00  0.00    +0.000 C 
ATOM      9  N   UNL     1       8.237   7.163  18.748  0.00  0.00    +0.000 N 
ATOM     10  H   UNL     1       8.811   7.311  19.576  0.00  0.00    +0.000 HD
BRANCH   8  11
ATOM     11  C   UNL     1       8.605   9.525  18.353  0.00  0.00    +0.000 A 
ATOM     12  C   UNL     1       8.544  10.699  17.567  0.00  0.00    +0.000 A 
ATOM     13  C   UNL     1       9.317  11.614  18.222  0.00  0.00    +0.000 A 
ATOM     14  O   UNL     1       9.795  11.050  19.367  0.00  0.00    +0.000 OA
ATOM     15  N   UNL     1       9.339   9.729  19.463  0.00  0.00    +0.000 NA
BRANCH  13  16
ATOM     16  C   UNL     1       9.582  13.005  17.683  0.00  0.00    +0.000 C 
ATOM     17  C   UNL     1      10.536  13.918  18.410  0.00  0.00    +0.000 C 
ATOM     18  C   UNL     1      10.948  13.307  17.114  0.00  0.00    +0.000 C 
ENDBRANCH  13  16
ENDBRANCH   8  11
ENDBRANCH   1   9
BRANCH   4  19
ATOM     19  S   UNL     1       3.311   4.493  17.846  0.00  0.00    +0.000 S 
ATOM     20  O   UNL     1       2.590   5.750  17.872  0.00  0.00    +0.000 OA
ATOM     21  O   UNL     1       3.183   3.598  16.714  0.00  0.00    +0.000 OA
BRANCH  19  22
ATOM     22  C   UNL     1       2.914   3.566  19.337  0.00  0.00    +0.000 C 
ATOM     23  C   UNL     1       2.259   2.229  19.004  0.00  0.00    +0.000 C 
ATOM     24  C   UNL     1       0.779   2.501  19.183  0.00  0.00    +0.000 C 
ATOM     25  N   UNL     1       0.733   3.379  20.358  0.00  0.00    +0.000 NA
ATOM     26  C   UNL     1       1.895   4.280  20.214  0.00  0.00    +0.000 C 
ATOM     27  H   UNL     1       0.843   2.811  21.198  0.00  0.00    +0.000 HD
ENDBRANCH  19  22
ENDBRANCH   4  19
TORSDOF 5
ENDMDL
MODEL 8
REMARK VINA RESULT:      -8.1      6.878      9.107
REMARK  Name = 
REMARK  5 active torsions:
REMARK  status: ('A' for Active; 'I' for Inactive)
REMARK    1  A    between atoms: C_2  and  C_18
REMARK    2  A    between atoms: N_3  and  C_4
REMARK    3  A    between atoms: N_7  and  S_8
REMARK    4  A    between atoms: S_8  and  C_11
REMARK    5  A    between atoms: C_20  and  C_21
REMARK                            x       y       z     vdW  Elec       q    Type
REMARK                         _______ _______ _______ _____ _____    ______ ____
ROOT
ATOM      1  C   UNL     1       1.201   9.496  19.646  0.00  0.00    +0.000 C 
ATOM      2  C   UNL     1       1.765   8.878  18.349  0.00  0.00    +0.000 C 
ATOM      3  C   UNL     1       1.889   7.353  18.318  0.00  0.00    +0.000 C 
ATOM      4  N   UNL     1       2.481   6.869  19.595  0.00  0.00    +0.000 NA
ATOM      5  C   UNL     1       1.514   7.166  20.699  0.00  0.00    +0.000 C 
ATOM      6  C   UNL     1       1.475   8.674  20.913  0.00  0.00    +0.000 C 
ENDROOT
BRANCH   1   9
ATOM      7  O   UNL     1       0.255  12.076  18.926  0.00  0.00    +0.000 OA
ATOM      8  C   UNL     1      -0.568  11.198  19.169  0.00  0.00    +0.000 C 
ATOM      9  N   UNL     1      -0.193   9.924  19.523  0.00  0.00    +0.000 N 
ATOM     10  H   UNL     1      -0.944   9.252  19.669  0.00  0.00    +0.000 HD
BRANCH   8  11
ATOM     11  C   UNL     1      -1.990  11.496  19.110  0.00  0.00    +0.000 A 
ATOM     12  C   UNL     1      -2.849  11.022  18.092  0.00  0.00    +0.000 A 
ATOM     13  C   UNL     1      -4.064  11.588  18.351  0.00  0.00    +0.000 A 
ATOM     14  O   UNL     1      -3.970  12.337  19.486  0.00  0.00    +0.000 OA
ATOM     15  N   UNL     1      -2.661  12.276  19.980  0.00  0.00    +0.000 NA
BRANCH  13  16
ATOM     16  C   UNL     1      -5.270  11.394  17.454  0.00  0.00    +0.000 C 
ATOM     17  C   UNL     1      -6.656  11.564  18.021  0.00  0.00    +0.000 C 
ATOM     18  C   UNL     1      -6.107  12.602  17.104  0.00  0.00    +0.000 C 
ENDBRANCH  13  16
ENDBRANCH   8  11
ENDBRANCH   1   9
BRANCH   4  19
ATOM     19  S   UNL     1       3.003   5.235  19.605  0.00  0.00    +0.000 S 
ATOM     20  O   UNL     1       4.343   5.203  19.055  0.00  0.00    +0.000 OA
ATOM     21  O   UNL     1       2.743   4.718  20.932  0.00  0.00    +0.000 OA
BRANCH  19  22
ATOM     22  C   UNL     1       1.886   4.413  18.458  0.00  0.00    +0.000 C 
ATOM     23  C   UNL     1       0.956   3.444  19.183  0.00  0.00    +0.000 C 
ATOM     24  C   UNL     1       1.617   2.095  18.981  0.00  0.00    +0.000 C 
ATOM     25  N   UNL     1       2.122   2.164  17.606  0.00  0.00    +0.000 NA
ATOM     26  C   UNL     1       2.622   3.546  17.446  0.00  0.00    +0.000 C 
ATOM     27  H   UNL     1       1.347   2.005  16.962  0.00  0.00    +0.000 HD
ENDBRANCH  19  22
ENDBRANCH   4  19
TORSDOF 5
ENDMDL
MODEL 9
REMARK VINA RESULT:      -8.0      1.312      1.618
REMARK  Name = 
REMARK  5 active torsions:
REMARK  status: ('A' for Active; 'I' for Inactive)
REMARK    1  A    between atoms: C_2  and  C_18
REMARK    2  A    between atoms: N_3  and  C_4
REMARK    3  A    between atoms: N_7  and  S_8
REMARK    4  A    between atoms: S_8  and  C_11
REMARK    5  A    between atoms: C_20  and  C_21
REMARK                            x       y       z     vdW  Elec       q    Type
REMARK                         _______ _______ _______ _____ _____    ______ ____
ROOT
ATOM      1  C   UNL     1       6.966   6.242  17.174  0.00  0.00    +0.000 C 
ATOM      2  C   UNL     1       6.031   5.970  15.976  0.00  0.00    +0.000 C 
ATOM      3  C   UNL     1       4.543   5.812  16.295  0.00  0.00    +0.000 C 
ATOM      4  N   UNL     1       4.371   4.933  17.484  0.00  0.00    +0.000 NA
ATOM      5  C   UNL     1       4.960   5.632  18.670  0.00  0.00    +0.000 C 
ATOM      6  C   UNL     1       6.475   5.663  18.508  0.00  0.00    +0.000 C 
ENDROOT
BRANCH   1   9
ATOM      7  O   UNL     1       8.677   7.386  19.132  0.00  0.00    +0.000 OA
ATOM      8  C   UNL     1       8.225   8.114  18.253  0.00  0.00    +0.000 C 
ATOM      9  N   UNL     1       7.392   7.639  17.269  0.00  0.00    +0.000 N 
ATOM     10  H   UNL     1       7.097   8.307  16.560  0.00  0.00    +0.000 HD
BRANCH   8  11
ATOM     11  C   UNL     1       8.547   9.531  18.244  0.00  0.00    +0.000 A 
ATOM     12  C   UNL     1       9.515  10.121  19.091  0.00  0.00    +0.000 A 
ATOM     13  C   UNL     1       9.452  11.461  18.835  0.00  0.00    +0.000 A 
ATOM     14  O   UNL     1       8.528  11.681  17.857  0.00  0.00    +0.000 OA
ATOM     15  N   UNL     1       7.957  10.463  17.470  0.00  0.00    +0.000 NA
BRANCH  13  16
ATOM     16  C   UNL     1      10.287  12.481  19.582  0.00  0.00    +0.000 C 
ATOM     17  C   UNL     1      11.633  12.084  20.133  0.00  0.00    +0.000 C 
ATOM     18  C   UNL     1      11.561  12.976  18.941  0.00  0.00    +0.000 C 
ENDBRANCH  13  16
ENDBRANCH   8  11
ENDBRANCH   1   9
BRANCH   4  19
ATOM     19  S   UNL     1       2.776   4.377  17.777  0.00  0.00    +0.000 S 
ATOM     20  O   UNL     1       1.908   5.537  17.805  0.00  0.00    +0.000 OA
ATOM     21  O   UNL     1       2.526   3.298  16.844  0.00  0.00    +0.000 OA
BRANCH  19  22
ATOM     22  C   UNL     1       2.856   3.673  19.432  0.00  0.00    +0.000 C 
ATOM     23  C   UNL     1       2.382   2.223  19.445  0.00  0.00    +0.000 C 
ATOM     24  C   UNL     1       0.946   2.320  19.921  0.00  0.00    +0.000 C 
ATOM     25  N   UNL     1       0.995   3.371  20.942  0.00  0.00    +0.000 NA
ATOM     26  C   UNL     1       1.934   4.383  20.414  0.00  0.00    +0.000 C 
ATOM     27  H   UNL     1       1.370   2.975  21.805  0.00  0.00    +0.000 HD
ENDBRANCH  19  22
ENDBRANCH   4  19
TORSDOF 5
ENDMDL
