MODEL 1
REMARK VINA RESULT:      -8.4      0.000      0.000
REMARK  Name = 
REMARK  2 active torsions:
REMARK  status: ('A' for Active; 'I' for Inactive)
REMARK    1  A    between atoms: C_4  and  C_5
REMARK    2  A    between atoms: C_9  and  C_10
REMARK                            x       y       z     vdW  Elec       q    Type
REMARK                         _______ _______ _______ _____ _____    ______ ____
ROOT
ATOM      1  C   UNL     1       6.183   4.314  16.125  0.00  0.00    +0.000 A 
ATOM      2  C   UNL     1       7.185   4.517  17.067  0.00  0.00    +0.000 A 
ATOM      3  N   UNL     1       6.973   4.529  18.400  0.00  0.00    +0.000 NA
ATOM      4  N   UNL     1       5.713   4.330  18.874  0.00  0.00    +0.000 NA
ATOM      5  C   UNL     1       4.682   4.118  18.022  0.00  0.00    +0.000 A 
ATOM      6  C   UNL     1       4.897   4.115  16.645  0.00  0.00    +0.000 A 
ENDROOT
BRANCH   1  10
ATOM      7  C   UNL     1       7.028   4.272  11.897  0.00  0.00    +0.000 A 
ATOM      8  C   UNL     1       6.009   3.480  12.414  0.00  0.00    +0.000 A 
ATOM      9  C   UNL     1       5.724   3.509  13.783  0.00  0.00    +0.000 A 
ATOM     10  C   UNL     1       6.461   4.317  14.672  0.00  0.00    +0.000 A 
ATOM     11  C   UNL     1       7.480   5.114  14.118  0.00  0.00    +0.000 A 
ATOM     12  C   UNL     1       7.757   5.096  12.746  0.00  0.00    +0.000 A 
ENDBRANCH   1  10
BRANCH   5  13
ATOM     13  C   UNL     1       3.366   3.882  18.648  0.00  0.00    +0.000 A 
ATOM     14  C   UNL     1       3.062   4.416  19.915  0.00  0.00    +0.000 A 
ATOM     15  C   UNL     1       1.831   4.177  20.535  0.00  0.00    +0.000 A 
ATOM     16  C   UNL     1       0.872   3.395  19.899  0.00  0.00    +0.000 A 
ATOM     17  C   UNL     1       1.140   2.857  18.645  0.00  0.00    +0.000 A 
ATOM     18  C   UNL     1       2.373   3.098  18.027  0.00  0.00    +0.000 A 
ENDBRANCH   5  13
TORSDOF 2
ENDMDL
MODEL 2
REMARK VINA RESULT:      -8.4      0.185      1.142
REMARK  Name = 
REMARK  2 active torsions:
REMARK  status: ('A' for Active; 'I' for Inactive)
REMARK    1  A    between atoms: C_4  and  C_5
REMARK    2  A    between atoms: C_9  and  C_10
REMARK                            x       y       z     vdW  Elec       q    Type
REMARK                         _______ _______ _______ _____ _____    ______ ____
ROOT
ATOM      1  C   UNL     1       6.176   4.278  16.186  0.00  0.00    +0.000 A 
ATOM      2  C   UNL     1       7.161   4.541  17.131  0.00  0.00    +0.000 A 
ATOM      3  N   UNL     1       6.945   4.539  18.463  0.00  0.00    +0.000 NA
ATOM      4  N   UNL     1       5.697   4.263  18.933  0.00  0.00    +0.000 NA
ATOM      5  C   UNL     1       4.684   3.991  18.078  0.00  0.00    +0.000 A 
ATOM      6  C   UNL     1       4.903   4.002  16.701  0.00  0.00    +0.000 A 
ENDROOT
BRANCH   1  10
ATOM      7  C   UNL     1       7.033   4.289  11.960  0.00  0.00    +0.000 A 
ATOM      8  C   UNL     1       6.015   3.488  12.465  0.00  0.00    +0.000 A 
ATOM      9  C   UNL     1       5.726   3.500  13.834  0.00  0.00    +0.000 A 
ATOM     10  C   UNL     1       6.458   4.299  14.734  0.00  0.00    +0.000 A 
ATOM     11  C   UNL     1       7.477   5.106  14.192  0.00  0.00    +0.000 A 
ATOM     12  C   UNL     1       7.758   5.105  12.821  0.00  0.00    +0.000 A 
ENDBRANCH   1  10
BRANCH   5  13
ATOM     13  C   UNL     1       3.382   3.676  18.699  0.00  0.00    +0.000 A 
ATOM     14  C   UNL     1       2.505   2.747  18.105  0.00  0.00    +0.000 A 
ATOM     15  C   UNL     1       1.255   2.460  18.663  0.00  0.00    +0.000 A 
ATOM     16  C   UNL     1       0.851   3.097  19.833  0.00  0.00    +0.000 A 
ATOM     17  C   UNL     1       1.697   4.016  20.445  0.00  0.00    +0.000 A 
ATOM     18  C   UNL     1       2.947   4.301  19.884  0.00  0.00    +0.000 A 
ENDBRANCH   5  13
TORSDOF 2
ENDMDL
MODEL 3
REMARK VINA RESULT:      -8.4      0.176      1.610
REMARK  Name = 
REMARK  2 active torsions:
REMARK  status: ('A' for Active; 'I' for Inactive)
REMARK    1  A    between atoms: C_4  and  C_5
REMARK    2  A    between atoms: C_9  and  C_10
REMARK                            x       y       z     vdW  Elec       q    Type
REMARK                         _______ _______ _______ _____ _____    ______ ____
ROOT
ATOM      1  C   UNL     1       6.197   4.276  16.210  0.00  0.00    +0.000 A 
ATOM      2  C   UNL     1       7.170   4.552  17.164  0.00  0.00    +0.000 A 
ATOM      3  N   UNL     1       6.937   4.564  18.494  0.00  0.00    +0.000 NA
ATOM      4  N   UNL     1       5.685   4.289  18.952  0.00  0.00    +0.000 NA
ATOM      5  C   UNL     1       4.683   4.004  18.088  0.00  0.00    +0.000 A 
ATOM      6  C   UNL     1       4.918   4.001  16.713  0.00  0.00    +0.000 A 
ENDROOT
BRANCH   1  10
ATOM      7  C   UNL     1       7.034   4.344  11.981  0.00  0.00    +0.000 A 
ATOM      8  C   UNL     1       7.776   5.133  12.853  0.00  0.00    +0.000 A 
ATOM      9  C   UNL     1       7.515   5.096  14.227  0.00  0.00    +0.000 A 
ATOM     10  C   UNL     1       6.496   4.282  14.762  0.00  0.00    +0.000 A 
ATOM     11  C   UNL     1       5.769   3.488  13.855  0.00  0.00    +0.000 A 
ATOM     12  C   UNL     1       6.038   3.514  12.482  0.00  0.00    +0.000 A 
ENDBRANCH   1  10
BRANCH   5  13
ATOM     13  C   UNL     1       3.375   3.690  18.696  0.00  0.00    +0.000 A 
ATOM     14  C   UNL     1       2.471   2.820  18.056  0.00  0.00    +0.000 A 
ATOM     15  C   UNL     1       1.216   2.537  18.604  0.00  0.00    +0.000 A 
ATOM     16  C   UNL     1       0.833   3.120  19.808  0.00  0.00    +0.000 A 
ATOM     17  C   UNL     1       1.705   3.980  20.466  0.00  0.00    +0.000 A 
ATOM     18  C   UNL     1       2.961   4.262  19.916  0.00  0.00    +0.000 A 
ENDBRANCH   5  13
TORSDOF 2
ENDMDL
MODEL 4
REMARK VINA RESULT:      -8.3      0.213      1.152
REMARK  Name = 
REMARK  2 active torsions:
REMARK  status: ('A' for Active; 'I' for Inactive)
REMARK    1  A    between atoms: C_4  and  C_5
REMARK    2  A    between atoms: C_9  and  C_10
REMARK                            x       y       z     vdW  Elec       q    Type
REMARK                         _______ _______ _______ _____ _____    ______ ____
ROOT
ATOM      1  C   UNL     1       6.251   4.350  16.199  0.00  0.00    +0.000 A 
ATOM      2  C   UNL     1       7.269   4.527  17.130  0.00  0.00    +0.000 A 
ATOM      3  N   UNL     1       7.069   4.570  18.464  0.00  0.00    +0.000 NA
ATOM      4  N   UNL     1       5.806   4.431  18.951  0.00  0.00    +0.000 NA
ATOM      5  C   UNL     1       4.760   4.248  18.112  0.00  0.00    +0.000 A 
ATOM      6  C   UNL     1       4.962   4.213  16.733  0.00  0.00    +0.000 A 
ENDROOT
BRANCH   1  10
ATOM      7  C   UNL     1       6.990   4.303  11.951  0.00  0.00    +0.000 A 
ATOM      8  C   UNL     1       7.767   5.097  12.788  0.00  0.00    +0.000 A 
ATOM      9  C   UNL     1       7.537   5.097  14.167  0.00  0.00    +0.000 A 
ATOM     10  C   UNL     1       6.516   4.316  14.744  0.00  0.00    +0.000 A 
ATOM     11  C   UNL     1       5.753   3.516  13.874  0.00  0.00    +0.000 A 
ATOM     12  C   UNL     1       5.989   3.506  12.494  0.00  0.00    +0.000 A 
ENDBRANCH   1  10
BRANCH   5  13
ATOM     13  C   UNL     1       3.440   4.077  18.751  0.00  0.00    +0.000 A 
ATOM     14  C   UNL     1       3.109   4.784  19.923  0.00  0.00    +0.000 A 
ATOM     15  C   UNL     1       1.875   4.611  20.559  0.00  0.00    +0.000 A 
ATOM     16  C   UNL     1       0.940   3.723  20.035  0.00  0.00    +0.000 A 
ATOM     17  C   UNL     1       1.236   3.014  18.877  0.00  0.00    +0.000 A 
ATOM     18  C   UNL     1       2.472   3.189  18.243  0.00  0.00    +0.000 A 
ENDBRANCH   5  13
TORSDOF 2
ENDMDL
MODEL 5
REMARK VINA RESULT:      -8.2      0.635      6.509
REMARK  Name = 
REMARK  2 active torsions:
REMARK  status: ('A' for Active; 'I' for Inactive)
REMARK    1  A    between atoms: C_4  and  C_5
REMARK    2  A    between atoms: C_9  and  C_10
REMARK                            x       y       z     vdW  Elec       q    Type
REMARK                         _______ _______ _______ _____ _____    ______ ____
ROOT
ATOM      1  C   UNL     1       4.895   4.355  18.005  0.00  0.00    +0.000 A 
ATOM      2  C   UNL     1       6.054   4.589  18.736  0.00  0.00    +0.000 A 
ATOM      3  N   UNL     1       7.279   4.719  18.183  0.00  0.00    +0.000 NA
ATOM      4  N   UNL     1       7.411   4.623  16.832  0.00  0.00    +0.000 NA
ATOM      5  C   UNL     1       6.330   4.402  16.048  0.00  0.00    +0.000 A 
ATOM      6  C   UNL     1       5.065   4.258  16.617  0.00  0.00    +0.000 A 
ENDROOT
BRANCH   1  10
ATOM      7  C   UNL     1       1.024   3.985  19.868  0.00  0.00    +0.000 A 
ATOM      8  C   UNL     1       1.255   3.424  18.617  0.00  0.00    +0.000 A 
ATOM      9  C   UNL     1       2.516   3.529  18.022  0.00  0.00    +0.000 A 
ATOM     10  C   UNL     1       3.574   4.212  18.655  0.00  0.00    +0.000 A 
ATOM     11  C   UNL     1       3.313   4.761  19.924  0.00  0.00    +0.000 A 
ATOM     12  C   UNL     1       2.055   4.646  20.526  0.00  0.00    +0.000 A 
ENDBRANCH   1  10
BRANCH   5  13
ATOM     13  C   UNL     1       6.586   4.348  14.594  0.00  0.00    +0.000 A 
ATOM     14  C   UNL     1       7.560   5.174  14.001  0.00  0.00    +0.000 A 
ATOM     15  C   UNL     1       7.793   5.157  12.622  0.00  0.00    +0.000 A 
ATOM     16  C   UNL     1       7.055   4.309  11.802  0.00  0.00    +0.000 A 
ATOM     17  C   UNL     1       6.090   3.478  12.358  0.00  0.00    +0.000 A 
ATOM     18  C   UNL     1       5.858   3.497  13.739  0.00  0.00    +0.000 A 
ENDBRANCH   5  13
TORSDOF 2
ENDMDL
MODEL 6
REMARK VINA RESULT:      -8.2      0.584      6.581
REMARK  Name = 
REMARK  2 active torsions:
REMARK  status: ('A' for Active; 'I' for Inactive)
REMARK    1  A    between atoms: C_4  and  C_5
REMARK    2  A    between atoms: C_9  and  C_10
REMARK                            x       y       z     vdW  Elec       q    Type
REMARK                         _______ _______ _______ _____ _____    ______ ____
ROOT
ATOM      1  C   UNL     1       4.821   4.333  17.991  0.00  0.00    +0.000 A 
ATOM      2  C   UNL     1       5.966   4.587  18.736  0.00  0.00    +0.000 A 
ATOM      3  N   UNL     1       7.196   4.734  18.200  0.00  0.00    +0.000 NA
ATOM      4  N   UNL     1       7.348   4.635  16.850  0.00  0.00    +0.000 NA
ATOM      5  C   UNL     1       6.281   4.396  16.053  0.00  0.00    +0.000 A 
ATOM      6  C   UNL     1       5.011   4.234  16.606  0.00  0.00    +0.000 A 
ENDROOT
BRANCH   1  10
ATOM      7  C   UNL     1       0.973   3.814  19.866  0.00  0.00    +0.000 A 
ATOM      8  C   UNL     1       1.981   4.514  20.520  0.00  0.00    +0.000 A 
ATOM      9  C   UNL     1       3.222   4.697  19.902  0.00  0.00    +0.000 A 
ATOM     10  C   UNL     1       3.494   4.172  18.623  0.00  0.00    +0.000 A 
ATOM     11  C   UNL     1       2.451   3.475  17.983  0.00  0.00    +0.000 A 
ATOM     12  C   UNL     1       1.204   3.302  18.595  0.00  0.00    +0.000 A 
ENDBRANCH   1  10
BRANCH   5  13
ATOM     13  C   UNL     1       6.557   4.339  14.603  0.00  0.00    +0.000 A 
ATOM     14  C   UNL     1       7.539   5.166  14.023  0.00  0.00    +0.000 A 
ATOM     15  C   UNL     1       7.791   5.148  12.647  0.00  0.00    +0.000 A 
ATOM     16  C   UNL     1       7.066   4.299  11.817  0.00  0.00    +0.000 A 
ATOM     17  C   UNL     1       6.093   3.468  12.361  0.00  0.00    +0.000 A 
ATOM     18  C   UNL     1       5.842   3.488  13.738  0.00  0.00    +0.000 A 
ENDBRANCH   5  13
TORSDOF 2
ENDMDL
MODEL 7
REMARK VINA RESULT:      -8.2      0.582      6.582
REMARK  Name = 
REMARK  2 active torsions:
REMARK  status: ('A' for Active; 'I' for Inactive)
REMARK    1  A    between atoms: C_4  and  C_5
REMARK    2  A    between atoms: C_9  and  C_10
REMARK                            x       y       z     vdW  Elec       q    Type
REMARK                         _______ _______ _______ _____ _____    ______ ____
ROOT
ATOM      1  C   UNL     1       4.814   4.219  17.916  0.00  0.00    +0.000 A 
ATOM      2  C   UNL     1       5.958   4.460  18.667  0.00  0.00    +0.000 A 
ATOM      3  N   UNL     1       7.185   4.637  18.134  0.00  0.00    +0.000 NA
ATOM      4  N   UNL     1       7.336   4.584  16.782  0.00  0.00    +0.000 NA
ATOM      5  C   UNL     1       6.270   4.360  15.979  0.00  0.00    +0.000 A 
ATOM      6  C   UNL     1       5.003   4.167  16.528  0.00  0.00    +0.000 A 
ENDROOT
BRANCH   1  10
ATOM      7  C   UNL     1       0.936   3.701  19.728  0.00  0.00    +0.000 A 
ATOM      8  C   UNL     1       1.137   3.356  18.396  0.00  0.00    +0.000 A 
ATOM      9  C   UNL     1       2.401   3.507  17.815  0.00  0.00    +0.000 A 
ATOM     10  C   UNL     1       3.490   4.023  18.545  0.00  0.00    +0.000 A 
ATOM     11  C   UNL     1       3.258   4.355  19.893  0.00  0.00    +0.000 A 
ATOM     12  C   UNL     1       1.997   4.192  20.479  0.00  0.00    +0.000 A 
ENDBRANCH   1  10
BRANCH   5  13
ATOM     13  C   UNL     1       6.544   4.355  14.528  0.00  0.00    +0.000 A 
ATOM     14  C   UNL     1       5.847   3.488  13.665  0.00  0.00    +0.000 A 
ATOM     15  C   UNL     1       6.116   3.448  12.293  0.00  0.00    +0.000 A 
ATOM     16  C   UNL     1       7.092   4.279  11.750  0.00  0.00    +0.000 A 
ATOM     17  C   UNL     1       7.794   5.149  12.576  0.00  0.00    +0.000 A 
ATOM     18  C   UNL     1       7.523   5.186  13.949  0.00  0.00    +0.000 A 
ENDBRANCH   5  13
TORSDOF 2
ENDMDL
MODEL 8
REMARK VINA RESULT:      -8.1      0.605      6.653
REMARK  Name = 
REMARK  2 active torsions:
REMARK  status: ('A' for Active; 'I' for Inactive)
REMARK    1  A    between atoms: C_4  and  C_5
REMARK    2  A    between atoms: C_9  and  C_10
REMARK                            x       y       z     vdW  Elec       q    Type
REMARK                         _______ _______ _______ _____ _____    ______ ____
ROOT
ATOM      1  C   UNL     1       4.804   4.268  18.012  0.00  0.00    +0.000 A 
ATOM      2  C   UNL     1       5.964   4.441  18.759  0.00  0.00    +0.000 A 
ATOM      3  N   UNL     1       7.195   4.562  18.220  0.00  0.00    +0.000 NA
ATOM      4  N   UNL     1       7.335   4.518  16.867  0.00  0.00    +0.000 NA
ATOM      5  C   UNL     1       6.254   4.359  16.068  0.00  0.00    +0.000 A 
ATOM      6  C   UNL     1       4.982   4.224  16.623  0.00  0.00    +0.000 A 
ENDROOT
BRANCH   1  10
ATOM      7  C   UNL     1       0.957   3.844  19.911  0.00  0.00    +0.000 A 
ATOM      8  C   UNL     1       1.795   4.898  20.256  0.00  0.00    +0.000 A 
ATOM      9  C   UNL     1       3.034   5.045  19.626  0.00  0.00    +0.000 A 
ATOM     10  C   UNL     1       3.476   4.132  18.647  0.00  0.00    +0.000 A 
ATOM     11  C   UNL     1       2.602   3.081  18.313  0.00  0.00    +0.000 A 
ATOM     12  C   UNL     1       1.356   2.940  18.933  0.00  0.00    +0.000 A 
ENDBRANCH   1  10
BRANCH   5  13
ATOM     13  C   UNL     1       6.519   4.358  14.615  0.00  0.00    +0.000 A 
ATOM     14  C   UNL     1       5.797   3.512  13.750  0.00  0.00    +0.000 A 
ATOM     15  C   UNL     1       6.057   3.477  12.376  0.00  0.00    +0.000 A 
ATOM     16  C   UNL     1       7.048   4.289  11.833  0.00  0.00    +0.000 A 
ATOM     17  C   UNL     1       7.775   5.137  12.661  0.00  0.00    +0.000 A 
ATOM     18  C   UNL     1       7.513   5.171  14.036  0.00  0.00    +0.000 A 
ENDBRANCH   5  13
TORSDOF 2
ENDMDL
MODEL 9
REMARK VINA RESULT:      -8.0      1.275      6.689
REMARK  Name = 
REMARK  2 active torsions:
REMARK  status: ('A' for Active; 'I' for Inactive)
REMARK    1  A    between atoms: C_4  and  C_5
REMARK    2  A    between atoms: C_9  and  C_10
REMARK                            x       y       z     vdW  Elec       q    Type
REMARK                         _______ _______ _______ _____ _____    ______ ____
ROOT
ATOM      1  C   UNL     1       3.907   5.026  17.582  0.00  0.00    +0.000 A 
ATOM      2  C   UNL     1       4.481   6.219  18.008  0.00  0.00    +0.000 A 
ATOM      3  N   UNL     1       5.467   6.859  17.345  0.00  0.00    +0.000 NA
ATOM      4  N   UNL     1       5.942   6.326  16.186  0.00  0.00    +0.000 NA
ATOM      5  C   UNL     1       5.431   5.171  15.699  0.00  0.00    +0.000 A 
ATOM      6  C   UNL     1       4.420   4.503  16.387  0.00  0.00    +0.000 A 
ENDROOT
BRANCH   1  10
ATOM      7  C   UNL     1       0.818   3.041  19.841  0.00  0.00    +0.000 A 
ATOM      8  C   UNL     1       1.467   4.152  20.370  0.00  0.00    +0.000 A 
ATOM      9  C   UNL     1       2.455   4.805  19.627  0.00  0.00    +0.000 A 
ATOM     10  C   UNL     1       2.833   4.356  18.347  0.00  0.00    +0.000 A 
ATOM     11  C   UNL     1       2.153   3.235  17.835  0.00  0.00    +0.000 A 
ATOM     12  C   UNL     1       1.154   2.588  18.571  0.00  0.00    +0.000 A 
ENDBRANCH   1  10
BRANCH   5  13
ATOM     13  C   UNL     1       5.999   4.703  14.418  0.00  0.00    +0.000 A 
ATOM     14  C   UNL     1       7.229   5.202  13.949  0.00  0.00    +0.000 A 
ATOM     15  C   UNL     1       7.766   4.792  12.724  0.00  0.00    +0.000 A 
ATOM     16  C   UNL     1       7.082   3.869  11.938  0.00  0.00    +0.000 A 
ATOM     17  C   UNL     1       5.867   3.355  12.376  0.00  0.00    +0.000 A 
ATOM     18  C   UNL     1       5.332   3.768  13.603  0.00  0.00    +0.000 A 
ENDBRANCH   5  13
TORSDOF 2
ENDMDL
