MODEL 1
REMARK VINA RESULT:      -7.8      0.000      0.000
REMARK  Name = 
REMARK  4 active torsions:
REMARK  status: ('A' for Active; 'I' for Inactive)
REMARK    1  A    between atoms: C_2  and  O_3
REMARK    2  A    between atoms: C_2  and  C_4
REMARK    3  A    between atoms: C_7  and  N_8
REMARK    4  A    between atoms: N_11  and  C_12
REMARK                            x       y       z     vdW  Elec       q    Type
REMARK                         _______ _______ _______ _____ _____    ______ ____
ROOT
ATOM      1  N   UNL     1       3.704   7.109  17.993  0.00  0.00    +0.000 N 
ATOM      2  N   UNL     1       3.159   5.975  17.616  0.00  0.00    +0.000 NA
ATOM      3  C   UNL     1       4.071   5.204  18.118  0.00  0.00    +0.000 A 
ATOM      4  N   UNL     1       3.998   4.306  19.075  0.00  0.00    +0.000 N 
ATOM      5  C   UNL     1       5.127   5.443  17.332  0.00  0.00    +0.000 A 
ATOM      6  C   UNL     1       5.913   4.358  16.742  0.00  0.00    +0.000 A 
ATOM      7  C   UNL     1       7.049   4.476  16.029  0.00  0.00    +0.000 A 
ATOM      8  C   UNL     1       7.421   5.772  16.015  0.00  0.00    +0.000 A 
ATOM      9  C   UNL     1       6.588   6.881  16.658  0.00  0.00    +0.000 A 
ATOM     10  C   UNL     1       5.185   7.012  17.308  0.00  0.00    +0.000 A 
ATOM     11  H   UNL     1       4.655   4.364  19.847  0.00  0.00    +0.000 HD
ENDROOT
BRANCH   4  12
ATOM     12  C   UNL     1       2.817   3.606  19.304  0.00  0.00    +0.000 A 
ATOM     13  C   UNL     1       2.579   2.427  18.578  0.00  0.00    +0.000 A 
ATOM     14 CL   UNL     1       3.763   1.743  17.507  0.00  0.00    +0.000 Cl
ATOM     15  C   UNL     1       1.357   1.784  18.705  0.00  0.00    +0.000 A 
ATOM     16  C   UNL     1       0.460   2.185  19.690  0.00  0.00    +0.000 A 
ATOM     17  C   UNL     1       0.745   3.251  20.513  0.00  0.00    +0.000 A 
ATOM     18  C   UNL     1       1.868   4.011  20.283  0.00  0.00    +0.000 A 
ATOM     19 CL   UNL     1       1.797   5.492  21.211  0.00  0.00    +0.000 Cl
ENDBRANCH   4  12
BRANCH   1  23
ATOM     20  C   UNL     1       0.605  10.173  19.841  0.00  0.00    +0.000 A 
ATOM     21  C   UNL     1       1.016  10.442  18.548  0.00  0.00    +0.000 A 
ATOM     22  C   UNL     1       1.905   9.431  17.817  0.00  0.00    +0.000 A 
ATOM     23  C   UNL     1       2.396   8.073  18.383  0.00  0.00    +0.000 A 
ATOM     24  C   UNL     1       1.964   7.989  19.683  0.00  0.00    +0.000 A 
ATOM     25  C   UNL     1       1.124   8.993  20.363  0.00  0.00    +0.000 A 
BRANCH  20  27
ATOM     26  O   UNL     1      -1.218  11.636  20.359  0.00  0.00    +0.000 OA
ATOM     27  C   UNL     1      -0.242  11.020  20.767  0.00  0.00    +0.000 C 
BRANCH  27  28
ATOM     28  O   UNL     1       0.216  11.201  22.028  0.00  0.00    +0.000 OA
ATOM     29  H   UNL     1       0.871  11.900  22.198  0.00  0.00    +0.000 HD
ENDBRANCH  27  28
ENDBRANCH  20  27
ENDBRANCH   1  23
TORSDOF 4
ENDMDL
MODEL 2
REMARK VINA RESULT:      -7.6      0.235      1.801
REMARK  Name = 
REMARK  4 active torsions:
REMARK  status: ('A' for Active; 'I' for Inactive)
REMARK    1  A    between atoms: C_2  and  O_3
REMARK    2  A    between atoms: C_2  and  C_4
REMARK    3  A    between atoms: C_7  and  N_8
REMARK    4  A    between atoms: N_11  and  C_12
REMARK                            x       y       z     vdW  Elec       q    Type
REMARK                         _______ _______ _______ _____ _____    ______ ____
ROOT
ATOM      1  N   UNL     1       3.679   7.145  18.167  0.00  0.00    +0.000 N 
ATOM      2  N   UNL     1       3.188   6.000  17.752  0.00  0.00    +0.000 NA
ATOM      3  C   UNL     1       4.099   5.251  18.287  0.00  0.00    +0.000 A 
ATOM      4  N   UNL     1       4.010   4.339  19.229  0.00  0.00    +0.000 N 
ATOM      5  C   UNL     1       5.183   5.532  17.554  0.00  0.00    +0.000 A 
ATOM      6  C   UNL     1       6.029   4.479  16.989  0.00  0.00    +0.000 A 
ATOM      7  C   UNL     1       7.193   4.642  16.331  0.00  0.00    +0.000 A 
ATOM      8  C   UNL     1       7.523   5.949  16.349  0.00  0.00    +0.000 A 
ATOM      9  C   UNL     1       6.627   7.023  16.966  0.00  0.00    +0.000 A 
ATOM     10  C   UNL     1       5.193   7.103  17.552  0.00  0.00    +0.000 A 
ATOM     11  H   UNL     1       4.628   4.406  20.032  0.00  0.00    +0.000 HD
ENDROOT
BRANCH   4  12
ATOM     12  C   UNL     1       2.842   3.600  19.394  0.00  0.00    +0.000 A 
ATOM     13  C   UNL     1       1.943   3.974  20.406  0.00  0.00    +0.000 A 
ATOM     14 CL   UNL     1       2.171   5.402  21.368  0.00  0.00    +0.000 Cl
ATOM     15  C   UNL     1       0.836   3.178  20.662  0.00  0.00    +0.000 A 
ATOM     16  C   UNL     1       0.512   2.139  19.795  0.00  0.00    +0.000 A 
ATOM     17  C   UNL     1       1.306   1.853  18.708  0.00  0.00    +0.000 A 
ATOM     18  C   UNL     1       2.501   2.513  18.541  0.00  0.00    +0.000 A 
ATOM     19 CL   UNL     1       3.470   1.714  17.323  0.00  0.00    +0.000 Cl
ENDBRANCH   4  12
BRANCH   1  23
ATOM     20  C   UNL     1       0.440  10.167  19.836  0.00  0.00    +0.000 A 
ATOM     21  C   UNL     1       0.819  10.361  18.521  0.00  0.00    +0.000 A 
ATOM     22  C   UNL     1       1.753   9.348  17.851  0.00  0.00    +0.000 A 
ATOM     23  C   UNL     1       2.326   8.064  18.507  0.00  0.00    +0.000 A 
ATOM     24  C   UNL     1       1.915   8.053  19.817  0.00  0.00    +0.000 A 
ATOM     25  C   UNL     1       1.030   9.059  20.435  0.00  0.00    +0.000 A 
BRANCH  20  27
ATOM     26  O   UNL     1      -1.476  11.531  20.287  0.00  0.00    +0.000 OA
ATOM     27  C   UNL     1      -0.440  11.034  20.712  0.00  0.00    +0.000 C 
BRANCH  27  28
ATOM     28  O   UNL     1       0.043  11.371  21.930  0.00  0.00    +0.000 OA
ATOM     29  H   UNL     1       0.737  10.821  22.333  0.00  0.00    +0.000 HD
ENDBRANCH  27  28
ENDBRANCH  20  27
ENDBRANCH   1  23
TORSDOF 4
ENDMDL
MODEL 3
REMARK VINA RESULT:      -7.5      0.883      1.422
REMARK  Name = 
REMARK  4 active torsions:
REMARK  status: ('A' for Active; 'I' for Inactive)
REMARK    1  A    between atoms: C_2  and  O_3
REMARK    2  A    between atoms: C_2  and  C_4
REMARK    3  A    between atoms: C_7  and  N_8
REMARK    4  A    between atoms: N_11  and  C_12
REMARK                            x       y       z     vdW  Elec       q    Type
REMARK                         _______ _______ _______ _____ _____    ______ ____
ROOT
ATOM      1  N   UNL     1       3.856   6.970  17.836  0.00  0.00    +0.000 N 
ATOM      2  N   UNL     1       3.077   5.954  17.546  0.00  0.00    +0.000 NA
ATOM      3  C   UNL     1       3.939   5.029  17.824  0.00  0.00    +0.000 A 
ATOM      4  N   UNL     1       3.920   4.093  18.748  0.00  0.00    +0.000 N 
ATOM      5  C   UNL     1       4.840   5.158  16.844  0.00  0.00    +0.000 A 
ATOM      6  C   UNL     1       5.313   4.008  16.070  0.00  0.00    +0.000 A 
ATOM      7  C   UNL     1       6.288   4.002  15.141  0.00  0.00    +0.000 A 
ATOM      8  C   UNL     1       6.846   5.228  15.090  0.00  0.00    +0.000 A 
ATOM      9  C   UNL     1       6.342   6.405  15.925  0.00  0.00    +0.000 A 
ATOM     10  C   UNL     1       5.136   6.700  16.856  0.00  0.00    +0.000 A 
ATOM     11  H   UNL     1       4.719   4.007  19.368  0.00  0.00    +0.000 HD
ENDROOT
BRANCH   4  12
ATOM     12  C   UNL     1       2.715   3.561  19.195  0.00  0.00    +0.000 A 
ATOM     13  C   UNL     1       2.109   2.537  18.448  0.00  0.00    +0.000 A 
ATOM     14 CL   UNL     1       2.876   1.823  17.063  0.00  0.00    +0.000 Cl
ATOM     15  C   UNL     1       0.852   2.080  18.812  0.00  0.00    +0.000 A 
ATOM     16  C   UNL     1       0.288   2.485  20.019  0.00  0.00    +0.000 A 
ATOM     17  C   UNL     1       0.941   3.378  20.839  0.00  0.00    +0.000 A 
ATOM     18  C   UNL     1       2.101   3.977  20.410  0.00  0.00    +0.000 A 
ATOM     19 CL   UNL     1       2.512   5.319  21.455  0.00  0.00    +0.000 Cl
ENDBRANCH   4  12
BRANCH   1  23
ATOM     20  C   UNL     1       0.235   9.718  19.155  0.00  0.00    +0.000 A 
ATOM     21  C   UNL     1       0.761   8.905  20.142  0.00  0.00    +0.000 A 
ATOM     22  C   UNL     1       2.023   8.088  19.848  0.00  0.00    +0.000 A 
ATOM     23  C   UNL     1       2.820   8.090  18.518  0.00  0.00    +0.000 A 
ATOM     24  C   UNL     1       2.139   8.885  17.631  0.00  0.00    +0.000 A 
ATOM     25  C   UNL     1       0.912   9.642  17.942  0.00  0.00    +0.000 A 
BRANCH  20  27
ATOM     26  O   UNL     1      -1.147  11.460  20.045  0.00  0.00    +0.000 OA
ATOM     27  C   UNL     1      -1.004  10.588  19.197  0.00  0.00    +0.000 C 
BRANCH  27  28
ATOM     28  O   UNL     1      -2.018  10.257  18.363  0.00  0.00    +0.000 OA
ATOM     29  H   UNL     1      -1.928   9.471  17.798  0.00  0.00    +0.000 HD
ENDBRANCH  27  28
ENDBRANCH  20  27
ENDBRANCH   1  23
TORSDOF 4
ENDMDL
MODEL 4
REMARK VINA RESULT:      -7.3      4.876      8.521
REMARK  Name = 
REMARK  4 active torsions:
REMARK  status: ('A' for Active; 'I' for Inactive)
REMARK    1  A    between atoms: C_2  and  O_3
REMARK    2  A    between atoms: C_2  and  C_4
REMARK    3  A    between atoms: C_7  and  N_8
REMARK    4  A    between atoms: N_11  and  C_12
REMARK                            x       y       z     vdW  Elec       q    Type
REMARK                         _______ _______ _______ _____ _____    ______ ____
ROOT
ATOM      1  N   UNL     1       1.018  11.324  18.786  0.00  0.00    +0.000 N 
ATOM      2  N   UNL     1      -0.112  11.685  19.349  0.00  0.00    +0.000 NA
ATOM      3  C   UNL     1      -0.450  12.553  18.450  0.00  0.00    +0.000 A 
ATOM      4  N   UNL     1      -1.473  12.572  17.624  0.00  0.00    +0.000 N 
ATOM      5  C   UNL     1       0.440  13.533  18.634  0.00  0.00    +0.000 A 
ATOM      6  C   UNL     1       0.035  14.936  18.743  0.00  0.00    +0.000 A 
ATOM      7  C   UNL     1       0.845  16.009  18.821  0.00  0.00    +0.000 A 
ATOM      8  C   UNL     1       2.123  15.600  18.688  0.00  0.00    +0.000 A 
ATOM      9  C   UNL     1       2.513  14.128  18.556  0.00  0.00    +0.000 A 
ATOM     10  C   UNL     1       1.803  12.753  18.667  0.00  0.00    +0.000 A 
ATOM     11  H   UNL     1      -1.295  12.699  16.632  0.00  0.00    +0.000 HD
ENDROOT
BRANCH   4  12
ATOM     12  C   UNL     1      -2.682  11.980  17.975  0.00  0.00    +0.000 A 
ATOM     13  C   UNL     1      -3.244  11.025  17.111  0.00  0.00    +0.000 A 
ATOM     14 CL   UNL     1      -2.419  10.462  15.690  0.00  0.00    +0.000 Cl
ATOM     15  C   UNL     1      -4.504  10.515  17.386  0.00  0.00    +0.000 A 
ATOM     16  C   UNL     1      -5.113  10.790  18.607  0.00  0.00    +0.000 A 
ATOM     17  C   UNL     1      -4.505  11.608  19.532  0.00  0.00    +0.000 A 
ATOM     18  C   UNL     1      -3.343  12.265  19.203  0.00  0.00    +0.000 A 
ATOM     19 CL   UNL     1      -2.991  13.504  20.388  0.00  0.00    +0.000 Cl
ENDBRANCH   4  12
BRANCH   1  23
ATOM     20  C   UNL     1       2.307   6.845  19.611  0.00  0.00    +0.000 A 
ATOM     21  C   UNL     1       1.651   7.481  20.649  0.00  0.00    +0.000 A 
ATOM     22  C   UNL     1       1.070   8.880  20.425  0.00  0.00    +0.000 A 
ATOM     23  C   UNL     1       1.120   9.686  19.100  0.00  0.00    +0.000 A 
ATOM     24  C   UNL     1       1.855   8.955  18.201  0.00  0.00    +0.000 A 
ATOM     25  C   UNL     1       2.418   7.616  18.459  0.00  0.00    +0.000 A 
BRANCH  20  27
ATOM     26  O   UNL     1       2.341   4.453  19.722  0.00  0.00    +0.000 OA
ATOM     27  C   UNL     1       2.982   5.489  19.599  0.00  0.00    +0.000 C 
BRANCH  27  28
ATOM     28  O   UNL     1       4.335   5.474  19.611  0.00  0.00    +0.000 OA
ATOM     29  H   UNL     1       4.801   5.448  20.464  0.00  0.00    +0.000 HD
ENDBRANCH  27  28
ENDBRANCH  20  27
ENDBRANCH   1  23
TORSDOF 4
ENDMDL
MODEL 5
REMARK VINA RESULT:      -7.3      6.492     11.377
REMARK  Name = 
REMARK  4 active torsions:
REMARK  status: ('A' for Active; 'I' for Inactive)
REMARK    1  A    between atoms: C_2  and  O_3
REMARK    2  A    between atoms: C_2  and  C_4
REMARK    3  A    between atoms: C_7  and  N_8
REMARK    4  A    between atoms: N_11  and  C_12
REMARK                            x       y       z     vdW  Elec       q    Type
REMARK                         _______ _______ _______ _____ _____    ______ ____
ROOT
ATOM      1  N   UNL     1      -1.908  12.813  22.934  0.00  0.00    +0.000 N 
ATOM      2  N   UNL     1      -3.175  12.578  23.186  0.00  0.00    +0.000 NA
ATOM      3  C   UNL     1      -3.617  13.727  22.782  0.00  0.00    +0.000 A 
ATOM      4  N   UNL     1      -4.421  14.031  21.786  0.00  0.00    +0.000 N 
ATOM      5  C   UNL     1      -3.153  14.567  23.714  0.00  0.00    +0.000 A 
ATOM      6  C   UNL     1      -4.017  15.557  24.360  0.00  0.00    +0.000 A 
ATOM      7  C   UNL     1      -3.640  16.517  25.226  0.00  0.00    +0.000 A 
ATOM      8  C   UNL     1      -2.297  16.493  25.345  0.00  0.00    +0.000 A 
ATOM      9  C   UNL     1      -1.421  15.458  24.640  0.00  0.00    +0.000 A 
ATOM     10  C   UNL     1      -1.638  14.166  23.810  0.00  0.00    +0.000 A 
ATOM     11  H   UNL     1      -4.120  14.730  21.115  0.00  0.00    +0.000 HD
ENDROOT
BRANCH   4  12
ATOM     12  C   UNL     1      -5.404  13.140  21.370  0.00  0.00    +0.000 A 
ATOM     13  C   UNL     1      -6.607  13.075  22.092  0.00  0.00    +0.000 A 
ATOM     14 CL   UNL     1      -6.963  14.159  23.401  0.00  0.00    +0.000 Cl
ATOM     15  C   UNL     1      -7.547  12.109  21.764  0.00  0.00    +0.000 A 
ATOM     16  C   UNL     1      -7.390  11.351  20.607  0.00  0.00    +0.000 A 
ATOM     17  C   UNL     1      -6.283  11.509  19.804  0.00  0.00    +0.000 A 
ATOM     18  C   UNL     1      -5.258  12.331  20.208  0.00  0.00    +0.000 A 
ATOM     19 CL   UNL     1      -3.842  12.066  19.214  0.00  0.00    +0.000 Cl
ENDBRANCH   4  12
BRANCH   1  23
ATOM     20  C   UNL     1       0.583   9.170  21.222  0.00  0.00    +0.000 A 
ATOM     21  C   UNL     1       0.247   9.090  22.561  0.00  0.00    +0.000 A 
ATOM     22  C   UNL     1      -0.677  10.150  23.168  0.00  0.00    +0.000 A 
ATOM     23  C   UNL     1      -1.323  11.338  22.409  0.00  0.00    +0.000 A 
ATOM     24  C   UNL     1      -0.842  11.315  21.123  0.00  0.00    +0.000 A 
ATOM     25  C   UNL     1       0.066  10.288  20.578  0.00  0.00    +0.000 A 
BRANCH  20  27
ATOM     26  O   UNL     1       1.749   8.505  19.239  0.00  0.00    +0.000 OA
ATOM     27  C   UNL     1       1.492   8.268  20.413  0.00  0.00    +0.000 C 
BRANCH  27  28
ATOM     28  O   UNL     1       1.877   7.105  20.987  0.00  0.00    +0.000 OA
ATOM     29  H   UNL     1       1.207   6.541  21.409  0.00  0.00    +0.000 HD
ENDBRANCH  27  28
ENDBRANCH  20  27
ENDBRANCH   1  23
TORSDOF 4
ENDMDL
MODEL 6
REMARK VINA RESULT:      -7.2      6.118     10.818
REMARK  Name = 
REMARK  4 active torsions:
REMARK  status: ('A' for Active; 'I' for Inactive)
REMARK    1  A    between atoms: C_2  and  O_3
REMARK    2  A    between atoms: C_2  and  C_4
REMARK    3  A    between atoms: C_7  and  N_8
REMARK    4  A    between atoms: N_11  and  C_12
REMARK                            x       y       z     vdW  Elec       q    Type
REMARK                         _______ _______ _______ _____ _____    ______ ____
ROOT
ATOM      1  N   UNL     1      -1.749  12.366  22.699  0.00  0.00    +0.000 N 
ATOM      2  N   UNL     1      -3.034  12.113  22.787  0.00  0.00    +0.000 NA
ATOM      3  C   UNL     1      -3.437  13.273  22.377  0.00  0.00    +0.000 A 
ATOM      4  N   UNL     1      -4.119  13.610  21.304  0.00  0.00    +0.000 N 
ATOM      5  C   UNL     1      -3.099  14.080  23.388  0.00  0.00    +0.000 A 
ATOM      6  C   UNL     1      -4.045  15.038  23.963  0.00  0.00    +0.000 A 
ATOM      7  C   UNL     1      -3.787  15.967  24.903  0.00  0.00    +0.000 A 
ATOM      8  C   UNL     1      -2.468  15.948  25.182  0.00  0.00    +0.000 A 
ATOM      9  C   UNL     1      -1.501  14.947  24.550  0.00  0.00    +0.000 A 
ATOM     10  C   UNL     1      -1.602  13.686  23.652  0.00  0.00    +0.000 A 
ATOM     11  H   UNL     1      -3.747  14.337  20.700  0.00  0.00    +0.000 HD
ENDROOT
BRANCH   4  12
ATOM     12  C   UNL     1      -5.035  12.728  20.738  0.00  0.00    +0.000 A 
ATOM     13  C   UNL     1      -4.694  12.074  19.543  0.00  0.00    +0.000 A 
ATOM     14 CL   UNL     1      -3.122  12.223  18.820  0.00  0.00    +0.000 Cl
ATOM     15  C   UNL     1      -5.640  11.286  18.904  0.00  0.00    +0.000 A 
ATOM     16  C   UNL     1      -6.839  10.985  19.542  0.00  0.00    +0.000 A 
ATOM     17  C   UNL     1      -7.126  11.501  20.786  0.00  0.00    +0.000 A 
ATOM     18  C   UNL     1      -6.281  12.425  21.354  0.00  0.00    +0.000 A 
ATOM     19 CL   UNL     1      -7.051  13.185  22.729  0.00  0.00    +0.000 Cl
ENDBRANCH   4  12
BRANCH   1  23
ATOM     20  C   UNL     1       0.889   8.847  20.948  0.00  0.00    +0.000 A 
ATOM     21  C   UNL     1       0.673   8.811  22.313  0.00  0.00    +0.000 A 
ATOM     22  C   UNL     1      -0.285   9.825  22.948  0.00  0.00    +0.000 A 
ATOM     23  C   UNL     1      -1.087  10.917  22.194  0.00  0.00    +0.000 A 
ATOM     24  C   UNL     1      -0.713  10.864  20.874  0.00  0.00    +0.000 A 
ATOM     25  C   UNL     1       0.229   9.886  20.300  0.00  0.00    +0.000 A 
BRANCH  20  27
ATOM     26  O   UNL     1       2.021   8.235  18.928  0.00  0.00    +0.000 OA
ATOM     27  C   UNL     1       1.801   7.980  20.105  0.00  0.00    +0.000 C 
BRANCH  27  28
ATOM     28  O   UNL     1       2.233   6.822  20.657  0.00  0.00    +0.000 OA
ATOM     29  H   UNL     1       3.002   6.371  20.269  0.00  0.00    +0.000 HD
ENDBRANCH  27  28
ENDBRANCH  20  27
ENDBRANCH   1  23
TORSDOF 4
ENDMDL
MODEL 7
REMARK VINA RESULT:      -7.2      6.571     11.320
REMARK  Name = 
REMARK  4 active torsions:
REMARK  status: ('A' for Active; 'I' for Inactive)
REMARK    1  A    between atoms: C_2  and  O_3
REMARK    2  A    between atoms: C_2  and  C_4
REMARK    3  A    between atoms: C_7  and  N_8
REMARK    4  A    between atoms: N_11  and  C_12
REMARK                            x       y       z     vdW  Elec       q    Type
REMARK                         _______ _______ _______ _____ _____    ______ ____
ROOT
ATOM      1  N   UNL     1      -1.917  12.865  22.948  0.00  0.00    +0.000 N 
ATOM      2  N   UNL     1      -3.151  12.633  23.333  0.00  0.00    +0.000 NA
ATOM      3  C   UNL     1      -3.637  13.771  22.950  0.00  0.00    +0.000 A 
ATOM      4  N   UNL     1      -4.539  14.050  22.034  0.00  0.00    +0.000 N 
ATOM      5  C   UNL     1      -3.085  14.634  23.810  0.00  0.00    +0.000 A 
ATOM      6  C   UNL     1      -3.884  15.636  24.519  0.00  0.00    +0.000 A 
ATOM      7  C   UNL     1      -3.426  16.617  25.319  0.00  0.00    +0.000 A 
ATOM      8  C   UNL     1      -2.078  16.600  25.302  0.00  0.00    +0.000 A 
ATOM      9  C   UNL     1      -1.272  15.551  24.535  0.00  0.00    +0.000 A 
ATOM     10  C   UNL     1      -1.566  14.239  23.761  0.00  0.00    +0.000 A 
ATOM     11  H   UNL     1      -4.311  14.734  21.320  0.00  0.00    +0.000 HD
ENDROOT
BRANCH   4  12
ATOM     12  C   UNL     1      -5.556  13.146  21.740  0.00  0.00    +0.000 A 
ATOM     13  C   UNL     1      -5.455  12.373  20.572  0.00  0.00    +0.000 A 
ATOM     14 CL   UNL     1      -4.048  12.407  19.556  0.00  0.00    +0.000 Cl
ATOM     15  C   UNL     1      -6.514  11.556  20.202  0.00  0.00    +0.000 A 
ATOM     16  C   UNL     1      -7.573  11.352  21.082  0.00  0.00    +0.000 A 
ATOM     17  C   UNL     1      -7.613  11.990  22.300  0.00  0.00    +0.000 A 
ATOM     18  C   UNL     1      -6.665  12.938  22.606  0.00  0.00    +0.000 A 
ATOM     19 CL   UNL     1      -7.152  13.847  24.020  0.00  0.00    +0.000 Cl
ENDBRANCH   4  12
BRANCH   1  23
ATOM     20  C   UNL     1       0.447   9.172  21.165  0.00  0.00    +0.000 A 
ATOM     21  C   UNL     1       0.128   9.087  22.508  0.00  0.00    +0.000 A 
ATOM     22  C   UNL     1      -0.758  10.166  23.138  0.00  0.00    +0.000 A 
ATOM     23  C   UNL     1      -1.381  11.381  22.400  0.00  0.00    +0.000 A 
ATOM     24  C   UNL     1      -0.918  11.357  21.108  0.00  0.00    +0.000 A 
ATOM     25  C   UNL     1      -0.047  10.311  20.539  0.00  0.00    +0.000 A 
BRANCH  20  27
ATOM     26  O   UNL     1       1.754   7.202  20.785  0.00  0.00    +0.000 OA
ATOM     27  C   UNL     1       1.319   8.254  20.334  0.00  0.00    +0.000 C 
BRANCH  27  28
ATOM     28  O   UNL     1       1.731   8.718  19.131  0.00  0.00    +0.000 OA
ATOM     29  H   UNL     1       1.379   8.311  18.321  0.00  0.00    +0.000 HD
ENDBRANCH  27  28
ENDBRANCH  20  27
ENDBRANCH   1  23
TORSDOF 4
ENDMDL
MODEL 8
REMARK VINA RESULT:      -7.2      6.347     11.054
REMARK  Name = 
REMARK  4 active torsions:
REMARK  status: ('A' for Active; 'I' for Inactive)
REMARK    1  A    between atoms: C_2  and  O_3
REMARK    2  A    between atoms: C_2  and  C_4
REMARK    3  A    between atoms: C_7  and  N_8
REMARK    4  A    between atoms: N_11  and  C_12
REMARK                            x       y       z     vdW  Elec       q    Type
REMARK                         _______ _______ _______ _____ _____    ______ ____
ROOT
ATOM      1  N   UNL     1      -1.710  12.754  22.105  0.00  0.00    +0.000 N 
ATOM      2  N   UNL     1      -2.873  12.328  22.540  0.00  0.00    +0.000 NA
ATOM      3  C   UNL     1      -3.481  13.468  22.464  0.00  0.00    +0.000 A 
ATOM      4  N   UNL     1      -4.497  13.847  21.720  0.00  0.00    +0.000 N 
ATOM      5  C   UNL     1      -2.905  14.177  23.441  0.00  0.00    +0.000 A 
ATOM      6  C   UNL     1      -3.693  14.924  24.424  0.00  0.00    +0.000 A 
ATOM      7  C   UNL     1      -3.224  15.751  25.377  0.00  0.00    +0.000 A 
ATOM      8  C   UNL     1      -1.889  15.869  25.233  0.00  0.00    +0.000 A 
ATOM      9  C   UNL     1      -1.096  15.091  24.183  0.00  0.00    +0.000 A 
ATOM     10  C   UNL     1      -1.375  13.951  23.167  0.00  0.00    +0.000 A 
ATOM     11  H   UNL     1      -4.402  14.686  21.157  0.00  0.00    +0.000 HD
ENDROOT
BRANCH   4  12
ATOM     12  C   UNL     1      -5.470  12.932  21.327  0.00  0.00    +0.000 A 
ATOM     13  C   UNL     1      -6.606  12.764  22.135  0.00  0.00    +0.000 A 
ATOM     14 CL   UNL     1      -6.904  13.752  23.532  0.00  0.00    +0.000 Cl
ATOM     15  C   UNL     1      -7.525  11.773  21.822  0.00  0.00    +0.000 A 
ATOM     16  C   UNL     1      -7.427  11.092  20.612  0.00  0.00    +0.000 A 
ATOM     17  C   UNL     1      -6.396  11.352  19.737  0.00  0.00    +0.000 A 
ATOM     18  C   UNL     1      -5.380  12.200  20.110  0.00  0.00    +0.000 A 
ATOM     19 CL   UNL     1      -4.039  12.065  18.995  0.00  0.00    +0.000 Cl
ENDBRANCH   4  12
BRANCH   1  23
ATOM     20  C   UNL     1       0.752   9.740  19.410  0.00  0.00    +0.000 A 
ATOM     21  C   UNL     1       0.484   9.312  20.698  0.00  0.00    +0.000 A 
ATOM     22  C   UNL     1      -0.426  10.155  21.596  0.00  0.00    +0.000 A 
ATOM     23  C   UNL     1      -1.127  11.480  21.195  0.00  0.00    +0.000 A 
ATOM     24  C   UNL     1      -0.710  11.799  19.927  0.00  0.00    +0.000 A 
ATOM     25  C   UNL     1       0.186  10.971  19.097  0.00  0.00    +0.000 A 
BRANCH  20  27
ATOM     26  O   UNL     1       2.109   7.983  18.513  0.00  0.00    +0.000 OA
ATOM     27  C   UNL     1       1.634   9.101  18.358  0.00  0.00    +0.000 C 
BRANCH  27  28
ATOM     28  O   UNL     1       2.008   9.876  17.314  0.00  0.00    +0.000 OA
ATOM     29  H   UNL     1       1.337  10.415  16.860  0.00  0.00    +0.000 HD
ENDBRANCH  27  28
ENDBRANCH  20  27
ENDBRANCH   1  23
TORSDOF 4
ENDMDL
MODEL 9
REMARK VINA RESULT:      -7.1      0.880      2.248
REMARK  Name = 
REMARK  4 active torsions:
REMARK  status: ('A' for Active; 'I' for Inactive)
REMARK    1  A    between atoms: C_2  and  O_3
REMARK    2  A    between atoms: C_2  and  C_4
REMARK    3  A    between atoms: C_7  and  N_8
REMARK    4  A    between atoms: N_11  and  C_12
REMARK                            x       y       z     vdW  Elec       q    Type
REMARK                         _______ _______ _______ _____ _____    ______ ____
ROOT
ATOM      1  N   UNL     1       3.879   7.090  17.991  0.00  0.00    +0.000 N 
ATOM      2  N   UNL     1       3.147   6.061  17.634  0.00  0.00    +0.000 NA
ATOM      3  C   UNL     1       4.001   5.151  17.979  0.00  0.00    +0.000 A 
ATOM      4  N   UNL     1       3.925   4.211  18.896  0.00  0.00    +0.000 N 
ATOM      5  C   UNL     1       4.977   5.302  17.077  0.00  0.00    +0.000 A 
ATOM      6  C   UNL     1       5.534   4.166  16.342  0.00  0.00    +0.000 A 
ATOM      7  C   UNL     1       6.582   4.184  15.496  0.00  0.00    +0.000 A 
ATOM      8  C   UNL     1       7.118   5.421  15.494  0.00  0.00    +0.000 A 
ATOM      9  C   UNL     1       6.524   6.583  16.290  0.00  0.00    +0.000 A 
ATOM     10  C   UNL     1       5.241   6.850  17.119  0.00  0.00    +0.000 A 
ATOM     11  H   UNL     1       4.672   4.136  19.579  0.00  0.00    +0.000 HD
ENDROOT
BRANCH   4  12
ATOM     12  C   UNL     1       2.697   3.652  19.241  0.00  0.00    +0.000 A 
ATOM     13  C   UNL     1       2.049   4.109  20.400  0.00  0.00    +0.000 A 
ATOM     14 CL   UNL     1       2.658   5.436  21.341  0.00  0.00    +0.000 Cl
ATOM     15  C   UNL     1       0.887   3.481  20.823  0.00  0.00    +0.000 A 
ATOM     16  C   UNL     1       0.263   2.549  20.000  0.00  0.00    +0.000 A 
ATOM     17  C   UNL     1       0.811   2.198  18.787  0.00  0.00    +0.000 A 
ATOM     18  C   UNL     1       2.051   2.675  18.434  0.00  0.00    +0.000 A 
ATOM     19 CL   UNL     1       2.665   1.799  17.050  0.00  0.00    +0.000 Cl
ENDBRANCH   4  12
BRANCH   1  23
ATOM     20  C   UNL     1       0.093   9.725  19.056  0.00  0.00    +0.000 A 
ATOM     21  C   UNL     1       0.605   8.964  20.092  0.00  0.00    +0.000 A 
ATOM     22  C   UNL     1       1.911   8.191  19.882  0.00  0.00    +0.000 A 
ATOM     23  C   UNL     1       2.769   8.186  18.590  0.00  0.00    +0.000 A 
ATOM     24  C   UNL     1       2.098   8.925  17.647  0.00  0.00    +0.000 A 
ATOM     25  C   UNL     1       0.829   9.640  17.879  0.00  0.00    +0.000 A 
BRANCH  20  27
ATOM     26  O   UNL     1      -1.365  11.481  19.780  0.00  0.00    +0.000 OA
ATOM     27  C   UNL     1      -1.180  10.543  19.014  0.00  0.00    +0.000 C 
BRANCH  27  28
ATOM     28  O   UNL     1      -2.173  10.098  18.209  0.00  0.00    +0.000 OA
ATOM     29  H   UNL     1      -2.173   9.166  17.930  0.00  0.00    +0.000 HD
ENDBRANCH  27  28
ENDBRANCH  20  27
ENDBRANCH   1  23
TORSDOF 4
ENDMDL
