MODEL 1
REMARK VINA RESULT:      -8.3      0.000      0.000
REMARK  Name = 
REMARK  6 active torsions:
REMARK  status: ('A' for Active; 'I' for Inactive)
REMARK    1  A    between atoms: C_1  and  C_2
REMARK    2  A    between atoms: C_2  and  C_3
REMARK    3  A    between atoms: N_7  and  S_8
REMARK    4  A    between atoms: S_8  and  C_11
REMARK    5  A    between atoms: C_14  and  N_15
REMARK    6  A    between atoms: C_16  and  C_18
REMARK                            x       y       z     vdW  Elec       q    Type
REMARK                         _______ _______ _______ _____ _____    ______ ____
ROOT
ATOM      1  C   UNL     1       2.381   4.693  18.936  0.00  0.00    +0.000 A 
ATOM      2  C   UNL     1       2.496   5.663  17.946  0.00  0.00    +0.000 A 
ATOM      3  C   UNL     1       2.313   7.011  18.263  0.00  0.00    +0.000 A 
ATOM      4  C   UNL     1       1.966   7.415  19.554  0.00  0.00    +0.000 A 
ATOM      5  C   UNL     1       1.804   6.426  20.536  0.00  0.00    +0.000 A 
ATOM      6  C   UNL     1       2.013   5.067  20.232  0.00  0.00    +0.000 A 
ENDROOT
BRANCH   4   7
ATOM      7  N   UNL     1       1.784   8.775  19.916  0.00  0.00    +0.000 N 
ATOM      8  C   UNL     1       1.059   9.720  19.204  0.00  0.00    +0.000 C 
ATOM      9  O   UNL     1       0.407   9.508  18.186  0.00  0.00    +0.000 OA
ATOM     10  H   UNL     1       2.216   9.071  20.785  0.00  0.00    +0.000 HD
BRANCH   8  11
ATOM     11  C   UNL     1       1.106  11.137  19.665  0.00  0.00    +0.000 A 
ATOM     12  C   UNL     1       1.786  12.027  18.806  0.00  0.00    +0.000 A 
ATOM     13  C   UNL     1       1.883  13.381  19.112  0.00  0.00    +0.000 A 
ATOM     14 CL   UNL     1       2.722  14.442  18.050  0.00  0.00    +0.000 Cl
ATOM     15  C   UNL     1       1.301  13.877  20.272  0.00  0.00    +0.000 A 
ATOM     16  C   UNL     1       0.612  13.011  21.124  0.00  0.00    +0.000 A 
ATOM     17  C   UNL     1       0.509  11.642  20.826  0.00  0.00    +0.000 A 
ATOM     18 CL   UNL     1      -0.412  10.676  21.920  0.00  0.00    +0.000 Cl
ENDBRANCH   8  11
ENDBRANCH   4   7
BRANCH   1  19
ATOM     19  S   UNL     1       2.629   2.977  18.499  0.00  0.00    +0.000 S 
ATOM     20  O   UNL     1       2.300   2.835  17.099  0.00  0.00    +0.000 OA
ATOM     21  O   UNL     1       1.940   2.193  19.507  0.00  0.00    +0.000 OA
BRANCH  19  26
ATOM     22  C   UNL     1       6.455   5.642  17.746  0.00  0.00    +0.000 A 
ATOM     23  N   UNL     1       6.298   5.640  19.056  0.00  0.00    +0.000 NA
ATOM     24  N   UNL     1       5.546   4.566  19.488  0.00  0.00    +0.000 NA
ATOM     25  C   UNL     1       5.074   3.863  18.486  0.00  0.00    +0.000 A 
ATOM     26  N   UNL     1       4.284   2.714  18.753  0.00  0.00    +0.000 N 
ATOM     27  S   UNL     1       5.638   4.349  16.948  0.00  0.00    +0.000 S 
ATOM     28  H   UNL     1       4.423   2.451  19.727  0.00  0.00    +0.000 HD
BRANCH  22  30
ATOM     29  C   UNL     1       7.862   7.706  17.903  0.00  0.00    +0.000 C 
ATOM     30  C   UNL     1       7.285   6.632  16.995  0.00  0.00    +0.000 C 
ENDBRANCH  22  30
ENDBRANCH  19  26
ENDBRANCH   1  19
TORSDOF 5
ENDMDL
MODEL 2
REMARK VINA RESULT:      -8.3      2.855      3.893
REMARK  Name = 
REMARK  6 active torsions:
REMARK  status: ('A' for Active; 'I' for Inactive)
REMARK    1  A    between atoms: C_1  and  C_2
REMARK    2  A    between atoms: C_2  and  C_3
REMARK    3  A    between atoms: N_7  and  S_8
REMARK    4  A    between atoms: S_8  and  C_11
REMARK    5  A    between atoms: C_14  and  N_15
REMARK    6  A    between atoms: C_16  and  C_18
REMARK                            x       y       z     vdW  Elec       q    Type
REMARK                         _______ _______ _______ _____ _____    ______ ____
ROOT
ATOM      1  C   UNL     1       2.325   6.833  19.457  0.00  0.00    +0.000 A 
ATOM      2  C   UNL     1       2.210   7.927  18.606  0.00  0.00    +0.000 A 
ATOM      3  C   UNL     1       1.558   9.084  19.038  0.00  0.00    +0.000 A 
ATOM      4  C   UNL     1       0.968   9.159  20.302  0.00  0.00    +0.000 A 
ATOM      5  C   UNL     1       1.046   8.034  21.136  0.00  0.00    +0.000 A 
ATOM      6  C   UNL     1       1.725   6.872  20.720  0.00  0.00    +0.000 A 
ENDROOT
BRANCH   4   7
ATOM      7  N   UNL     1       0.309  10.321  20.780  0.00  0.00    +0.000 N 
ATOM      8  C   UNL     1       0.103  10.655  22.110  0.00  0.00    +0.000 C 
ATOM      9  O   UNL     1       0.518  10.030  23.081  0.00  0.00    +0.000 OA
ATOM     10  H   UNL     1      -0.027  10.969  20.075  0.00  0.00    +0.000 HD
BRANCH   8  11
ATOM     11  C   UNL     1      -0.744  11.844  22.415  0.00  0.00    +0.000 A 
ATOM     12  C   UNL     1      -1.920  11.574  23.146  0.00  0.00    +0.000 A 
ATOM     13  C   UNL     1      -2.786  12.601  23.512  0.00  0.00    +0.000 A 
ATOM     14 CL   UNL     1      -4.215  12.243  24.397  0.00  0.00    +0.000 Cl
ATOM     15  C   UNL     1      -2.495  13.915  23.164  0.00  0.00    +0.000 A 
ATOM     16  C   UNL     1      -1.326  14.199  22.453  0.00  0.00    +0.000 A 
ATOM     17  C   UNL     1      -0.447  13.171  22.078  0.00  0.00    +0.000 A 
ATOM     18 CL   UNL     1       0.993  13.642  21.252  0.00  0.00    +0.000 Cl
ENDBRANCH   8  11
ENDBRANCH   4   7
BRANCH   1  19
ATOM     19  S   UNL     1       3.172   5.370  18.876  0.00  0.00    +0.000 S 
ATOM     20  O   UNL     1       2.531   4.957  17.648  0.00  0.00    +0.000 OA
ATOM     21  O   UNL     1       3.257   4.467  20.009  0.00  0.00    +0.000 OA
BRANCH  19  26
ATOM     22  C   UNL     1       5.993   5.060  15.100  0.00  0.00    +0.000 A 
ATOM     23  N   UNL     1       5.629   6.327  15.146  0.00  0.00    +0.000 NA
ATOM     24  N   UNL     1       5.207   6.701  16.406  0.00  0.00    +0.000 NA
ATOM     25  C   UNL     1       5.162   5.683  17.231  0.00  0.00    +0.000 A 
ATOM     26  N   UNL     1       4.756   5.893  18.576  0.00  0.00    +0.000 N 
ATOM     27  S   UNL     1       5.785   4.224  16.596  0.00  0.00    +0.000 S 
ATOM     28  H   UNL     1       4.809   6.890  18.772  0.00  0.00    +0.000 HD
BRANCH  22  30
ATOM     29  C   UNL     1       5.519   3.617  13.110  0.00  0.00    +0.000 C 
ATOM     30  C   UNL     1       6.569   4.387  13.896  0.00  0.00    +0.000 C 
ENDBRANCH  22  30
ENDBRANCH  19  26
ENDBRANCH   1  19
TORSDOF 5
ENDMDL
MODEL 3
REMARK VINA RESULT:      -8.2      2.693      4.161
REMARK  Name = 
REMARK  6 active torsions:
REMARK  status: ('A' for Active; 'I' for Inactive)
REMARK    1  A    between atoms: C_1  and  C_2
REMARK    2  A    between atoms: C_2  and  C_3
REMARK    3  A    between atoms: N_7  and  S_8
REMARK    4  A    between atoms: S_8  and  C_11
REMARK    5  A    between atoms: C_14  and  N_15
REMARK    6  A    between atoms: C_16  and  C_18
REMARK                            x       y       z     vdW  Elec       q    Type
REMARK                         _______ _______ _______ _____ _____    ______ ____
ROOT
ATOM      1  C   UNL     1       4.799   6.058  18.151  0.00  0.00    +0.000 A 
ATOM      2  C   UNL     1       4.461   6.931  17.122  0.00  0.00    +0.000 A 
ATOM      3  C   UNL     1       3.346   7.761  17.248  0.00  0.00    +0.000 A 
ATOM      4  C   UNL     1       2.518   7.704  18.372  0.00  0.00    +0.000 A 
ATOM      5  C   UNL     1       2.837   6.786  19.383  0.00  0.00    +0.000 A 
ATOM      6  C   UNL     1       3.977   5.964  19.279  0.00  0.00    +0.000 A 
ENDROOT
BRANCH   4   7
ATOM      7  N   UNL     1       1.384   8.540  18.539  0.00  0.00    +0.000 N 
ATOM      8  C   UNL     1       1.341   9.911  18.336  0.00  0.00    +0.000 C 
ATOM      9  O   UNL     1       2.263  10.605  17.916  0.00  0.00    +0.000 OA
ATOM     10  H   UNL     1       0.523   8.080  18.819  0.00  0.00    +0.000 HD
BRANCH   8  11
ATOM     11  C   UNL     1       0.095  10.641  18.708  0.00  0.00    +0.000 A 
ATOM     12  C   UNL     1      -1.061  10.258  17.995  0.00  0.00    +0.000 A 
ATOM     13  C   UNL     1      -2.293  10.849  18.262  0.00  0.00    +0.000 A 
ATOM     14 CL   UNL     1      -3.685  10.369  17.375  0.00  0.00    +0.000 Cl
ATOM     15  C   UNL     1      -2.399  11.825  19.245  0.00  0.00    +0.000 A 
ATOM     16  C   UNL     1      -1.266  12.203  19.970  0.00  0.00    +0.000 A 
ATOM     17  C   UNL     1      -0.018  11.615  19.708  0.00  0.00    +0.000 A 
ATOM     18 CL   UNL     1       1.302  12.117  20.700  0.00  0.00    +0.000 Cl
ENDBRANCH   8  11
ENDBRANCH   4   7
BRANCH   1  19
ATOM     19  S   UNL     1       6.239   5.014  17.963  0.00  0.00    +0.000 S 
ATOM     20  O   UNL     1       6.756   4.748  19.287  0.00  0.00    +0.000 OA
ATOM     21  O   UNL     1       7.071   5.640  16.953  0.00  0.00    +0.000 OA
BRANCH  19  26
ATOM     22  C   UNL     1       2.138   2.710  18.382  0.00  0.00    +0.000 A 
ATOM     23  N   UNL     1       2.089   3.270  17.189  0.00  0.00    +0.000 NA
ATOM     24  N   UNL     1       3.346   3.577  16.707  0.00  0.00    +0.000 NA
ATOM     25  C   UNL     1       4.283   3.341  17.595  0.00  0.00    +0.000 A 
ATOM     26  N   UNL     1       5.639   3.594  17.260  0.00  0.00    +0.000 N 
ATOM     27  S   UNL     1       3.735   2.575  19.020  0.00  0.00    +0.000 S 
ATOM     28  H   UNL     1       5.706   3.682  16.248  0.00  0.00    +0.000 HD
BRANCH  22  30
ATOM     29  C   UNL     1       0.821   2.812  20.508  0.00  0.00    +0.000 C 
ATOM     30  C   UNL     1       0.946   2.195  19.125  0.00  0.00    +0.000 C 
ENDBRANCH  22  30
ENDBRANCH  19  26
ENDBRANCH   1  19
TORSDOF 5
ENDMDL
MODEL 4
REMARK VINA RESULT:      -8.2      2.541      4.020
REMARK  Name = 
REMARK  6 active torsions:
REMARK  status: ('A' for Active; 'I' for Inactive)
REMARK    1  A    between atoms: C_1  and  C_2
REMARK    2  A    between atoms: C_2  and  C_3
REMARK    3  A    between atoms: N_7  and  S_8
REMARK    4  A    between atoms: S_8  and  C_11
REMARK    5  A    between atoms: C_14  and  N_15
REMARK    6  A    between atoms: C_16  and  C_18
REMARK                            x       y       z     vdW  Elec       q    Type
REMARK                         _______ _______ _______ _____ _____    ______ ____
ROOT
ATOM      1  C   UNL     1       4.697   6.000  18.063  0.00  0.00    +0.000 A 
ATOM      2  C   UNL     1       4.288   6.901  17.085  0.00  0.00    +0.000 A 
ATOM      3  C   UNL     1       3.221   7.767  17.334  0.00  0.00    +0.000 A 
ATOM      4  C   UNL     1       2.511   7.721  18.536  0.00  0.00    +0.000 A 
ATOM      5  C   UNL     1       2.898   6.777  19.498  0.00  0.00    +0.000 A 
ATOM      6  C   UNL     1       3.991   5.918  19.267  0.00  0.00    +0.000 A 
ENDROOT
BRANCH   4   7
ATOM      7  N   UNL     1       1.430   8.592  18.829  0.00  0.00    +0.000 N 
ATOM      8  C   UNL     1       1.374   9.949  18.545  0.00  0.00    +0.000 C 
ATOM      9  O   UNL     1       2.225  10.592  17.936  0.00  0.00    +0.000 OA
ATOM     10  H   UNL     1       0.621   8.172  19.274  0.00  0.00    +0.000 HD
BRANCH   8  11
ATOM     11  C   UNL     1       0.215  10.730  19.064  0.00  0.00    +0.000 A 
ATOM     12  C   UNL     1       0.496  11.563  20.168  0.00  0.00    +0.000 A 
ATOM     13  C   UNL     1      -0.495  12.359  20.733  0.00  0.00    +0.000 A 
ATOM     14 CL   UNL     1      -0.127  13.360  22.081  0.00  0.00    +0.000 Cl
ATOM     15  C   UNL     1      -1.782  12.348  20.208  0.00  0.00    +0.000 A 
ATOM     16  C   UNL     1      -2.072  11.540  19.106  0.00  0.00    +0.000 A 
ATOM     17  C   UNL     1      -1.079  10.732  18.529  0.00  0.00    +0.000 A 
ATOM     18 CL   UNL     1      -1.534   9.817  17.138  0.00  0.00    +0.000 Cl
ENDBRANCH   8  11
ENDBRANCH   4   7
BRANCH   1  19
ATOM     19  S   UNL     1       6.072   4.911  17.716  0.00  0.00    +0.000 S 
ATOM     20  O   UNL     1       6.746   4.652  18.968  0.00  0.00    +0.000 OA
ATOM     21  O   UNL     1       6.786   5.495  16.595  0.00  0.00    +0.000 OA
BRANCH  19  26
ATOM     22  C   UNL     1       2.082   2.640  18.825  0.00  0.00    +0.000 A 
ATOM     23  N   UNL     1       1.835   3.204  17.659  0.00  0.00    +0.000 NA
ATOM     24  N   UNL     1       2.994   3.501  16.970  0.00  0.00    +0.000 NA
ATOM     25  C   UNL     1       4.066   3.256  17.684  0.00  0.00    +0.000 A 
ATOM     26  N   UNL     1       5.348   3.497  17.123  0.00  0.00    +0.000 N 
ATOM     27  S   UNL     1       3.764   2.490  19.182  0.00  0.00    +0.000 S 
ATOM     28  H   UNL     1       5.242   3.588  16.115  0.00  0.00    +0.000 HD
BRANCH  22  30
ATOM     29  C   UNL     1       1.154   2.743  21.148  0.00  0.00    +0.000 C 
ATOM     30  C   UNL     1       1.030   2.134  19.760  0.00  0.00    +0.000 C 
ENDBRANCH  22  30
ENDBRANCH  19  26
ENDBRANCH   1  19
TORSDOF 5
ENDMDL
MODEL 5
REMARK VINA RESULT:      -8.2      0.822      1.927
REMARK  Name = 
REMARK  6 active torsions:
REMARK  status: ('A' for Active; 'I' for Inactive)
REMARK    1  A    between atoms: C_1  and  C_2
REMARK    2  A    between atoms: C_2  and  C_3
REMARK    3  A    between atoms: N_7  and  S_8
REMARK    4  A    between atoms: S_8  and  C_11
REMARK    5  A    between atoms: C_14  and  N_15
REMARK    6  A    between atoms: C_16  and  C_18
REMARK                            x       y       z     vdW  Elec       q    Type
REMARK                         _______ _______ _______ _____ _____    ______ ____
ROOT
ATOM      1  C   UNL     1       2.815   4.630  18.979  0.00  0.00    +0.000 A 
ATOM      2  C   UNL     1       2.857   5.655  18.040  0.00  0.00    +0.000 A 
ATOM      3  C   UNL     1       2.493   6.953  18.404  0.00  0.00    +0.000 A 
ATOM      4  C   UNL     1       2.035   7.248  19.691  0.00  0.00    +0.000 A 
ATOM      5  C   UNL     1       1.949   6.199  20.619  0.00  0.00    +0.000 A 
ATOM      6  C   UNL     1       2.340   4.891  20.268  0.00  0.00    +0.000 A 
ENDROOT
BRANCH   4   7
ATOM      7  N   UNL     1       1.668   8.555  20.100  0.00  0.00    +0.000 N 
ATOM      8  C   UNL     1       1.009   9.500  19.326  0.00  0.00    +0.000 C 
ATOM      9  O   UNL     1       0.583   9.325  18.188  0.00  0.00    +0.000 OA
ATOM     10  H   UNL     1       1.900   8.810  21.055  0.00  0.00    +0.000 HD
BRANCH   8  11
ATOM     11  C   UNL     1       0.843  10.874  19.881  0.00  0.00    +0.000 A 
ATOM     12  C   UNL     1       0.016  10.966  21.020  0.00  0.00    +0.000 A 
ATOM     13  C   UNL     1      -0.204  12.190  21.646  0.00  0.00    +0.000 A 
ATOM     14 CL   UNL     1      -1.221  12.276  23.029  0.00  0.00    +0.000 Cl
ATOM     15  C   UNL     1       0.399  13.342  21.155  0.00  0.00    +0.000 A 
ATOM     16  C   UNL     1       1.233  13.263  20.037  0.00  0.00    +0.000 A 
ATOM     17  C   UNL     1       1.460  12.034  19.397  0.00  0.00    +0.000 A 
ATOM     18 CL   UNL     1       2.551  12.044  18.060  0.00  0.00    +0.000 Cl
ENDBRANCH   8  11
ENDBRANCH   4   7
BRANCH   1  19
ATOM     19  S   UNL     1       3.295   2.981  18.482  0.00  0.00    +0.000 S 
ATOM     20  O   UNL     1       3.064   2.873  17.060  0.00  0.00    +0.000 OA
ATOM     21  O   UNL     1       2.652   2.070  19.410  0.00  0.00    +0.000 OA
BRANCH  19  26
ATOM     22  C   UNL     1       6.846   6.030  17.850  0.00  0.00    +0.000 A 
ATOM     23  N   UNL     1       6.621   6.039  19.150  0.00  0.00    +0.000 NA
ATOM     24  N   UNL     1       5.968   4.899  19.573  0.00  0.00    +0.000 NA
ATOM     25  C   UNL     1       5.627   4.128  18.568  0.00  0.00    +0.000 A 
ATOM     26  N   UNL     1       4.953   2.905  18.826  0.00  0.00    +0.000 N 
ATOM     27  S   UNL     1       6.216   4.639  17.047  0.00  0.00    +0.000 S 
ATOM     28  H   UNL     1       5.068   2.680  19.812  0.00  0.00    +0.000 HD
BRANCH  22  30
ATOM     29  C   UNL     1       8.091   8.194  18.037  0.00  0.00    +0.000 C 
ATOM     30  C   UNL     1       7.604   7.088  17.114  0.00  0.00    +0.000 C 
ENDBRANCH  22  30
ENDBRANCH  19  26
ENDBRANCH   1  19
TORSDOF 5
ENDMDL
MODEL 6
REMARK VINA RESULT:      -8.2      2.907      4.369
REMARK  Name = 
REMARK  6 active torsions:
REMARK  status: ('A' for Active; 'I' for Inactive)
REMARK    1  A    between atoms: C_1  and  C_2
REMARK    2  A    between atoms: C_2  and  C_3
REMARK    3  A    between atoms: N_7  and  S_8
REMARK    4  A    between atoms: S_8  and  C_11
REMARK    5  A    between atoms: C_14  and  N_15
REMARK    6  A    between atoms: C_16  and  C_18
REMARK                            x       y       z     vdW  Elec       q    Type
REMARK                         _______ _______ _______ _____ _____    ______ ____
ROOT
ATOM      1  C   UNL     1       4.716   6.197  18.300  0.00  0.00    +0.000 A 
ATOM      2  C   UNL     1       3.834   6.144  19.374  0.00  0.00    +0.000 A 
ATOM      3  C   UNL     1       2.652   6.887  19.345  0.00  0.00    +0.000 A 
ATOM      4  C   UNL     1       2.348   7.733  18.275  0.00  0.00    +0.000 A 
ATOM      5  C   UNL     1       3.267   7.819  17.219  0.00  0.00    +0.000 A 
ATOM      6  C   UNL     1       4.449   7.052  17.225  0.00  0.00    +0.000 A 
ENDROOT
BRANCH   4   7
ATOM      7  N   UNL     1       1.153   8.493  18.207  0.00  0.00    +0.000 N 
ATOM      8  C   UNL     1       1.043   9.863  18.398  0.00  0.00    +0.000 C 
ATOM      9  O   UNL     1       1.975  10.639  18.591  0.00  0.00    +0.000 OA
ATOM     10  H   UNL     1       0.306   7.982  17.982  0.00  0.00    +0.000 HD
BRANCH   8  11
ATOM     11  C   UNL     1      -0.322  10.462  18.435  0.00  0.00    +0.000 A 
ATOM     12  C   UNL     1      -1.174  10.083  17.377  0.00  0.00    +0.000 A 
ATOM     13  C   UNL     1      -2.481  10.557  17.306  0.00  0.00    +0.000 A 
ATOM     14 CL   UNL     1      -3.496  10.083  16.003  0.00  0.00    +0.000 Cl
ATOM     15  C   UNL     1      -2.966  11.411  18.289  0.00  0.00    +0.000 A 
ATOM     16  C   UNL     1      -2.138  11.783  19.351  0.00  0.00    +0.000 A 
ATOM     17  C   UNL     1      -0.818  11.312  19.431  0.00  0.00    +0.000 A 
ATOM     18 CL   UNL     1       0.096  11.791  20.814  0.00  0.00    +0.000 Cl
ENDBRANCH   8  11
ENDBRANCH   4   7
BRANCH   1  19
ATOM     19  S   UNL     1       6.217   5.228  18.363  0.00  0.00    +0.000 S 
ATOM     20  O   UNL     1       6.553   5.041  19.757  0.00  0.00    +0.000 OA
ATOM     21  O   UNL     1       7.153   5.859  17.452  0.00  0.00    +0.000 OA
BRANCH  19  26
ATOM     22  C   UNL     1       2.212   2.724  18.303  0.00  0.00    +0.000 A 
ATOM     23  N   UNL     1       2.309   3.234  17.090  0.00  0.00    +0.000 NA
ATOM     24  N   UNL     1       3.607   3.589  16.778  0.00  0.00    +0.000 NA
ATOM     25  C   UNL     1       4.416   3.439  17.799  0.00  0.00    +0.000 A 
ATOM     26  N   UNL     1       5.793   3.750  17.649  0.00  0.00    +0.000 N 
ATOM     27  S   UNL     1       3.706   2.700  19.167  0.00  0.00    +0.000 S 
ATOM     28  H   UNL     1       6.001   3.802  16.654  0.00  0.00    +0.000 HD
BRANCH  22  30
ATOM     29  C   UNL     1       0.550   2.903  20.166  0.00  0.00    +0.000 C 
ATOM     30  C   UNL     1       0.952   2.177  18.893  0.00  0.00    +0.000 C 
ENDBRANCH  22  30
ENDBRANCH  19  26
ENDBRANCH   1  19
TORSDOF 5
ENDMDL
MODEL 7
REMARK VINA RESULT:      -8.1      2.374      3.427
REMARK  Name = 
REMARK  6 active torsions:
REMARK  status: ('A' for Active; 'I' for Inactive)
REMARK    1  A    between atoms: C_1  and  C_2
REMARK    2  A    between atoms: C_2  and  C_3
REMARK    3  A    between atoms: N_7  and  S_8
REMARK    4  A    between atoms: S_8  and  C_11
REMARK    5  A    between atoms: C_14  and  N_15
REMARK    6  A    between atoms: C_16  and  C_18
REMARK                            x       y       z     vdW  Elec       q    Type
REMARK                         _______ _______ _______ _____ _____    ______ ____
ROOT
ATOM      1  C   UNL     1       2.568   5.975  19.088  0.00  0.00    +0.000 A 
ATOM      2  C   UNL     1       2.005   6.096  20.354  0.00  0.00    +0.000 A 
ATOM      3  C   UNL     1       1.416   7.300  20.746  0.00  0.00    +0.000 A 
ATOM      4  C   UNL     1       1.420   8.419  19.909  0.00  0.00    +0.000 A 
ATOM      5  C   UNL     1       2.033   8.304  18.653  0.00  0.00    +0.000 A 
ATOM      6  C   UNL     1       2.605   7.085  18.238  0.00  0.00    +0.000 A 
ENDROOT
BRANCH   4   7
ATOM      7  N   UNL     1       0.822   9.654  20.268  0.00  0.00    +0.000 N 
ATOM      8  C   UNL     1       0.812  10.220  21.535  0.00  0.00    +0.000 C 
ATOM      9  O   UNL     1       1.378   9.770  22.528  0.00  0.00    +0.000 OA
ATOM     10  H   UNL     1       0.374  10.172  19.519  0.00  0.00    +0.000 HD
BRANCH   8  11
ATOM     11  C   UNL     1       0.003  11.453  21.750  0.00  0.00    +0.000 A 
ATOM     12  C   UNL     1      -1.132  11.293  22.572  0.00  0.00    +0.000 A 
ATOM     13  C   UNL     1      -1.960  12.373  22.867  0.00  0.00    +0.000 A 
ATOM     14 CL   UNL     1      -3.340  12.148  23.867  0.00  0.00    +0.000 Cl
ATOM     15  C   UNL     1      -1.670  13.632  22.356  0.00  0.00    +0.000 A 
ATOM     16  C   UNL     1      -0.541  13.809  21.553  0.00  0.00    +0.000 A 
ATOM     17  C   UNL     1       0.300  12.727  21.248  0.00  0.00    +0.000 A 
ATOM     18 CL   UNL     1       1.696  13.071  20.293  0.00  0.00    +0.000 Cl
ENDBRANCH   8  11
ENDBRANCH   4   7
BRANCH   1  19
ATOM     19  S   UNL     1       3.306   4.417  18.614  0.00  0.00    +0.000 S 
ATOM     20  O   UNL     1       2.801   4.080  17.302  0.00  0.00    +0.000 OA
ATOM     21  O   UNL     1       3.119   3.516  19.735  0.00  0.00    +0.000 OA
BRANCH  19  26
ATOM     22  C   UNL     1       6.318   5.029  15.028  0.00  0.00    +0.000 A 
ATOM     23  N   UNL     1       6.145   6.236  15.532  0.00  0.00    +0.000 NA
ATOM     24  N   UNL     1       5.693   6.194  16.836  0.00  0.00    +0.000 NA
ATOM     25  C   UNL     1       5.436   4.969  17.227  0.00  0.00    +0.000 A 
ATOM     26  N   UNL     1       4.968   4.743  18.548  0.00  0.00    +0.000 N 
ATOM     27  S   UNL     1       5.878   3.757  16.107  0.00  0.00    +0.000 S 
ATOM     28  H   UNL     1       5.155   5.578  19.100  0.00  0.00    +0.000 HD
BRANCH  22  30
ATOM     29  C   UNL     1       6.160   3.600  12.979  0.00  0.00    +0.000 C 
ATOM     30  C   UNL     1       6.874   4.752  13.668  0.00  0.00    +0.000 C 
ENDBRANCH  22  30
ENDBRANCH  19  26
ENDBRANCH   1  19
TORSDOF 5
ENDMDL
MODEL 8
REMARK VINA RESULT:      -8.0      2.510      3.041
REMARK  Name = 
REMARK  6 active torsions:
REMARK  status: ('A' for Active; 'I' for Inactive)
REMARK    1  A    between atoms: C_1  and  C_2
REMARK    2  A    between atoms: C_2  and  C_3
REMARK    3  A    between atoms: N_7  and  S_8
REMARK    4  A    between atoms: S_8  and  C_11
REMARK    5  A    between atoms: C_14  and  N_15
REMARK    6  A    between atoms: C_16  and  C_18
REMARK                            x       y       z     vdW  Elec       q    Type
REMARK                         _______ _______ _______ _____ _____    ______ ____
ROOT
ATOM      1  C   UNL     1       2.776   6.418  18.859  0.00  0.00    +0.000 A 
ATOM      2  C   UNL     1       2.211   6.624  20.113  0.00  0.00    +0.000 A 
ATOM      3  C   UNL     1       1.555   7.824  20.396  0.00  0.00    +0.000 A 
ATOM      4  C   UNL     1       1.490   8.858  19.459  0.00  0.00    +0.000 A 
ATOM      5  C   UNL     1       2.105   8.662  18.214  0.00  0.00    +0.000 A 
ATOM      6  C   UNL     1       2.745   7.444  17.908  0.00  0.00    +0.000 A 
ENDROOT
BRANCH   4   7
ATOM      7  N   UNL     1       0.823  10.085  19.707  0.00  0.00    +0.000 N 
ATOM      8  C   UNL     1       0.819  10.786  20.905  0.00  0.00    +0.000 C 
ATOM      9  O   UNL     1       1.448  10.485  21.915  0.00  0.00    +0.000 OA
ATOM     10  H   UNL     1       0.316  10.488  18.926  0.00  0.00    +0.000 HD
BRANCH   8  11
ATOM     11  C   UNL     1      -0.064  11.982  21.018  0.00  0.00    +0.000 A 
ATOM     12  C   UNL     1       0.140  12.975  20.038  0.00  0.00    +0.000 A 
ATOM     13  C   UNL     1      -0.634  14.132  20.021  0.00  0.00    +0.000 A 
ATOM     14 CL   UNL     1      -0.360  15.330  18.818  0.00  0.00    +0.000 Cl
ATOM     15  C   UNL     1      -1.628  14.319  20.973  0.00  0.00    +0.000 A 
ATOM     16  C   UNL     1      -1.852  13.337  21.941  0.00  0.00    +0.000 A 
ATOM     17  C   UNL     1      -1.076  12.167  21.968  0.00  0.00    +0.000 A 
ATOM     18 CL   UNL     1      -1.475  10.997  23.172  0.00  0.00    +0.000 Cl
ENDBRANCH   8  11
ENDBRANCH   4   7
BRANCH   1  19
ATOM     19  S   UNL     1       3.601   4.868  18.525  0.00  0.00    +0.000 S 
ATOM     20  O   UNL     1       2.965   4.278  17.369  0.00  0.00    +0.000 OA
ATOM     21  O   UNL     1       3.658   4.153  19.786  0.00  0.00    +0.000 OA
BRANCH  19  26
ATOM     22  C   UNL     1       6.162   4.712  14.559  0.00  0.00    +0.000 A 
ATOM     23  N   UNL     1       5.892   5.991  14.736  0.00  0.00    +0.000 NA
ATOM     24  N   UNL     1       5.574   6.279  16.049  0.00  0.00    +0.000 NA
ATOM     25  C   UNL     1       5.506   5.196  16.785  0.00  0.00    +0.000 A 
ATOM     26  N   UNL     1       5.198   5.311  18.166  0.00  0.00    +0.000 N 
ATOM     27  S   UNL     1       5.985   3.762  15.988  0.00  0.00    +0.000 S 
ATOM     28  H   UNL     1       5.333   6.281  18.443  0.00  0.00    +0.000 HD
BRANCH  22  30
ATOM     29  C   UNL     1       5.479   3.439  12.515  0.00  0.00    +0.000 C 
ATOM     30  C   UNL     1       6.615   4.114  13.266  0.00  0.00    +0.000 C 
ENDBRANCH  22  30
ENDBRANCH  19  26
ENDBRANCH   1  19
TORSDOF 5
ENDMDL
MODEL 9
REMARK VINA RESULT:      -7.9      2.738      3.876
REMARK  Name = 
REMARK  6 active torsions:
REMARK  status: ('A' for Active; 'I' for Inactive)
REMARK    1  A    between atoms: C_1  and  C_2
REMARK    2  A    between atoms: C_2  and  C_3
REMARK    3  A    between atoms: N_7  and  S_8
REMARK    4  A    between atoms: S_8  and  C_11
REMARK    5  A    between atoms: C_14  and  N_15
REMARK    6  A    between atoms: C_16  and  C_18
REMARK                            x       y       z     vdW  Elec       q    Type
REMARK                         _______ _______ _______ _____ _____    ______ ____
ROOT
ATOM      1  C   UNL     1       2.409   7.194  18.997  0.00  0.00    +0.000 A 
ATOM      2  C   UNL     1       1.918   7.461  20.271  0.00  0.00    +0.000 A 
ATOM      3  C   UNL     1       1.171   8.617  20.504  0.00  0.00    +0.000 A 
ATOM      4  C   UNL     1       0.940   9.552  19.492  0.00  0.00    +0.000 A 
ATOM      5  C   UNL     1       1.481   9.300  18.223  0.00  0.00    +0.000 A 
ATOM      6  C   UNL     1       2.212   8.122  17.970  0.00  0.00    +0.000 A 
ENDROOT
BRANCH   4   7
ATOM      7  N   UNL     1       0.177  10.731  19.689  0.00  0.00    +0.000 N 
ATOM      8  C   UNL     1       0.476  11.761  20.569  0.00  0.00    +0.000 C 
ATOM      9  O   UNL     1       1.484  11.842  21.265  0.00  0.00    +0.000 OA
ATOM     10  H   UNL     1      -0.657  10.829  19.119  0.00  0.00    +0.000 HD
BRANCH   8  11
ATOM     11  C   UNL     1      -0.526  12.851  20.746  0.00  0.00    +0.000 A 
ATOM     12  C   UNL     1      -1.595  12.550  21.616  0.00  0.00    +0.000 A 
ATOM     13  C   UNL     1      -2.587  13.490  21.881  0.00  0.00    +0.000 A 
ATOM     14 CL   UNL     1      -3.882  13.095  22.941  0.00  0.00    +0.000 Cl
ATOM     15  C   UNL     1      -2.531  14.747  21.293  0.00  0.00    +0.000 A 
ATOM     16  C   UNL     1      -1.470  15.065  20.441  0.00  0.00    +0.000 A 
ATOM     17  C   UNL     1      -0.465  14.124  20.165  0.00  0.00    +0.000 A 
ATOM     18 CL   UNL     1       0.826  14.642  19.144  0.00  0.00    +0.000 Cl
ENDBRANCH   8  11
ENDBRANCH   4   7
BRANCH   1  19
ATOM     19  S   UNL     1       3.355   5.700  18.730  0.00  0.00    +0.000 S 
ATOM     20  O   UNL     1       2.735   4.985  17.637  0.00  0.00    +0.000 OA
ATOM     21  O   UNL     1       3.513   5.076  20.030  0.00  0.00    +0.000 OA
BRANCH  19  26
ATOM     22  C   UNL     1       6.060   4.952  14.931  0.00  0.00    +0.000 A 
ATOM     23  N   UNL     1       5.624   6.189  14.796  0.00  0.00    +0.000 NA
ATOM     24  N   UNL     1       5.224   6.734  16.000  0.00  0.00    +0.000 NA
ATOM     25  C   UNL     1       5.266   5.856  16.974  0.00  0.00    +0.000 A 
ATOM     26  N   UNL     1       4.895   6.252  18.285  0.00  0.00    +0.000 N 
ATOM     27  S   UNL     1       5.951   4.351  16.545  0.00  0.00    +0.000 S 
ATOM     28  H   UNL     1       4.896   7.269  18.323  0.00  0.00    +0.000 HD
BRANCH  22  30
ATOM     29  C   UNL     1       5.556   3.560  12.912  0.00  0.00    +0.000 C 
ATOM     30  C   UNL     1       6.633   4.130  13.821  0.00  0.00    +0.000 C 
ENDBRANCH  22  30
ENDBRANCH  19  26
ENDBRANCH   1  19
TORSDOF 5
ENDMDL
