MODEL 1
REMARK VINA RESULT:      -8.2      0.000      0.000
REMARK  Name = 
REMARK  7 active torsions:
REMARK  status: ('A' for Active; 'I' for Inactive)
REMARK    1  A    between atoms: C_1  and  C_2
REMARK    2  A    between atoms: C_2  and  C_3
REMARK    3  A    between atoms: C_2  and  S_4
REMARK    4  A    between atoms: S_4  and  C_6
REMARK    5  A    between atoms: C_8  and  C_9
REMARK    6  A    between atoms: C_16  and  C_17
REMARK    7  A    between atoms: N_22  and  C_23
REMARK                            x       y       z     vdW  Elec       q    Type
REMARK                         _______ _______ _______ _____ _____    ______ ____
ROOT
ATOM      1  C   UNL     1       4.475   5.797  17.128  0.00  0.00    +0.000 A 
ATOM      2  N   UNL     1       4.159   4.738  17.840  0.00  0.00    +0.000 NA
ATOM      3  C   UNL     1       3.253   5.191  18.790  0.00  0.00    +0.000 A 
ATOM      4  C   UNL     1       3.020   6.560  18.653  0.00  0.00    +0.000 A 
ATOM      5  N   UNL     1       3.835   6.908  17.596  0.00  0.00    +0.000 N 
ATOM      6  H   UNL     1       3.925   7.825  17.172  0.00  0.00    +0.000 HD
ENDROOT
BRANCH   4   7
ATOM      7  C   UNL     1       2.163   7.552  19.321  0.00  0.00    +0.000 A 
ATOM      8  C   UNL     1       1.599   7.336  20.573  0.00  0.00    +0.000 A 
ATOM      9  C   UNL     1       0.857   8.360  21.144  0.00  0.00    +0.000 A 
ATOM     10  N   UNL     1       0.620   9.557  20.552  0.00  0.00    +0.000 NA
ATOM     11  C   UNL     1       1.127   9.753  19.321  0.00  0.00    +0.000 A 
ATOM     12  N   UNL     1       0.928  10.944  18.607  0.00  0.00    +0.000 N 
ATOM     13  C   UNL     1       1.901   8.775  18.697  0.00  0.00    +0.000 A 
ATOM     14  H   UNL     1       0.521  10.711  17.706  0.00  0.00    +0.000 HD
BRANCH  12  15
ATOM     15  C   UNL     1       0.251  12.069  19.257  0.00  0.00    +0.000 C 
ATOM     16  C   UNL     1       0.977  12.453  20.554  0.00  0.00    +0.000 C 
ATOM     17  C   UNL     1       2.404  12.951  20.309  0.00  0.00    +0.000 C 
ATOM     18  C   UNL     1       2.494  14.060  19.263  0.00  0.00    +0.000 C 
ATOM     19  C   UNL     1       1.666  13.802  18.007  0.00  0.00    +0.000 C 
ATOM     20  C   UNL     1       0.260  13.282  18.307  0.00  0.00    +0.000 C 
ENDBRANCH  12  15
ENDBRANCH   4   7
BRANCH   3  21
ATOM     21  C   UNL     1       2.604   4.282  19.729  0.00  0.00    +0.000 A 
ATOM     22  C   UNL     1       3.213   3.908  20.939  0.00  0.00    +0.000 A 
ATOM     23  C   UNL     1       2.505   3.160  21.886  0.00  0.00    +0.000 A 
ATOM     24  C   UNL     1       1.215   2.737  21.599  0.00  0.00    +0.000 A 
ATOM     25  F   UNL     1       0.530   2.042  22.519  0.00  0.00    +0.000 F 
ATOM     26  C   UNL     1       0.619   3.036  20.381  0.00  0.00    +0.000 A 
ATOM     27  C   UNL     1       1.314   3.806  19.444  0.00  0.00    +0.000 A 
ENDBRANCH   3  21
BRANCH   1  28
ATOM     28  S   UNL     1       5.438   5.839  15.685  0.00  0.00    +0.000 S 
ATOM     29  O   UNL     1       5.139   7.227  15.007  0.00  0.00    +0.000 OA
BRANCH  28  31
ATOM     30  C   UNL     1       7.444   4.541  17.120  0.00  0.00    +0.000 C 
ATOM     31  C   UNL     1       7.129   5.834  16.374  0.00  0.00    +0.000 C 
ATOM     32  C   UNL     1       7.267   7.026  17.326  0.00  0.00    +0.000 C 
ENDBRANCH  28  31
ENDBRANCH   1  28
TORSDOF 5
ENDMDL
MODEL 2
REMARK VINA RESULT:      -8.2      4.981      7.558
REMARK  Name = 
REMARK  7 active torsions:
REMARK  status: ('A' for Active; 'I' for Inactive)
REMARK    1  A    between atoms: C_1  and  C_2
REMARK    2  A    between atoms: C_2  and  C_3
REMARK    3  A    between atoms: C_2  and  S_4
REMARK    4  A    between atoms: S_4  and  C_6
REMARK    5  A    between atoms: C_8  and  C_9
REMARK    6  A    between atoms: C_16  and  C_17
REMARK    7  A    between atoms: N_22  and  C_23
REMARK                            x       y       z     vdW  Elec       q    Type
REMARK                         _______ _______ _______ _____ _____    ______ ____
ROOT
ATOM      1  C   UNL     1       1.254  13.450  19.204  0.00  0.00    +0.000 A 
ATOM      2  N   UNL     1       1.897  12.320  19.398  0.00  0.00    +0.000 NA
ATOM      3  C   UNL     1       1.002  11.320  19.039  0.00  0.00    +0.000 A 
ATOM      4  C   UNL     1      -0.217  11.860  18.624  0.00  0.00    +0.000 A 
ATOM      5  N   UNL     1      -0.018  13.217  18.766  0.00  0.00    +0.000 N 
ATOM      6  H   UNL     1      -0.673  13.957  18.536  0.00  0.00    +0.000 HD
ENDROOT
BRANCH   4   7
ATOM      7  C   UNL     1      -1.485  11.319  18.112  0.00  0.00    +0.000 A 
ATOM      8  C   UNL     1      -1.554  10.152  17.360  0.00  0.00    +0.000 A 
ATOM      9  C   UNL     1      -2.806   9.692  16.976  0.00  0.00    +0.000 A 
ATOM     10  N   UNL     1      -3.974  10.318  17.263  0.00  0.00    +0.000 NA
ATOM     11  C   UNL     1      -3.907  11.472  17.953  0.00  0.00    +0.000 A 
ATOM     12  N   UNL     1      -5.050  12.215  18.288  0.00  0.00    +0.000 N 
ATOM     13  C   UNL     1      -2.685  11.981  18.389  0.00  0.00    +0.000 A 
ATOM     14  H   UNL     1      -4.930  13.160  17.938  0.00  0.00    +0.000 HD
BRANCH  12  15
ATOM     15  C   UNL     1      -6.376  11.668  17.993  0.00  0.00    +0.000 C 
ATOM     16  C   UNL     1      -6.785  10.646  19.062  0.00  0.00    +0.000 C 
ATOM     17  C   UNL     1      -6.927  11.268  20.453  0.00  0.00    +0.000 C 
ATOM     18  C   UNL     1      -7.823  12.504  20.483  0.00  0.00    +0.000 C 
ATOM     19  C   UNL     1      -7.564  13.491  19.347  0.00  0.00    +0.000 C 
ATOM     20  C   UNL     1      -7.405  12.815  17.985  0.00  0.00    +0.000 C 
ENDBRANCH  12  15
ENDBRANCH   4   7
BRANCH   3  21
ATOM     21  C   UNL     1       1.380   9.912  19.042  0.00  0.00    +0.000 A 
ATOM     22  C   UNL     1       1.993   9.307  17.932  0.00  0.00    +0.000 A 
ATOM     23  C   UNL     1       2.482   7.999  18.018  0.00  0.00    +0.000 A 
ATOM     24  C   UNL     1       2.308   7.279  19.191  0.00  0.00    +0.000 A 
ATOM     25  F   UNL     1       2.801   6.035  19.280  0.00  0.00    +0.000 F 
ATOM     26  C   UNL     1       1.644   7.833  20.278  0.00  0.00    +0.000 A 
ATOM     27  C   UNL     1       1.177   9.148  20.204  0.00  0.00    +0.000 A 
ENDBRANCH   3  21
BRANCH   1  28
ATOM     28  S   UNL     1       1.901  15.055  19.315  0.00  0.00    +0.000 S 
ATOM     29  O   UNL     1       2.741  15.093  20.644  0.00  0.00    +0.000 OA
BRANCH  28  31
ATOM     30  C   UNL     1       4.419  14.605  18.208  0.00  0.00    +0.000 C 
ATOM     31  C   UNL     1       3.017  15.101  17.870  0.00  0.00    +0.000 C 
ATOM     32  C   UNL     1       3.090  16.544  17.361  0.00  0.00    +0.000 C 
ENDBRANCH  28  31
ENDBRANCH   1  28
TORSDOF 5
ENDMDL
MODEL 3
REMARK VINA RESULT:      -8.2      1.867      2.779
REMARK  Name = 
REMARK  7 active torsions:
REMARK  status: ('A' for Active; 'I' for Inactive)
REMARK    1  A    between atoms: C_1  and  C_2
REMARK    2  A    between atoms: C_2  and  C_3
REMARK    3  A    between atoms: C_2  and  S_4
REMARK    4  A    between atoms: S_4  and  C_6
REMARK    5  A    between atoms: C_8  and  C_9
REMARK    6  A    between atoms: C_16  and  C_17
REMARK    7  A    between atoms: N_22  and  C_23
REMARK                            x       y       z     vdW  Elec       q    Type
REMARK                         _______ _______ _______ _____ _____    ______ ____
ROOT
ATOM      1  C   UNL     1       4.440   5.838  17.096  0.00  0.00    +0.000 A 
ATOM      2  N   UNL     1       4.087   4.846  17.883  0.00  0.00    +0.000 NA
ATOM      3  C   UNL     1       3.111   5.371  18.722  0.00  0.00    +0.000 A 
ATOM      4  C   UNL     1       2.874   6.717  18.438  0.00  0.00    +0.000 A 
ATOM      5  N   UNL     1       3.757   6.978  17.412  0.00  0.00    +0.000 N 
ATOM      6  H   UNL     1       3.867   7.852  16.909  0.00  0.00    +0.000 HD
ENDROOT
BRANCH   4   7
ATOM      7  C   UNL     1       1.962   7.752  18.949  0.00  0.00    +0.000 A 
ATOM      8  C   UNL     1       1.918   8.121  20.288  0.00  0.00    +0.000 A 
ATOM      9  C   UNL     1       1.067   9.153  20.657  0.00  0.00    +0.000 A 
ATOM     10  N   UNL     1       0.249   9.815  19.802  0.00  0.00    +0.000 NA
ATOM     11  C   UNL     1       0.256   9.430  18.513  0.00  0.00    +0.000 A 
ATOM     12  N   UNL     1      -0.564  10.031  17.544  0.00  0.00    +0.000 N 
ATOM     13  C   UNL     1       1.103   8.416  18.068  0.00  0.00    +0.000 A 
ATOM     14  H   UNL     1      -1.111   9.304  17.094  0.00  0.00    +0.000 HD
BRANCH  12  15
ATOM     15  C   UNL     1      -1.370  11.199  17.908  0.00  0.00    +0.000 C 
ATOM     16  C   UNL     1      -1.831  11.944  16.648  0.00  0.00    +0.000 C 
ATOM     17  C   UNL     1      -2.753  11.101  15.765  0.00  0.00    +0.000 C 
ATOM     18  C   UNL     1      -3.930  10.486  16.519  0.00  0.00    +0.000 C 
ATOM     19  C   UNL     1      -3.554   9.860  17.859  0.00  0.00    +0.000 C 
ATOM     20  C   UNL     1      -2.613  10.732  18.690  0.00  0.00    +0.000 C 
ENDBRANCH  12  15
ENDBRANCH   4   7
BRANCH   3  21
ATOM     21  C   UNL     1       2.408   4.543  19.696  0.00  0.00    +0.000 A 
ATOM     22  C   UNL     1       1.316   3.738  19.333  0.00  0.00    +0.000 A 
ATOM     23  C   UNL     1       0.760   2.841  20.252  0.00  0.00    +0.000 A 
ATOM     24  C   UNL     1       1.257   2.793  21.547  0.00  0.00    +0.000 A 
ATOM     25  F   UNL     1       0.740   1.915  22.418  0.00  0.00    +0.000 F 
ATOM     26  C   UNL     1       2.290   3.630  21.947  0.00  0.00    +0.000 A 
ATOM     27  C   UNL     1       2.865   4.508  21.023  0.00  0.00    +0.000 A 
ENDBRANCH   3  21
BRANCH   1  28
ATOM     28  S   UNL     1       5.501   5.761  15.726  0.00  0.00    +0.000 S 
ATOM     29  O   UNL     1       5.233   7.071  14.898  0.00  0.00    +0.000 OA
BRANCH  28  31
ATOM     30  C   UNL     1       7.453   4.606  17.346  0.00  0.00    +0.000 C 
ATOM     31  C   UNL     1       7.140   5.854  16.526  0.00  0.00    +0.000 C 
ATOM     32  C   UNL     1       7.165   7.088  17.434  0.00  0.00    +0.000 C 
ENDBRANCH  28  31
ENDBRANCH   1  28
TORSDOF 5
ENDMDL
MODEL 4
REMARK VINA RESULT:      -8.1      4.750      9.235
REMARK  Name = 
REMARK  7 active torsions:
REMARK  status: ('A' for Active; 'I' for Inactive)
REMARK    1  A    between atoms: C_1  and  C_2
REMARK    2  A    between atoms: C_2  and  C_3
REMARK    3  A    between atoms: C_2  and  S_4
REMARK    4  A    between atoms: S_4  and  C_6
REMARK    5  A    between atoms: C_8  and  C_9
REMARK    6  A    between atoms: C_16  and  C_17
REMARK    7  A    between atoms: N_22  and  C_23
REMARK                            x       y       z     vdW  Elec       q    Type
REMARK                         _______ _______ _______ _____ _____    ______ ____
ROOT
ATOM      1  C   UNL     1      -0.983  12.337  21.443  0.00  0.00    +0.000 A 
ATOM      2  N   UNL     1      -1.886  12.306  20.489  0.00  0.00    +0.000 NA
ATOM      3  C   UNL     1      -1.416  11.378  19.567  0.00  0.00    +0.000 A 
ATOM      4  C   UNL     1      -0.194  10.840  19.973  0.00  0.00    +0.000 A 
ATOM      5  N   UNL     1       0.055  11.495  21.161  0.00  0.00    +0.000 N 
ATOM      6  H   UNL     1       0.845  11.355  21.781  0.00  0.00    +0.000 HD
ENDROOT
BRANCH   4   7
ATOM      7  C   UNL     1       0.733   9.825  19.448  0.00  0.00    +0.000 A 
ATOM      8  C   UNL     1       1.502  10.028  18.309  0.00  0.00    +0.000 A 
ATOM      9  C   UNL     1       2.392   9.032  17.931  0.00  0.00    +0.000 A 
ATOM     10  N   UNL     1       2.546   7.854  18.585  0.00  0.00    +0.000 NA
ATOM     11  C   UNL     1       1.771   7.636  19.663  0.00  0.00    +0.000 A 
ATOM     12  N   UNL     1       1.832   6.445  20.404  0.00  0.00    +0.000 N 
ATOM     13  C   UNL     1       0.872   8.602  20.112  0.00  0.00    +0.000 A 
ATOM     14  H   UNL     1       0.899   6.048  20.447  0.00  0.00    +0.000 HD
BRANCH  12  15
ATOM     15  C   UNL     1       2.855   5.448  20.081  0.00  0.00    +0.000 C 
ATOM     16  C   UNL     1       2.767   4.258  21.048  0.00  0.00    +0.000 C 
ATOM     17  C   UNL     1       1.442   3.501  20.936  0.00  0.00    +0.000 C 
ATOM     18  C   UNL     1       1.087   3.094  19.507  0.00  0.00    +0.000 C 
ATOM     19  C   UNL     1       1.301   4.196  18.473  0.00  0.00    +0.000 C 
ATOM     20  C   UNL     1       2.627   4.937  18.646  0.00  0.00    +0.000 C 
ENDBRANCH  12  15
ENDBRANCH   4   7
BRANCH   3  21
ATOM     21  C   UNL     1      -2.191  11.002  18.391  0.00  0.00    +0.000 A 
ATOM     22  C   UNL     1      -3.439  11.584  18.109  0.00  0.00    +0.000 A 
ATOM     23  C   UNL     1      -4.087  11.318  16.897  0.00  0.00    +0.000 A 
ATOM     24  C   UNL     1      -3.517  10.428  15.997  0.00  0.00    +0.000 A 
ATOM     25  F   UNL     1      -4.127  10.195  14.826  0.00  0.00    +0.000 F 
ATOM     26  C   UNL     1      -2.319   9.788  16.287  0.00  0.00    +0.000 A 
ATOM     27  C   UNL     1      -1.657  10.072  17.484  0.00  0.00    +0.000 A 
ENDBRANCH   3  21
BRANCH   1  28
ATOM     28  S   UNL     1      -1.086  13.182  22.955  0.00  0.00    +0.000 S 
ATOM     29  O   UNL     1      -0.059  14.370  22.857  0.00  0.00    +0.000 OA
BRANCH  28  31
ATOM     30  C   UNL     1      -2.852  15.258  22.373  0.00  0.00    +0.000 C 
ATOM     31  C   UNL     1      -2.793  13.827  22.898  0.00  0.00    +0.000 C 
ATOM     32  C   UNL     1      -3.377  13.773  24.314  0.00  0.00    +0.000 C 
ENDBRANCH  28  31
ENDBRANCH   1  28
TORSDOF 5
ENDMDL
MODEL 5
REMARK VINA RESULT:      -8.1      3.944      8.186
REMARK  Name = 
REMARK  7 active torsions:
REMARK  status: ('A' for Active; 'I' for Inactive)
REMARK    1  A    between atoms: C_1  and  C_2
REMARK    2  A    between atoms: C_2  and  C_3
REMARK    3  A    between atoms: C_2  and  S_4
REMARK    4  A    between atoms: S_4  and  C_6
REMARK    5  A    between atoms: C_8  and  C_9
REMARK    6  A    between atoms: C_16  and  C_17
REMARK    7  A    between atoms: N_22  and  C_23
REMARK                            x       y       z     vdW  Elec       q    Type
REMARK                         _______ _______ _______ _____ _____    ______ ____
ROOT
ATOM      1  C   UNL     1       1.418  13.347  18.533  0.00  0.00    +0.000 A 
ATOM      2  N   UNL     1       0.154  13.259  18.182  0.00  0.00    +0.000 NA
ATOM      3  C   UNL     1      -0.271  12.020  18.644  0.00  0.00    +0.000 A 
ATOM      4  C   UNL     1       0.764  11.339  19.286  0.00  0.00    +0.000 A 
ATOM      5  N   UNL     1       1.826  12.211  19.173  0.00  0.00    +0.000 N 
ATOM      6  H   UNL     1       2.761  12.086  19.545  0.00  0.00    +0.000 HD
ENDROOT
BRANCH   4   7
ATOM      7  C   UNL     1       0.900  10.051  19.985  0.00  0.00    +0.000 A 
ATOM      8  C   UNL     1       0.284   9.789  21.202  0.00  0.00    +0.000 A 
ATOM      9  C   UNL     1       0.423   8.520  21.749  0.00  0.00    +0.000 A 
ATOM     10  N   UNL     1       1.146   7.519  21.187  0.00  0.00    +0.000 NA
ATOM     11  C   UNL     1       1.780   7.784  20.031  0.00  0.00    +0.000 A 
ATOM     12  N   UNL     1       2.571   6.830  19.371  0.00  0.00    +0.000 N 
ATOM     13  C   UNL     1       1.665   9.029  19.414  0.00  0.00    +0.000 A 
ATOM     14  H   UNL     1       3.495   7.226  19.228  0.00  0.00    +0.000 HD
BRANCH  12  15
ATOM     15  C   UNL     1       2.618   5.458  19.882  0.00  0.00    +0.000 C 
ATOM     16  C   UNL     1       1.542   4.598  19.204  0.00  0.00    +0.000 C 
ATOM     17  C   UNL     1       1.761   4.455  17.696  0.00  0.00    +0.000 C 
ATOM     18  C   UNL     1       3.168   3.996  17.321  0.00  0.00    +0.000 C 
ATOM     19  C   UNL     1       4.281   4.715  18.079  0.00  0.00    +0.000 C 
ATOM     20  C   UNL     1       4.002   4.852  19.575  0.00  0.00    +0.000 C 
ENDBRANCH  12  15
ENDBRANCH   4   7
BRANCH   3  21
ATOM     21  C   UNL     1      -1.657  11.585  18.513  0.00  0.00    +0.000 A 
ATOM     22  C   UNL     1      -2.695  12.189  19.242  0.00  0.00    +0.000 A 
ATOM     23  C   UNL     1      -4.030  11.856  18.984  0.00  0.00    +0.000 A 
ATOM     24  C   UNL     1      -4.321  10.880  18.041  0.00  0.00    +0.000 A 
ATOM     25  F   UNL     1      -5.601  10.581  17.777  0.00  0.00    +0.000 F 
ATOM     26  C   UNL     1      -3.307  10.220  17.359  0.00  0.00    +0.000 A 
ATOM     27  C   UNL     1      -1.975  10.570  17.596  0.00  0.00    +0.000 A 
ENDBRANCH   3  21
BRANCH   1  28
ATOM     28  S   UNL     1       2.452  14.731  18.385  0.00  0.00    +0.000 S 
ATOM     29  O   UNL     1       1.527  15.987  18.592  0.00  0.00    +0.000 OA
BRANCH  28  31
ATOM     30  C   UNL     1       2.860  14.886  21.138  0.00  0.00    +0.000 C 
ATOM     31  C   UNL     1       3.552  14.523  19.827  0.00  0.00    +0.000 C 
ATOM     32  C   UNL     1       4.782  15.415  19.630  0.00  0.00    +0.000 C 
ENDBRANCH  28  31
ENDBRANCH   1  28
TORSDOF 5
ENDMDL
MODEL 6
REMARK VINA RESULT:      -8.1      0.903      1.383
REMARK  Name = 
REMARK  7 active torsions:
REMARK  status: ('A' for Active; 'I' for Inactive)
REMARK    1  A    between atoms: C_1  and  C_2
REMARK    2  A    between atoms: C_2  and  C_3
REMARK    3  A    between atoms: C_2  and  S_4
REMARK    4  A    between atoms: S_4  and  C_6
REMARK    5  A    between atoms: C_8  and  C_9
REMARK    6  A    between atoms: C_16  and  C_17
REMARK    7  A    between atoms: N_22  and  C_23
REMARK                            x       y       z     vdW  Elec       q    Type
REMARK                         _______ _______ _______ _____ _____    ______ ____
ROOT
ATOM      1  C   UNL     1       4.262   6.289  17.325  0.00  0.00    +0.000 A 
ATOM      2  N   UNL     1       3.938   5.208  17.999  0.00  0.00    +0.000 NA
ATOM      3  C   UNL     1       3.013   5.628  18.947  0.00  0.00    +0.000 A 
ATOM      4  C   UNL     1       2.776   7.000  18.847  0.00  0.00    +0.000 A 
ATOM      5  N   UNL     1       3.609   7.383  17.816  0.00  0.00    +0.000 N 
ATOM      6  H   UNL     1       3.702   8.313  17.421  0.00  0.00    +0.000 HD
ENDROOT
BRANCH   4   7
ATOM      7  C   UNL     1       1.904   7.968  19.530  0.00  0.00    +0.000 A 
ATOM      8  C   UNL     1       1.287   7.695  20.745  0.00  0.00    +0.000 A 
ATOM      9  C   UNL     1       0.533   8.699  21.337  0.00  0.00    +0.000 A 
ATOM     10  N   UNL     1       0.333   9.927  20.799  0.00  0.00    +0.000 NA
ATOM     11  C   UNL     1       0.893  10.179  19.601  0.00  0.00    +0.000 A 
ATOM     12  N   UNL     1       0.737  11.408  18.941  0.00  0.00    +0.000 N 
ATOM     13  C   UNL     1       1.681   9.224  18.959  0.00  0.00    +0.000 A 
ATOM     14  H   UNL     1       0.365  11.226  18.014  0.00  0.00    +0.000 HD
BRANCH  12  15
ATOM     15  C   UNL     1       0.046  12.507  19.621  0.00  0.00    +0.000 C 
ATOM     16  C   UNL     1       0.788  12.890  20.909  0.00  0.00    +0.000 C 
ATOM     17  C   UNL     1       2.197  13.426  20.644  0.00  0.00    +0.000 C 
ATOM     18  C   UNL     1       2.241  14.551  19.612  0.00  0.00    +0.000 C 
ATOM     19  C   UNL     1       1.395  14.290  18.369  0.00  0.00    +0.000 C 
ATOM     20  C   UNL     1       0.008  13.733  18.689  0.00  0.00    +0.000 C 
ENDBRANCH  12  15
ENDBRANCH   4   7
BRANCH   3  21
ATOM     21  C   UNL     1       2.352   4.688  19.845  0.00  0.00    +0.000 A 
ATOM     22  C   UNL     1       1.268   3.899  19.425  0.00  0.00    +0.000 A 
ATOM     23  C   UNL     1       0.754   2.900  20.259  0.00  0.00    +0.000 A 
ATOM     24  C   UNL     1       1.284   2.729  21.530  0.00  0.00    +0.000 A 
ATOM     25  F   UNL     1       0.807   1.754  22.317  0.00  0.00    +0.000 F 
ATOM     26  C   UNL     1       2.309   3.544  21.991  0.00  0.00    +0.000 A 
ATOM     27  C   UNL     1       2.842   4.526  21.151  0.00  0.00    +0.000 A 
ENDBRANCH   3  21
BRANCH   1  28
ATOM     28  S   UNL     1       5.249   6.379  15.902  0.00  0.00    +0.000 S 
ATOM     29  O   UNL     1       6.501   7.246  16.299  0.00  0.00    +0.000 OA
BRANCH  28  31
ATOM     30  C   UNL     1       7.084   4.329  16.348  0.00  0.00    +0.000 C 
ATOM     31  C   UNL     1       5.743   4.635  15.688  0.00  0.00    +0.000 C 
ATOM     32  C   UNL     1       5.828   4.337  14.187  0.00  0.00    +0.000 C 
ENDBRANCH  28  31
ENDBRANCH   1  28
TORSDOF 5
ENDMDL
MODEL 7
REMARK VINA RESULT:      -8.0      4.784      9.222
REMARK  Name = 
REMARK  7 active torsions:
REMARK  status: ('A' for Active; 'I' for Inactive)
REMARK    1  A    between atoms: C_1  and  C_2
REMARK    2  A    between atoms: C_2  and  C_3
REMARK    3  A    between atoms: C_2  and  S_4
REMARK    4  A    between atoms: S_4  and  C_6
REMARK    5  A    between atoms: C_8  and  C_9
REMARK    6  A    between atoms: C_16  and  C_17
REMARK    7  A    between atoms: N_22  and  C_23
REMARK                            x       y       z     vdW  Elec       q    Type
REMARK                         _______ _______ _______ _____ _____    ______ ____
ROOT
ATOM      1  C   UNL     1      -1.211  11.858  21.547  0.00  0.00    +0.000 A 
ATOM      2  N   UNL     1      -2.040  11.947  20.531  0.00  0.00    +0.000 NA
ATOM      3  C   UNL     1      -1.465  11.188  19.518  0.00  0.00    +0.000 A 
ATOM      4  C   UNL     1      -0.254  10.631  19.932  0.00  0.00    +0.000 A 
ATOM      5  N   UNL     1      -0.121  11.102  21.222  0.00  0.00    +0.000 N 
ATOM      6  H   UNL     1       0.627  10.892  21.873  0.00  0.00    +0.000 HD
ENDROOT
BRANCH   4   7
ATOM      7  C   UNL     1       0.751   9.739  19.332  0.00  0.00    +0.000 A 
ATOM      8  C   UNL     1       1.560  10.126  18.271  0.00  0.00    +0.000 A 
ATOM      9  C   UNL     1       2.520   9.231  17.818  0.00  0.00    +0.000 A 
ATOM     10  N   UNL     1       2.709   7.988  18.324  0.00  0.00    +0.000 NA
ATOM     11  C   UNL     1       1.897   7.594  19.323  0.00  0.00    +0.000 A 
ATOM     12  N   UNL     1       1.989   6.322  19.909  0.00  0.00    +0.000 N 
ATOM     13  C   UNL     1       0.926   8.449  19.842  0.00  0.00    +0.000 A 
ATOM     14  H   UNL     1       1.078   5.878  19.851  0.00  0.00    +0.000 HD
BRANCH  12  15
ATOM     15  C   UNL     1       3.079   5.426  19.517  0.00  0.00    +0.000 C 
ATOM     16  C   UNL     1       3.069   4.159  20.385  0.00  0.00    +0.000 C 
ATOM     17  C   UNL     1       1.799   3.325  20.200  0.00  0.00    +0.000 C 
ATOM     18  C   UNL     1       1.480   3.011  18.740  0.00  0.00    +0.000 C 
ATOM     19  C   UNL     1       1.621   4.205  17.799  0.00  0.00    +0.000 C 
ATOM     20  C   UNL     1       2.892   5.018  18.043  0.00  0.00    +0.000 C 
ENDBRANCH  12  15
ENDBRANCH   4   7
BRANCH   3  21
ATOM     21  C   UNL     1      -2.136  10.976  18.241  0.00  0.00    +0.000 A 
ATOM     22  C   UNL     1      -1.662  10.047  17.300  0.00  0.00    +0.000 A 
ATOM     23  C   UNL     1      -2.409   9.755  16.154  0.00  0.00    +0.000 A 
ATOM     24  C   UNL     1      -3.597  10.433  15.920  0.00  0.00    +0.000 A 
ATOM     25  F   UNL     1      -4.324  10.133  14.834  0.00  0.00    +0.000 F 
ATOM     26  C   UNL     1      -4.050  11.406  16.802  0.00  0.00    +0.000 A 
ATOM     27  C   UNL     1      -3.319  11.680  17.961  0.00  0.00    +0.000 A 
ENDBRANCH   3  21
BRANCH   1  28
ATOM     28  S   UNL     1      -1.459  12.453  23.156  0.00  0.00    +0.000 S 
ATOM     29  O   UNL     1      -0.390  13.588  23.368  0.00  0.00    +0.000 OA
BRANCH  28  31
ATOM     30  C   UNL     1      -3.084  14.709  22.953  0.00  0.00    +0.000 C 
ATOM     31  C   UNL     1      -3.126  13.186  23.023  0.00  0.00    +0.000 C 
ATOM     32  C   UNL     1      -3.946  12.749  24.242  0.00  0.00    +0.000 C 
ENDBRANCH  28  31
ENDBRANCH   1  28
TORSDOF 5
ENDMDL
MODEL 8
REMARK VINA RESULT:      -8.0      1.158      2.013
REMARK  Name = 
REMARK  7 active torsions:
REMARK  status: ('A' for Active; 'I' for Inactive)
REMARK    1  A    between atoms: C_1  and  C_2
REMARK    2  A    between atoms: C_2  and  C_3
REMARK    3  A    between atoms: C_2  and  S_4
REMARK    4  A    between atoms: S_4  and  C_6
REMARK    5  A    between atoms: C_8  and  C_9
REMARK    6  A    between atoms: C_16  and  C_17
REMARK    7  A    between atoms: N_22  and  C_23
REMARK                            x       y       z     vdW  Elec       q    Type
REMARK                         _______ _______ _______ _____ _____    ______ ____
ROOT
ATOM      1  C   UNL     1       4.563   5.673  17.061  0.00  0.00    +0.000 A 
ATOM      2  N   UNL     1       4.228   4.621  17.772  0.00  0.00    +0.000 NA
ATOM      3  C   UNL     1       3.325   5.088  18.719  0.00  0.00    +0.000 A 
ATOM      4  C   UNL     1       3.114   6.461  18.579  0.00  0.00    +0.000 A 
ATOM      5  N   UNL     1       3.939   6.795  17.526  0.00  0.00    +0.000 N 
ATOM      6  H   UNL     1       4.045   7.710  17.101  0.00  0.00    +0.000 HD
ENDROOT
BRANCH   4   7
ATOM      7  C   UNL     1       2.271   7.467  19.244  0.00  0.00    +0.000 A 
ATOM      8  C   UNL     1       1.985   7.428  20.603  0.00  0.00    +0.000 A 
ATOM      9  C   UNL     1       1.231   8.460  21.145  0.00  0.00    +0.000 A 
ATOM     10  N   UNL     1       0.726   9.497  20.432  0.00  0.00    +0.000 NA
ATOM     11  C   UNL     1       0.963   9.513  19.107  0.00  0.00    +0.000 A 
ATOM     12  N   UNL     1       0.473  10.527  18.268  0.00  0.00    +0.000 N 
ATOM     13  C   UNL     1       1.732   8.521  18.500  0.00  0.00    +0.000 A 
ATOM     14  H   UNL     1      -0.059  10.092  17.521  0.00  0.00    +0.000 HD
BRANCH  12  15
ATOM     15  C   UNL     1      -0.217  11.677  18.857  0.00  0.00    +0.000 C 
ATOM     16  C   UNL     1      -0.735  12.611  17.755  0.00  0.00    +0.000 C 
ATOM     17  C   UNL     1      -1.786  11.948  16.862  0.00  0.00    +0.000 C 
ATOM     18  C   UNL     1      -2.932  11.303  17.639  0.00  0.00    +0.000 C 
ATOM     19  C   UNL     1      -2.483  10.481  18.844  0.00  0.00    +0.000 C 
ATOM     20  C   UNL     1      -1.415  11.178  19.687  0.00  0.00    +0.000 C 
ENDBRANCH  12  15
ENDBRANCH   4   7
BRANCH   3  21
ATOM     21  C   UNL     1       2.658   4.190  19.656  0.00  0.00    +0.000 A 
ATOM     22  C   UNL     1       3.362   3.528  20.675  0.00  0.00    +0.000 A 
ATOM     23  C   UNL     1       2.675   2.796  21.650  0.00  0.00    +0.000 A 
ATOM     24  C   UNL     1       1.295   2.678  21.572  0.00  0.00    +0.000 A 
ATOM     25  F   UNL     1       0.637   1.998  22.521  0.00  0.00    +0.000 F 
ATOM     26  C   UNL     1       0.586   3.267  20.533  0.00  0.00    +0.000 A 
ATOM     27  C   UNL     1       1.267   4.021  19.573  0.00  0.00    +0.000 A 
ENDBRANCH   3  21
BRANCH   1  28
ATOM     28  S   UNL     1       5.532   5.700  15.622  0.00  0.00    +0.000 S 
ATOM     29  O   UNL     1       5.194   7.055  14.898  0.00  0.00    +0.000 OA
BRANCH  28  31
ATOM     30  C   UNL     1       7.556   4.528  17.138  0.00  0.00    +0.000 C 
ATOM     31  C   UNL     1       7.218   5.769  16.318  0.00  0.00    +0.000 C 
ATOM     32  C   UNL     1       7.326   7.016  17.202  0.00  0.00    +0.000 C 
ENDBRANCH  28  31
ENDBRANCH   1  28
TORSDOF 5
ENDMDL
MODEL 9
REMARK VINA RESULT:      -8.0      2.075      2.851
REMARK  Name = 
REMARK  7 active torsions:
REMARK  status: ('A' for Active; 'I' for Inactive)
REMARK    1  A    between atoms: C_1  and  C_2
REMARK    2  A    between atoms: C_2  and  C_3
REMARK    3  A    between atoms: C_2  and  S_4
REMARK    4  A    between atoms: S_4  and  C_6
REMARK    5  A    between atoms: C_8  and  C_9
REMARK    6  A    between atoms: C_16  and  C_17
REMARK    7  A    between atoms: N_22  and  C_23
REMARK                            x       y       z     vdW  Elec       q    Type
REMARK                         _______ _______ _______ _____ _____    ______ ____
ROOT
ATOM      1  C   UNL     1       4.806   6.090  16.947  0.00  0.00    +0.000 A 
ATOM      2  N   UNL     1       4.515   5.023  17.657  0.00  0.00    +0.000 NA
ATOM      3  C   UNL     1       3.492   5.417  18.512  0.00  0.00    +0.000 A 
ATOM      4  C   UNL     1       3.163   6.759  18.317  0.00  0.00    +0.000 A 
ATOM      5  N   UNL     1       4.039   7.153  17.328  0.00  0.00    +0.000 N 
ATOM      6  H   UNL     1       4.092   8.066  16.889  0.00  0.00    +0.000 HD
ENDROOT
BRANCH   4   7
ATOM      7  C   UNL     1       2.172   7.689  18.881  0.00  0.00    +0.000 A 
ATOM      8  C   UNL     1       2.019   7.886  20.248  0.00  0.00    +0.000 A 
ATOM      9  C   UNL     1       1.099   8.833  20.676  0.00  0.00    +0.000 A 
ATOM     10  N   UNL     1       0.312   9.566  19.850  0.00  0.00    +0.000 NA
ATOM     11  C   UNL     1       0.426   9.345  18.527  0.00  0.00    +0.000 A 
ATOM     12  N   UNL     1      -0.351  10.032  17.581  0.00  0.00    +0.000 N 
ATOM     13  C   UNL     1       1.346   8.426  18.026  0.00  0.00    +0.000 A 
ATOM     14  H   UNL     1      -0.832   9.347  17.006  0.00  0.00    +0.000 HD
BRANCH  12  15
ATOM     15  C   UNL     1      -1.232  11.116  18.023  0.00  0.00    +0.000 C 
ATOM     16  C   UNL     1      -1.741  11.918  16.817  0.00  0.00    +0.000 C 
ATOM     17  C   UNL     1      -2.606  11.081  15.872  0.00  0.00    +0.000 C 
ATOM     18  C   UNL     1      -3.740  10.338  16.574  0.00  0.00    +0.000 C 
ATOM     19  C   UNL     1      -3.324   9.643  17.868  0.00  0.00    +0.000 C 
ATOM     20  C   UNL     1      -2.442  10.513  18.763  0.00  0.00    +0.000 C 
ENDBRANCH  12  15
ENDBRANCH   4   7
BRANCH   3  21
ATOM     21  C   UNL     1       2.838   4.476  19.413  0.00  0.00    +0.000 A 
ATOM     22  C   UNL     1       3.572   3.624  20.256  0.00  0.00    +0.000 A 
ATOM     23  C   UNL     1       2.920   2.844  21.217  0.00  0.00    +0.000 A 
ATOM     24  C   UNL     1       1.535   2.870  21.295  0.00  0.00    +0.000 A 
ATOM     25  F   UNL     1       0.914   2.141  22.233  0.00  0.00    +0.000 F 
ATOM     26  C   UNL     1       0.785   3.652  20.425  0.00  0.00    +0.000 A 
ATOM     27  C   UNL     1       1.435   4.453  19.482  0.00  0.00    +0.000 A 
ENDBRANCH   3  21
BRANCH   1  28
ATOM     28  S   UNL     1       5.888   6.184  15.595  0.00  0.00    +0.000 S 
ATOM     29  O   UNL     1       7.337   6.259  16.205  0.00  0.00    +0.000 OA
BRANCH  28  31
ATOM     30  C   UNL     1       5.937   3.402  15.748  0.00  0.00    +0.000 C 
ATOM     31  C   UNL     1       5.629   4.560  14.804  0.00  0.00    +0.000 C 
ATOM     32  C   UNL     1       6.533   4.473  13.570  0.00  0.00    +0.000 C 
ENDBRANCH  28  31
ENDBRANCH   1  28
TORSDOF 5
ENDMDL
