MODEL 1
REMARK VINA RESULT:      -6.7      0.000      0.000
REMARK  Name = 
REMARK  8 active torsions:
REMARK  status: ('A' for Active; 'I' for Inactive)
REMARK    1  A    between atoms: C_1  and  O_2
REMARK    2  A    between atoms: O_2  and  C_3
REMARK    3  A    between atoms: C_8  and  O_9
REMARK    4  A    between atoms: O_9  and  C_10
REMARK    5  A    between atoms: C_11  and  C_12
REMARK    6  A    between atoms: N_22  and  C_23
REMARK    7  A    between atoms: C_23  and  C_24
REMARK    8  A    between atoms: C_23  and  C_25
REMARK                            x       y       z     vdW  Elec       q    Type
REMARK                         _______ _______ _______ _____ _____    ______ ____
ROOT
ATOM      1  C   UNL     1      -3.886  11.552  18.371  0.00  0.00    +0.000 A 
ATOM      2  C   UNL     1      -3.206  11.912  19.542  0.00  0.00    +0.000 A 
ATOM      3  C   UNL     1      -1.811  12.007  19.559  0.00  0.00    +0.000 A 
ATOM      4  C   UNL     1      -1.073  11.650  18.424  0.00  0.00    +0.000 A 
ATOM      5  C   UNL     1      -1.762  11.348  17.233  0.00  0.00    +0.000 A 
ATOM      6  C   UNL     1      -3.165  11.335  17.186  0.00  0.00    +0.000 A 
ATOM      7  C   UNL     1       0.453  11.586  18.495  0.00  0.00    +0.000 C 
ATOM      8  N   UNL     1       1.033  12.645  19.342  0.00  0.00    +0.000 N 
ATOM      9  C   UNL     1       2.271  13.141  18.944  0.00  0.00    +0.000 C 
ATOM     10  O   UNL     1       2.887  12.698  17.979  0.00  0.00    +0.000 OA
ATOM     11  N   UNL     1       2.745  14.204  19.673  0.00  0.00    +0.000 N 
ATOM     12  C   UNL     1       0.199  13.246  20.394  0.00  0.00    +0.000 C 
ATOM     13  C   UNL     1      -1.074  12.475  20.777  0.00  0.00    +0.000 C 
ATOM     14  H   UNL     1       2.442  14.278  20.627  0.00  0.00    +0.000 HD
ENDROOT
BRANCH   7  15
ATOM     15  C   UNL     1       0.966  10.194  18.904  0.00  0.00    +0.000 A 
ATOM     16  C   UNL     1       1.600   9.375  17.952  0.00  0.00    +0.000 A 
ATOM     17  C   UNL     1       2.101   8.119  18.308  0.00  0.00    +0.000 A 
ATOM     18  C   UNL     1       1.967   7.659  19.617  0.00  0.00    +0.000 A 
ATOM     19 CL   UNL     1       2.603   6.125  20.061  0.00  0.00    +0.000 Cl
ATOM     20  C   UNL     1       1.329   8.444  20.570  0.00  0.00    +0.000 A 
ATOM     21  C   UNL     1       0.838   9.702  20.214  0.00  0.00    +0.000 A 
ENDBRANCH   7  15
BRANCH  11  22
ATOM     22  C   UNL     1       4.033  14.822  19.362  0.00  0.00    +0.000 C 
ATOM     23  C   UNL     1       3.814  16.119  18.589  0.00  0.00    +0.000 C 
ATOM     24  C   UNL     1       4.838  15.088  20.633  0.00  0.00    +0.000 C 
ENDBRANCH  11  22
BRANCH   1  26
ATOM     25  C   UNL     1      -5.911  12.782  18.526  0.00  0.00    +0.000 C 
ATOM     26  O   UNL     1      -5.253  11.519  18.513  0.00  0.00    +0.000 OA
ENDBRANCH   1  26
BRANCH   6  27
ATOM     27  O   UNL     1      -3.888  11.141  16.041  0.00  0.00    +0.000 OA
ATOM     28  C   UNL     1      -3.290  10.445  14.959  0.00  0.00    +0.000 C 
ENDBRANCH   6  27
TORSDOF 4
ENDMDL
MODEL 2
REMARK VINA RESULT:      -6.6      1.010      1.026
REMARK  Name = 
REMARK  8 active torsions:
REMARK  status: ('A' for Active; 'I' for Inactive)
REMARK    1  A    between atoms: C_1  and  O_2
REMARK    2  A    between atoms: O_2  and  C_3
REMARK    3  A    between atoms: C_8  and  O_9
REMARK    4  A    between atoms: O_9  and  C_10
REMARK    5  A    between atoms: C_11  and  C_12
REMARK    6  A    between atoms: N_22  and  C_23
REMARK    7  A    between atoms: C_23  and  C_24
REMARK    8  A    between atoms: C_23  and  C_25
REMARK                            x       y       z     vdW  Elec       q    Type
REMARK                         _______ _______ _______ _____ _____    ______ ____
ROOT
ATOM      1  C   UNL     1      -4.493  11.319  17.753  0.00  0.00    +0.000 A 
ATOM      2  C   UNL     1      -4.001  11.813  18.968  0.00  0.00    +0.000 A 
ATOM      3  C   UNL     1      -2.635  12.059  19.140  0.00  0.00    +0.000 A 
ATOM      4  C   UNL     1      -1.732  11.723  18.124  0.00  0.00    +0.000 A 
ATOM      5  C   UNL     1      -2.237  11.285  16.884  0.00  0.00    +0.000 A 
ATOM      6  C   UNL     1      -3.615  11.118  16.676  0.00  0.00    +0.000 A 
ATOM      7  C   UNL     1      -0.227  11.829  18.375  0.00  0.00    +0.000 C 
ATOM      8  N   UNL     1       0.135  12.988  19.212  0.00  0.00    +0.000 N 
ATOM      9  C   UNL     1       1.356  13.592  18.927  0.00  0.00    +0.000 C 
ATOM     10  O   UNL     1       2.127  13.168  18.071  0.00  0.00    +0.000 OA
ATOM     11  N   UNL     1       1.629  14.739  19.634  0.00  0.00    +0.000 N 
ATOM     12  C   UNL     1      -0.877  13.551  20.118  0.00  0.00    +0.000 C 
ATOM     13  C   UNL     1      -2.102  12.669  20.401  0.00  0.00    +0.000 C 
ATOM     14  H   UNL     1       1.205  14.830  20.539  0.00  0.00    +0.000 HD
ENDROOT
BRANCH   7  15
ATOM     15  C   UNL     1       0.370  10.524  18.932  0.00  0.00    +0.000 A 
ATOM     16  C   UNL     1       1.163   9.709  18.103  0.00  0.00    +0.000 A 
ATOM     17  C   UNL     1       1.741   8.534  18.596  0.00  0.00    +0.000 A 
ATOM     18  C   UNL     1       1.527   8.153  19.920  0.00  0.00    +0.000 A 
ATOM     19 CL   UNL     1       2.255   6.721  20.533  0.00  0.00    +0.000 Cl
ATOM     20  C   UNL     1       0.733   8.934  20.751  0.00  0.00    +0.000 A 
ATOM     21  C   UNL     1       0.165  10.112  20.259  0.00  0.00    +0.000 A 
ENDBRANCH   7  15
BRANCH  11  22
ATOM     22  C   UNL     1       2.876  15.474  19.434  0.00  0.00    +0.000 C 
ATOM     23  C   UNL     1       2.599  16.975  19.429  0.00  0.00    +0.000 C 
ATOM     24  C   UNL     1       3.901  15.124  20.511  0.00  0.00    +0.000 C 
ENDBRANCH  11  22
BRANCH   1  26
ATOM     25  C   UNL     1      -6.411  10.452  18.853  0.00  0.00    +0.000 C 
ATOM     26  O   UNL     1      -5.856  11.146  17.738  0.00  0.00    +0.000 OA
ENDBRANCH   1  26
BRANCH   6  27
ATOM     27  O   UNL     1      -4.170  10.786  15.471  0.00  0.00    +0.000 OA
ATOM     28  C   UNL     1      -3.354  10.177  14.482  0.00  0.00    +0.000 C 
ENDBRANCH   6  27
TORSDOF 4
ENDMDL
MODEL 3
REMARK VINA RESULT:      -6.6      0.941      1.330
REMARK  Name = 
REMARK  8 active torsions:
REMARK  status: ('A' for Active; 'I' for Inactive)
REMARK    1  A    between atoms: C_1  and  O_2
REMARK    2  A    between atoms: O_2  and  C_3
REMARK    3  A    between atoms: C_8  and  O_9
REMARK    4  A    between atoms: O_9  and  C_10
REMARK    5  A    between atoms: C_11  and  C_12
REMARK    6  A    between atoms: N_22  and  C_23
REMARK    7  A    between atoms: C_23  and  C_24
REMARK    8  A    between atoms: C_23  and  C_25
REMARK                            x       y       z     vdW  Elec       q    Type
REMARK                         _______ _______ _______ _____ _____    ______ ____
ROOT
ATOM      1  C   UNL     1      -4.465  11.285  17.822  0.00  0.00    +0.000 A 
ATOM      2  C   UNL     1      -3.960  11.790  19.027  0.00  0.00    +0.000 A 
ATOM      3  C   UNL     1      -2.596  12.060  19.176  0.00  0.00    +0.000 A 
ATOM      4  C   UNL     1      -1.706  11.737  18.144  0.00  0.00    +0.000 A 
ATOM      5  C   UNL     1      -2.224  11.288  16.915  0.00  0.00    +0.000 A 
ATOM      6  C   UNL     1      -3.602  11.097  16.730  0.00  0.00    +0.000 A 
ATOM      7  C   UNL     1      -0.199  11.868  18.369  0.00  0.00    +0.000 C 
ATOM      8  N   UNL     1       0.158  13.035  19.198  0.00  0.00    +0.000 N 
ATOM      9  C   UNL     1       1.364  13.660  18.892  0.00  0.00    +0.000 C 
ATOM     10  O   UNL     1       2.127  13.247  18.024  0.00  0.00    +0.000 OA
ATOM     11  N   UNL     1       1.629  14.812  19.592  0.00  0.00    +0.000 N 
ATOM     12  C   UNL     1      -0.847  13.582  20.121  0.00  0.00    +0.000 C 
ATOM     13  C   UNL     1      -2.053  12.681  20.426  0.00  0.00    +0.000 C 
ATOM     14  H   UNL     1       1.219  14.898  20.504  0.00  0.00    +0.000 HD
ENDROOT
BRANCH   7  15
ATOM     15  C   UNL     1       0.430  10.575  18.918  0.00  0.00    +0.000 A 
ATOM     16  C   UNL     1       0.199  10.198  20.254  0.00  0.00    +0.000 A 
ATOM     17  C   UNL     1       0.735   9.012  20.766  0.00  0.00    +0.000 A 
ATOM     18  C   UNL     1       1.517   8.192  19.954  0.00  0.00    +0.000 A 
ATOM     19 CL   UNL     1       2.158   6.722  20.576  0.00  0.00    +0.000 Cl
ATOM     20  C   UNL     1       1.772   8.553  18.637  0.00  0.00    +0.000 A 
ATOM     21  C   UNL     1       1.228   9.733  18.125  0.00  0.00    +0.000 A 
ENDBRANCH   7  15
BRANCH  11  22
ATOM     22  C   UNL     1       2.860  15.568  19.370  0.00  0.00    +0.000 C 
ATOM     23  C   UNL     1       2.559  16.821  18.553  0.00  0.00    +0.000 C 
ATOM     24  C   UNL     1       3.525  15.941  20.694  0.00  0.00    +0.000 C 
ENDBRANCH  11  22
BRANCH   1  26
ATOM     25  C   UNL     1      -6.626  12.251  17.633  0.00  0.00    +0.000 C 
ATOM     26  O   UNL     1      -5.825  11.089  17.830  0.00  0.00    +0.000 OA
ENDBRANCH   1  26
BRANCH   6  27
ATOM     27  O   UNL     1      -4.172  10.754  15.536  0.00  0.00    +0.000 OA
ATOM     28  C   UNL     1      -3.353  10.202  14.516  0.00  0.00    +0.000 C 
ENDBRANCH   6  27
TORSDOF 4
ENDMDL
MODEL 4
REMARK VINA RESULT:      -6.4      3.071      6.728
REMARK  Name = 
REMARK  8 active torsions:
REMARK  status: ('A' for Active; 'I' for Inactive)
REMARK    1  A    between atoms: C_1  and  O_2
REMARK    2  A    between atoms: O_2  and  C_3
REMARK    3  A    between atoms: C_8  and  O_9
REMARK    4  A    between atoms: O_9  and  C_10
REMARK    5  A    between atoms: C_11  and  C_12
REMARK    6  A    between atoms: N_22  and  C_23
REMARK    7  A    between atoms: C_23  and  C_24
REMARK    8  A    between atoms: C_23  and  C_25
REMARK                            x       y       z     vdW  Elec       q    Type
REMARK                         _______ _______ _______ _____ _____    ______ ____
ROOT
ATOM      1  C   UNL     1       2.740   6.931  19.514  0.00  0.00    +0.000 A 
ATOM      2  C   UNL     1       1.912   7.513  20.482  0.00  0.00    +0.000 A 
ATOM      3  C   UNL     1       1.153   8.650  20.186  0.00  0.00    +0.000 A 
ATOM      4  C   UNL     1       1.289   9.273  18.940  0.00  0.00    +0.000 A 
ATOM      5  C   UNL     1       2.075   8.652  17.951  0.00  0.00    +0.000 A 
ATOM      6  C   UNL     1       2.772   7.462  18.214  0.00  0.00    +0.000 A 
ATOM      7  C   UNL     1       0.595  10.610  18.676  0.00  0.00    +0.000 C 
ATOM      8  N   UNL     1      -0.734  10.702  19.310  0.00  0.00    +0.000 N 
ATOM      9  C   UNL     1      -1.693  11.437  18.619  0.00  0.00    +0.000 C 
ATOM     10  O   UNL     1      -1.453  12.029  17.571  0.00  0.00    +0.000 OA
ATOM     11  N   UNL     1      -2.956  11.418  19.160  0.00  0.00    +0.000 N 
ATOM     12  C   UNL     1      -1.019   9.860  20.481  0.00  0.00    +0.000 C 
ATOM     13  C   UNL     1       0.196   9.233  21.181  0.00  0.00    +0.000 C 
ATOM     14  H   UNL     1      -3.028  11.276  20.152  0.00  0.00    +0.000 HD
ENDROOT
BRANCH   7  15
ATOM     15  C   UNL     1       1.479  11.815  19.046  0.00  0.00    +0.000 A 
ATOM     16  C   UNL     1       2.325  12.385  18.077  0.00  0.00    +0.000 A 
ATOM     17  C   UNL     1       3.114  13.499  18.381  0.00  0.00    +0.000 A 
ATOM     18  C   UNL     1       3.077  14.053  19.659  0.00  0.00    +0.000 A 
ATOM     19 CL   UNL     1       4.030  15.436  20.028  0.00  0.00    +0.000 Cl
ATOM     20  C   UNL     1       2.261  13.496  20.637  0.00  0.00    +0.000 A 
ATOM     21  C   UNL     1       1.467  12.389  20.329  0.00  0.00    +0.000 A 
ENDBRANCH   7  15
BRANCH  11  22
ATOM     22  C   UNL     1      -4.058  12.147  18.537  0.00  0.00    +0.000 C 
ATOM     23  C   UNL     1      -4.796  11.237  17.559  0.00  0.00    +0.000 C 
ATOM     24  C   UNL     1      -5.024  12.692  19.589  0.00  0.00    +0.000 C 
ENDBRANCH  11  22
BRANCH   1  26
ATOM     25  C   UNL     1       2.588   4.731  20.396  0.00  0.00    +0.000 C 
ATOM     26  O   UNL     1       3.406   5.812  19.955  0.00  0.00    +0.000 OA
ENDBRANCH   1  26
BRANCH   6  27
ATOM     27  O   UNL     1       3.473   6.763  17.271  0.00  0.00    +0.000 OA
ATOM     28  C   UNL     1       4.863   7.011  17.124  0.00  0.00    +0.000 C 
ENDBRANCH   6  27
TORSDOF 4
ENDMDL
MODEL 5
REMARK VINA RESULT:      -6.0      1.322      1.791
REMARK  Name = 
REMARK  8 active torsions:
REMARK  status: ('A' for Active; 'I' for Inactive)
REMARK    1  A    between atoms: C_1  and  O_2
REMARK    2  A    between atoms: O_2  and  C_3
REMARK    3  A    between atoms: C_8  and  O_9
REMARK    4  A    between atoms: O_9  and  C_10
REMARK    5  A    between atoms: C_11  and  C_12
REMARK    6  A    between atoms: N_22  and  C_23
REMARK    7  A    between atoms: C_23  and  C_24
REMARK    8  A    between atoms: C_23  and  C_25
REMARK                            x       y       z     vdW  Elec       q    Type
REMARK                         _______ _______ _______ _____ _____    ______ ____
ROOT
ATOM      1  C   UNL     1      -3.783  12.427  20.771  0.00  0.00    +0.000 A 
ATOM      2  C   UNL     1      -2.699  12.670  21.625  0.00  0.00    +0.000 A 
ATOM      3  C   UNL     1      -1.387  12.652  21.139  0.00  0.00    +0.000 A 
ATOM      4  C   UNL     1      -1.142  12.296  19.808  0.00  0.00    +0.000 A 
ATOM      5  C   UNL     1      -2.235  12.112  18.940  0.00  0.00    +0.000 A 
ATOM      6  C   UNL     1      -3.557  12.214  19.402  0.00  0.00    +0.000 A 
ATOM      7  C   UNL     1       0.296  12.105  19.322  0.00  0.00    +0.000 C 
ATOM      8  N   UNL     1       1.237  13.069  19.923  0.00  0.00    +0.000 N 
ATOM      9  C   UNL     1       2.292  13.483  19.114  0.00  0.00    +0.000 C 
ATOM     10  O   UNL     1       2.478  13.043  17.984  0.00  0.00    +0.000 OA
ATOM     11  N   UNL     1       3.093  14.466  19.643  0.00  0.00    +0.000 N 
ATOM     12  C   UNL     1       0.895  13.679  21.216  0.00  0.00    +0.000 C 
ATOM     13  C   UNL     1      -0.223  12.995  22.018  0.00  0.00    +0.000 C 
ATOM     14  H   UNL     1       3.159  14.514  20.644  0.00  0.00    +0.000 HD
ENDROOT
BRANCH   7  15
ATOM     15  C   UNL     1       0.788  10.657  19.492  0.00  0.00    +0.000 A 
ATOM     16  C   UNL     1       1.307   9.961  18.384  0.00  0.00    +0.000 A 
ATOM     17  C   UNL     1       1.788   8.655  18.521  0.00  0.00    +0.000 A 
ATOM     18  C   UNL     1       1.749   8.023  19.762  0.00  0.00    +0.000 A 
ATOM     19 CL   UNL     1       2.362   6.425  19.936  0.00  0.00    +0.000 Cl
ATOM     20  C   UNL     1       1.226   8.685  20.866  0.00  0.00    +0.000 A 
ATOM     21  C   UNL     1       0.755   9.993  20.729  0.00  0.00    +0.000 A 
ENDBRANCH   7  15
BRANCH  11  22
ATOM     22  C   UNL     1       4.236  14.993  18.901  0.00  0.00    +0.000 C 
ATOM     23  C   UNL     1       3.854  16.304  18.221  0.00  0.00    +0.000 C 
ATOM     24  C   UNL     1       5.441  15.198  19.817  0.00  0.00    +0.000 C 
ENDBRANCH  11  22
BRANCH   1  26
ATOM     25  C   UNL     1      -4.993  12.957  22.745  0.00  0.00    +0.000 C 
ATOM     26  O   UNL     1      -5.005  12.496  21.396  0.00  0.00    +0.000 OA
ENDBRANCH   1  26
BRANCH   6  27
ATOM     27  O   UNL     1      -4.656  12.139  18.592  0.00  0.00    +0.000 OA
ATOM     28  C   UNL     1      -5.109  10.864  18.163  0.00  0.00    +0.000 C 
ENDBRANCH   6  27
TORSDOF 4
ENDMDL
MODEL 6
REMARK VINA RESULT:      -5.8      2.807      3.778
REMARK  Name = 
REMARK  8 active torsions:
REMARK  status: ('A' for Active; 'I' for Inactive)
REMARK    1  A    between atoms: C_1  and  O_2
REMARK    2  A    between atoms: O_2  and  C_3
REMARK    3  A    between atoms: C_8  and  O_9
REMARK    4  A    between atoms: O_9  and  C_10
REMARK    5  A    between atoms: C_11  and  C_12
REMARK    6  A    between atoms: N_22  and  C_23
REMARK    7  A    between atoms: C_23  and  C_24
REMARK    8  A    between atoms: C_23  and  C_25
REMARK                            x       y       z     vdW  Elec       q    Type
REMARK                         _______ _______ _______ _____ _____    ______ ____
ROOT
ATOM      1  C   UNL     1      -6.159  12.730  21.867  0.00  0.00    +0.000 A 
ATOM      2  C   UNL     1      -5.131  13.341  22.597  0.00  0.00    +0.000 A 
ATOM      3  C   UNL     1      -3.872  13.547  22.025  0.00  0.00    +0.000 A 
ATOM      4  C   UNL     1      -3.599  13.057  20.743  0.00  0.00    +0.000 A 
ATOM      5  C   UNL     1      -4.651  12.498  19.991  0.00  0.00    +0.000 A 
ATOM      6  C   UNL     1      -5.941  12.367  20.528  0.00  0.00    +0.000 A 
ATOM      7  C   UNL     1      -2.177  13.126  20.186  0.00  0.00    +0.000 C 
ATOM      8  N   UNL     1      -1.467  14.359  20.577  0.00  0.00    +0.000 N 
ATOM      9  C   UNL     1      -0.571  14.873  19.644  0.00  0.00    +0.000 C 
ATOM     10  O   UNL     1      -0.329  14.319  18.576  0.00  0.00    +0.000 OA
ATOM     11  N   UNL     1      -0.005  16.082  19.970  0.00  0.00    +0.000 N 
ATOM     12  C   UNL     1      -1.895  15.066  21.792  0.00  0.00    +0.000 C 
ATOM     13  C   UNL     1      -2.789  14.277  22.760  0.00  0.00    +0.000 C 
ATOM     14  H   UNL     1       0.085  16.297  20.947  0.00  0.00    +0.000 HD
ENDROOT
BRANCH   7  15
ATOM     15  C   UNL     1      -1.351  11.872  20.521  0.00  0.00    +0.000 A 
ATOM     16  C   UNL     1      -0.947  11.004  19.489  0.00  0.00    +0.000 A 
ATOM     17  C   UNL     1      -0.171   9.874  19.766  0.00  0.00    +0.000 A 
ATOM     18  C   UNL     1       0.205   9.590  21.078  0.00  0.00    +0.000 A 
ATOM     19 CL   UNL     1       1.179   8.214  21.416  0.00  0.00    +0.000 Cl
ATOM     20  C   UNL     1      -0.196  10.424  22.114  0.00  0.00    +0.000 A 
ATOM     21  C   UNL     1      -0.963  11.556  21.835  0.00  0.00    +0.000 A 
ENDBRANCH   7  15
BRANCH  11  22
ATOM     22  C   UNL     1       0.954  16.734  19.081  0.00  0.00    +0.000 C 
ATOM     23  C   UNL     1       0.683  18.236  19.038  0.00  0.00    +0.000 C 
ATOM     24  C   UNL     1       2.391  16.464  19.524  0.00  0.00    +0.000 C 
ENDBRANCH  11  22
BRANCH   1  26
ATOM     25  C   UNL     1      -7.253  12.795  23.973  0.00  0.00    +0.000 C 
ATOM     26  O   UNL     1      -7.339  12.615  22.562  0.00  0.00    +0.000 OA
ENDBRANCH   1  26
BRANCH   6  27
ATOM     27  O   UNL     1      -7.021  11.920  19.818  0.00  0.00    +0.000 OA
ATOM     28  C   UNL     1      -6.804  11.133  18.658  0.00  0.00    +0.000 C 
ENDBRANCH   6  27
TORSDOF 4
ENDMDL
MODEL 7
REMARK VINA RESULT:      -5.7      2.871      3.911
REMARK  Name = 
REMARK  8 active torsions:
REMARK  status: ('A' for Active; 'I' for Inactive)
REMARK    1  A    between atoms: C_1  and  O_2
REMARK    2  A    between atoms: O_2  and  C_3
REMARK    3  A    between atoms: C_8  and  O_9
REMARK    4  A    between atoms: O_9  and  C_10
REMARK    5  A    between atoms: C_11  and  C_12
REMARK    6  A    between atoms: N_22  and  C_23
REMARK    7  A    between atoms: C_23  and  C_24
REMARK    8  A    between atoms: C_23  and  C_25
REMARK                            x       y       z     vdW  Elec       q    Type
REMARK                         _______ _______ _______ _____ _____    ______ ____
ROOT
ATOM      1  C   UNL     1      -6.025  12.404  22.032  0.00  0.00    +0.000 A 
ATOM      2  C   UNL     1      -4.996  13.014  22.761  0.00  0.00    +0.000 A 
ATOM      3  C   UNL     1      -3.769  13.310  22.157  0.00  0.00    +0.000 A 
ATOM      4  C   UNL     1      -3.527  12.911  20.837  0.00  0.00    +0.000 A 
ATOM      5  C   UNL     1      -4.583  12.353  20.091  0.00  0.00    +0.000 A 
ATOM      6  C   UNL     1      -5.845  12.132  20.666  0.00  0.00    +0.000 A 
ATOM      7  C   UNL     1      -2.132  13.077  20.234  0.00  0.00    +0.000 C 
ATOM      8  N   UNL     1      -1.459  14.314  20.675  0.00  0.00    +0.000 N 
ATOM      9  C   UNL     1      -0.623  14.923  19.743  0.00  0.00    +0.000 C 
ATOM     10  O   UNL     1      -0.400  14.445  18.635  0.00  0.00    +0.000 OA
ATOM     11  N   UNL     1      -0.096  16.133  20.123  0.00  0.00    +0.000 N 
ATOM     12  C   UNL     1      -1.868  14.927  21.947  0.00  0.00    +0.000 C 
ATOM     13  C   UNL     1      -2.690  14.041  22.896  0.00  0.00    +0.000 C 
ATOM     14  H   UNL     1       0.024  16.292  21.107  0.00  0.00    +0.000 HD
ENDROOT
BRANCH   7  15
ATOM     15  C   UNL     1      -1.242  11.842  20.460  0.00  0.00    +0.000 A 
ATOM     16  C   UNL     1      -0.811  11.519  21.760  0.00  0.00    +0.000 A 
ATOM     17  C   UNL     1      -0.026  10.385  21.993  0.00  0.00    +0.000 A 
ATOM     18  C   UNL     1       0.347   9.563  20.931  0.00  0.00    +0.000 A 
ATOM     19 CL   UNL     1       1.292   8.156  21.219  0.00  0.00    +0.000 Cl
ATOM     20  C   UNL     1      -0.054   9.872  19.636  0.00  0.00    +0.000 A 
ATOM     21  C   UNL     1      -0.845  11.000  19.407  0.00  0.00    +0.000 A 
ENDBRANCH   7  15
BRANCH  11  22
ATOM     22  C   UNL     1       0.799  16.880  19.242  0.00  0.00    +0.000 C 
ATOM     23  C   UNL     1       0.000  17.900  18.435  0.00  0.00    +0.000 C 
ATOM     24  C   UNL     1       1.902  17.576  20.037  0.00  0.00    +0.000 C 
ENDBRANCH  11  22
BRANCH   1  26
ATOM     25  C   UNL     1      -7.443  13.148  23.786  0.00  0.00    +0.000 C 
ATOM     26  O   UNL     1      -7.170  12.195  22.762  0.00  0.00    +0.000 OA
ENDBRANCH   1  26
BRANCH   6  27
ATOM     27  O   UNL     1      -6.932  11.683  19.970  0.00  0.00    +0.000 OA
ATOM     28  C   UNL     1      -6.751  10.677  18.986  0.00  0.00    +0.000 C 
ENDBRANCH   6  27
TORSDOF 4
ENDMDL
MODEL 8
REMARK VINA RESULT:      -5.7      3.439      6.084
REMARK  Name = 
REMARK  8 active torsions:
REMARK  status: ('A' for Active; 'I' for Inactive)
REMARK    1  A    between atoms: C_1  and  O_2
REMARK    2  A    between atoms: O_2  and  C_3
REMARK    3  A    between atoms: C_8  and  O_9
REMARK    4  A    between atoms: O_9  and  C_10
REMARK    5  A    between atoms: C_11  and  C_12
REMARK    6  A    between atoms: N_22  and  C_23
REMARK    7  A    between atoms: C_23  and  C_24
REMARK    8  A    between atoms: C_23  and  C_25
REMARK                            x       y       z     vdW  Elec       q    Type
REMARK                         _______ _______ _______ _____ _____    ______ ____
ROOT
ATOM      1  C   UNL     1      -0.025  13.750  22.229  0.00  0.00    +0.000 A 
ATOM      2  C   UNL     1      -0.417  12.424  22.455  0.00  0.00    +0.000 A 
ATOM      3  C   UNL     1      -0.136  11.425  21.516  0.00  0.00    +0.000 A 
ATOM      4  C   UNL     1       0.458  11.763  20.295  0.00  0.00    +0.000 A 
ATOM      5  C   UNL     1       0.903  13.084  20.098  0.00  0.00    +0.000 A 
ATOM      6  C   UNL     1       0.703  14.074  21.072  0.00  0.00    +0.000 A 
ATOM      7  C   UNL     1       0.605  10.705  19.200  0.00  0.00    +0.000 C 
ATOM      8  N   UNL     1       0.927   9.368  19.734  0.00  0.00    +0.000 N 
ATOM      9  C   UNL     1       1.750   8.572  18.942  0.00  0.00    +0.000 C 
ATOM     10  O   UNL     1       2.150   8.922  17.835  0.00  0.00    +0.000 OA
ATOM     11  N   UNL     1       2.136   7.378  19.501  0.00  0.00    +0.000 N 
ATOM     12  C   UNL     1       0.552   9.050  21.120  0.00  0.00    +0.000 C 
ATOM     13  C   UNL     1      -0.469   9.988  21.781  0.00  0.00    +0.000 C 
ATOM     14  H   UNL     1       1.519   6.969  20.179  0.00  0.00    +0.000 HD
ENDROOT
BRANCH   7  15
ATOM     15  C   UNL     1      -0.611  10.657  18.259  0.00  0.00    +0.000 A 
ATOM     16  C   UNL     1      -1.482  11.760  18.185  0.00  0.00    +0.000 A 
ATOM     17  C   UNL     1      -2.577  11.752  17.315  0.00  0.00    +0.000 A 
ATOM     18  C   UNL     1      -2.823  10.638  16.514  0.00  0.00    +0.000 A 
ATOM     19 CL   UNL     1      -4.155  10.635  15.427  0.00  0.00    +0.000 Cl
ATOM     20  C   UNL     1      -1.986   9.531  16.582  0.00  0.00    +0.000 A 
ATOM     21  C   UNL     1      -0.888   9.546  17.445  0.00  0.00    +0.000 A 
ENDBRANCH   7  15
BRANCH  11  22
ATOM     22  C   UNL     1       2.999   6.447  18.778  0.00  0.00    +0.000 C 
ATOM     23  C   UNL     1       3.839   5.644  19.767  0.00  0.00    +0.000 C 
ATOM     24  C   UNL     1       2.180   5.510  17.891  0.00  0.00    +0.000 C 
ENDBRANCH  11  22
BRANCH   1  26
ATOM     25  C   UNL     1      -1.571  14.315  23.940  0.00  0.00    +0.000 C 
ATOM     26  O   UNL     1      -0.359  14.606  23.251  0.00  0.00    +0.000 OA
ENDBRANCH   1  26
BRANCH   6  27
ATOM     27  O   UNL     1       1.193  15.347  20.980  0.00  0.00    +0.000 OA
ATOM     28  C   UNL     1       0.995  16.074  19.778  0.00  0.00    +0.000 C 
ENDBRANCH   6  27
TORSDOF 4
ENDMDL
MODEL 9
REMARK VINA RESULT:      -5.7      2.699      6.015
REMARK  Name = 
REMARK  8 active torsions:
REMARK  status: ('A' for Active; 'I' for Inactive)
REMARK    1  A    between atoms: C_1  and  O_2
REMARK    2  A    between atoms: O_2  and  C_3
REMARK    3  A    between atoms: C_8  and  O_9
REMARK    4  A    between atoms: O_9  and  C_10
REMARK    5  A    between atoms: C_11  and  C_12
REMARK    6  A    between atoms: N_22  and  C_23
REMARK    7  A    between atoms: C_23  and  C_24
REMARK    8  A    between atoms: C_23  and  C_25
REMARK                            x       y       z     vdW  Elec       q    Type
REMARK                         _______ _______ _______ _____ _____    ______ ____
ROOT
ATOM      1  C   UNL     1       0.669  14.811  22.279  0.00  0.00    +0.000 A 
ATOM      2  C   UNL     1       1.090  14.670  20.950  0.00  0.00    +0.000 A 
ATOM      3  C   UNL     1       0.526  13.695  20.121  0.00  0.00    +0.000 A 
ATOM      4  C   UNL     1      -0.401  12.786  20.643  0.00  0.00    +0.000 A 
ATOM      5  C   UNL     1      -0.865  12.969  21.960  0.00  0.00    +0.000 A 
ATOM      6  C   UNL     1      -0.366  14.001  22.772  0.00  0.00    +0.000 A 
ATOM      7  C   UNL     1      -0.886  11.615  19.788  0.00  0.00    +0.000 C 
ATOM      8  N   UNL     1      -1.054  11.973  18.367  0.00  0.00    +0.000 N 
ATOM      9  C   UNL     1      -2.089  11.332  17.691  0.00  0.00    +0.000 C 
ATOM     10  O   UNL     1      -2.796  10.476  18.212  0.00  0.00    +0.000 OA
ATOM     11  N   UNL     1      -2.308  11.759  16.404  0.00  0.00    +0.000 N 
ATOM     12  C   UNL     1      -0.286  13.105  17.827  0.00  0.00    +0.000 C 
ATOM     13  C   UNL     1       0.901  13.588  18.674  0.00  0.00    +0.000 C 
ATOM     14  H   UNL     1      -1.522  12.139  15.907  0.00  0.00    +0.000 HD
ENDROOT
BRANCH   7  15
ATOM     15  C   UNL     1      -0.008  10.362  19.953  0.00  0.00    +0.000 A 
ATOM     16  C   UNL     1      -0.106   9.589  21.125  0.00  0.00    +0.000 A 
ATOM     17  C   UNL     1       0.660   8.429  21.284  0.00  0.00    +0.000 A 
ATOM     18  C   UNL     1       1.541   8.031  20.280  0.00  0.00    +0.000 A 
ATOM     19 CL   UNL     1       2.467   6.594  20.464  0.00  0.00    +0.000 Cl
ATOM     20  C   UNL     1       1.666   8.789  19.121  0.00  0.00    +0.000 A 
ATOM     21  C   UNL     1       0.893   9.941  18.960  0.00  0.00    +0.000 A 
ENDBRANCH   7  15
BRANCH  11  22
ATOM     22  C   UNL     1      -3.362  11.171  15.580  0.00  0.00    +0.000 C 
ATOM     23  C   UNL     1      -2.981   9.747  15.187  0.00  0.00    +0.000 C 
ATOM     24  C   UNL     1      -4.704  11.182  16.311  0.00  0.00    +0.000 C 
ENDBRANCH  11  22
BRANCH   1  26
ATOM     25  C   UNL     1       0.825  17.141  22.710  0.00  0.00    +0.000 C 
ATOM     26  O   UNL     1       1.307  15.823  22.957  0.00  0.00    +0.000 OA
ENDBRANCH   1  26
BRANCH   6  27
ATOM     27  O   UNL     1      -0.842  14.286  24.021  0.00  0.00    +0.000 OA
ATOM     28  C   UNL     1      -2.229  14.537  24.189  0.00  0.00    +0.000 C 
ENDBRANCH   6  27
TORSDOF 4
ENDMDL
