MODEL 1
REMARK VINA RESULT:      -7.7      0.000      0.000
REMARK  Name = 
REMARK  14 active torsions:
REMARK  status: ('A' for Active; 'I' for Inactive)
REMARK    1  A    between atoms: C_1  and  C_2
REMARK    2  A    between atoms: C_2  and  C_3
REMARK    3  A    between atoms: C_3  and  N_4
REMARK    4  A    between atoms: C_6  and  N_7
REMARK    5  A    between atoms: N_7  and  C_8
REMARK    6  A    between atoms: C_10  and  N_11
REMARK    7  A    between atoms: C_16  and  C_17
REMARK    8  A    between atoms: C_24  and  C_25
REMARK    9  A    between atoms: N_27  and  C_28
REMARK   10  A    between atoms: C_28  and  C_29
REMARK   11  A    between atoms: C_29  and  C_31
REMARK   12  A    between atoms: C_31  and  C_32
REMARK   13  A    between atoms: C_31  and  C_33
REMARK   14  A    between atoms: C_31  and  O_34
REMARK                            x       y       z     vdW  Elec       q    Type
REMARK                         _______ _______ _______ _____ _____    ______ ____
ROOT
ATOM      1  C   UNL     1       1.112   9.777  19.004  0.00  0.00    +0.000 A 
ATOM      2  C   UNL     1       1.738   8.764  18.248  0.00  0.00    +0.000 A 
ATOM      3  C   UNL     1       2.146   7.586  18.853  0.00  0.00    +0.000 A 
ATOM      4  N   UNL     1       2.007   7.397  20.176  0.00  0.00    +0.000 NA
ATOM      5  C   UNL     1       1.507   8.423  20.927  0.00  0.00    +0.000 A 
ATOM      6  C   UNL     1       1.042   9.628  20.396  0.00  0.00    +0.000 A 
ENDROOT
BRANCH   3   7
ATOM      7  N   UNL     1       2.880   6.655  18.055  0.00  0.00    +0.000 N 
ATOM      8  C   UNL     1       4.018   6.928  17.310  0.00  0.00    +0.000 A 
ATOM      9  C   UNL     1       4.795   5.783  17.291  0.00  0.00    +0.000 A 
ATOM     10  C   UNL     1       4.020   4.744  17.857  0.00  0.00    +0.000 A 
ATOM     11  C   UNL     1       4.208   3.405  18.242  0.00  0.00    +0.000 A 
ATOM     12  C   UNL     1       3.084   2.769  18.777  0.00  0.00    +0.000 A 
ATOM     13  C   UNL     1       1.875   3.241  18.298  0.00  0.00    +0.000 A 
ATOM     14  N   UNL     1       1.605   4.549  18.115  0.00  0.00    +0.000 NA
ATOM     15  C   UNL     1       2.740   5.276  18.035  0.00  0.00    +0.000 A 
BRANCH  12  16
ATOM     16  C   UNL     1       3.085   2.598  20.220  0.00  0.00    +0.000 C 
ATOM     17  N   UNL     1       3.221   2.417  21.363  0.00  0.00    +0.000 NA
ENDBRANCH  12  16
ENDBRANCH   3   7
BRANCH   6  18
ATOM     18  C   UNL     1       0.508  10.664  21.321  0.00  0.00    +0.000 C 
ATOM     19  O   UNL     1       1.082  11.745  21.411  0.00  0.00    +0.000 OA
ATOM     20  N   UNL     1      -0.612  10.334  22.047  0.00  0.00    +0.000 N 
ATOM     21  H   UNL     1      -0.981   9.387  21.974  0.00  0.00    +0.000 HD
BRANCH  20  22
ATOM     22  C   UNL     1      -1.226  11.233  23.015  0.00  0.00    +0.000 C 
BRANCH  22  23
ATOM     23  C   UNL     1      -2.290  12.162  22.405  0.00  0.00    +0.000 C 
ATOM     24  F   UNL     1      -3.443  12.019  23.145  0.00  0.00    +0.000 F 
BRANCH  23  25
ATOM     25  C   UNL     1      -1.924  13.669  22.414  0.00  0.00    +0.000 C 
ATOM     26  C   UNL     1      -2.946  14.531  21.664  0.00  0.00    +0.000 C 
ATOM     27  C   UNL     1      -1.730  14.203  23.834  0.00  0.00    +0.000 C 
BRANCH  25  28
ATOM     28  O   UNL     1      -0.663  13.842  21.745  0.00  0.00    +0.000 OA
ATOM     29  H   UNL     1      -0.278  14.678  22.067  0.00  0.00    +0.000 HD
ENDBRANCH  25  28
ENDBRANCH  23  25
ENDBRANCH  22  23
ENDBRANCH  20  22
ENDBRANCH   6  18
BRANCH   1  30
ATOM     30  N   UNL     1       0.544  10.881  18.314  0.00  0.00    +0.000 N 
ATOM     31  H   UNL     1       1.197  11.301  17.649  0.00  0.00    +0.000 HD
BRANCH  30  34
ATOM     32  N   UNL     1      -2.903  10.980  17.707  0.00  0.00    +0.000 N 
ATOM     33  C   UNL     1      -1.696  10.368  17.507  0.00  0.00    +0.000 A 
ATOM     34  C   UNL     1      -0.785  11.121  18.199  0.00  0.00    +0.000 A 
ATOM     35  C   UNL     1      -1.535  12.180  18.758  0.00  0.00    +0.000 A 
ATOM     36  N   UNL     1      -2.836  12.068  18.496  0.00  0.00    +0.000 NA
BRANCH  32  37
ATOM     37  C   UNL     1      -4.177  10.616  17.120  0.00  0.00    +0.000 C 
BRANCH  37  39
ATOM     38  C   UNL     1      -6.267  10.750  18.562  0.00  0.00    +0.000 C 
ATOM     39  C   UNL     1      -5.327  11.492  17.621  0.00  0.00    +0.000 C 
ENDBRANCH  37  39
ENDBRANCH  32  37
ENDBRANCH  30  34
ENDBRANCH   1  30
TORSDOF 11
ENDMDL
MODEL 2
REMARK VINA RESULT:      -7.7      0.742      1.145
REMARK  Name = 
REMARK  14 active torsions:
REMARK  status: ('A' for Active; 'I' for Inactive)
REMARK    1  A    between atoms: C_1  and  C_2
REMARK    2  A    between atoms: C_2  and  C_3
REMARK    3  A    between atoms: C_3  and  N_4
REMARK    4  A    between atoms: C_6  and  N_7
REMARK    5  A    between atoms: N_7  and  C_8
REMARK    6  A    between atoms: C_10  and  N_11
REMARK    7  A    between atoms: C_16  and  C_17
REMARK    8  A    between atoms: C_24  and  C_25
REMARK    9  A    between atoms: N_27  and  C_28
REMARK   10  A    between atoms: C_28  and  C_29
REMARK   11  A    between atoms: C_29  and  C_31
REMARK   12  A    between atoms: C_31  and  C_32
REMARK   13  A    between atoms: C_31  and  C_33
REMARK   14  A    between atoms: C_31  and  O_34
REMARK                            x       y       z     vdW  Elec       q    Type
REMARK                         _______ _______ _______ _____ _____    ______ ____
ROOT
ATOM      1  C   UNL     1       0.906   9.729  19.055  0.00  0.00    +0.000 A 
ATOM      2  C   UNL     1       1.547   8.683  18.359  0.00  0.00    +0.000 A 
ATOM      3  C   UNL     1       2.061   7.594  19.045  0.00  0.00    +0.000 A 
ATOM      4  N   UNL     1       2.011   7.528  20.386  0.00  0.00    +0.000 NA
ATOM      5  C   UNL     1       1.494   8.594  21.067  0.00  0.00    +0.000 A 
ATOM      6  C   UNL     1       0.926   9.713  20.456  0.00  0.00    +0.000 A 
ENDROOT
BRANCH   3   7
ATOM      7  N   UNL     1       2.802   6.631  18.293  0.00  0.00    +0.000 N 
ATOM      8  C   UNL     1       3.978   6.861  17.593  0.00  0.00    +0.000 A 
ATOM      9  C   UNL     1       4.723   5.696  17.624  0.00  0.00    +0.000 A 
ATOM     10  C   UNL     1       3.898   4.687  18.173  0.00  0.00    +0.000 A 
ATOM     11  C   UNL     1       4.033   3.351  18.585  0.00  0.00    +0.000 A 
ATOM     12  C   UNL     1       2.870   2.753  19.082  0.00  0.00    +0.000 A 
ATOM     13  C   UNL     1       1.696   3.249  18.545  0.00  0.00    +0.000 A 
ATOM     14  N   UNL     1       1.470   4.560  18.331  0.00  0.00    +0.000 NA
ATOM     15  C   UNL     1       2.626   5.256  18.288  0.00  0.00    +0.000 A 
BRANCH  12  16
ATOM     16  C   UNL     1       2.806   2.606  20.525  0.00  0.00    +0.000 C 
ATOM     17  N   UNL     1       2.849   2.594  21.690  0.00  0.00    +0.000 NA
ENDBRANCH  12  16
ENDBRANCH   3   7
BRANCH   6  18
ATOM     18  C   UNL     1       0.385  10.804  21.311  0.00  0.00    +0.000 C 
ATOM     19  O   UNL     1       0.918  11.909  21.287  0.00  0.00    +0.000 OA
ATOM     20  N   UNL     1      -0.692  10.496  22.107  0.00  0.00    +0.000 N 
ATOM     21  H   UNL     1      -1.025   9.532  22.130  0.00  0.00    +0.000 HD
BRANCH  20  22
ATOM     22  C   UNL     1      -1.306  11.450  23.021  0.00  0.00    +0.000 C 
BRANCH  22  23
ATOM     23  C   UNL     1      -2.399  12.313  22.367  0.00  0.00    +0.000 C 
ATOM     24  F   UNL     1      -3.579  12.066  23.031  0.00  0.00    +0.000 F 
BRANCH  23  25
ATOM     25  C   UNL     1      -2.149  13.843  22.429  0.00  0.00    +0.000 C 
ATOM     26  C   UNL     1      -1.201  14.242  23.565  0.00  0.00    +0.000 C 
ATOM     27  C   UNL     1      -1.634  14.394  21.099  0.00  0.00    +0.000 C 
BRANCH  25  28
ATOM     28  O   UNL     1      -3.401  14.505  22.681  0.00  0.00    +0.000 OA
ATOM     29  H   UNL     1      -4.075  14.065  22.130  0.00  0.00    +0.000 HD
ENDBRANCH  25  28
ENDBRANCH  23  25
ENDBRANCH  22  23
ENDBRANCH  20  22
ENDBRANCH   6  18
BRANCH   1  30
ATOM     30  N   UNL     1       0.232  10.726  18.301  0.00  0.00    +0.000 N 
ATOM     31  H   UNL     1       0.857  11.210  17.651  0.00  0.00    +0.000 HD
BRANCH  30  34
ATOM     32  N   UNL     1      -3.214  11.339  18.225  0.00  0.00    +0.000 N 
ATOM     33  C   UNL     1      -1.986  11.622  18.756  0.00  0.00    +0.000 A 
ATOM     34  C   UNL     1      -1.109  10.785  18.119  0.00  0.00    +0.000 A 
ATOM     35  C   UNL     1      -1.909  10.017  17.243  0.00  0.00    +0.000 A 
ATOM     36  N   UNL     1      -3.188  10.387  17.273  0.00  0.00    +0.000 NA
BRANCH  32  37
ATOM     37  C   UNL     1      -4.491  11.900  18.621  0.00  0.00    +0.000 C 
BRANCH  37  39
ATOM     38  C   UNL     1      -6.904  11.840  17.825  0.00  0.00    +0.000 C 
ATOM     39  C   UNL     1      -5.449  12.072  17.441  0.00  0.00    +0.000 C 
ENDBRANCH  37  39
ENDBRANCH  32  37
ENDBRANCH  30  34
ENDBRANCH   1  30
TORSDOF 11
ENDMDL
MODEL 3
REMARK VINA RESULT:      -7.7      1.772      2.838
REMARK  Name = 
REMARK  14 active torsions:
REMARK  status: ('A' for Active; 'I' for Inactive)
REMARK    1  A    between atoms: C_1  and  C_2
REMARK    2  A    between atoms: C_2  and  C_3
REMARK    3  A    between atoms: C_3  and  N_4
REMARK    4  A    between atoms: C_6  and  N_7
REMARK    5  A    between atoms: N_7  and  C_8
REMARK    6  A    between atoms: C_10  and  N_11
REMARK    7  A    between atoms: C_16  and  C_17
REMARK    8  A    between atoms: C_24  and  C_25
REMARK    9  A    between atoms: N_27  and  C_28
REMARK   10  A    between atoms: C_28  and  C_29
REMARK   11  A    between atoms: C_29  and  C_31
REMARK   12  A    between atoms: C_31  and  C_32
REMARK   13  A    between atoms: C_31  and  C_33
REMARK   14  A    between atoms: C_31  and  O_34
REMARK                            x       y       z     vdW  Elec       q    Type
REMARK                         _______ _______ _______ _____ _____    ______ ____
ROOT
ATOM      1  C   UNL     1       1.639   8.870  19.362  0.00  0.00    +0.000 A 
ATOM      2  C   UNL     1       2.201   7.742  18.730  0.00  0.00    +0.000 A 
ATOM      3  C   UNL     1       2.235   6.518  19.379  0.00  0.00    +0.000 A 
ATOM      4  N   UNL     1       1.785   6.383  20.638  0.00  0.00    +0.000 NA
ATOM      5  C   UNL     1       1.347   7.501  21.291  0.00  0.00    +0.000 A 
ATOM      6  C   UNL     1       1.248   8.763  20.703  0.00  0.00    +0.000 A 
ENDROOT
BRANCH   3   7
ATOM      7  N   UNL     1       2.925   5.447  18.732  0.00  0.00    +0.000 N 
ATOM      8  C   UNL     1       2.380   4.537  17.836  0.00  0.00    +0.000 A 
ATOM      9  C   UNL     1       3.373   4.176  16.945  0.00  0.00    +0.000 A 
ATOM     10  C   UNL     1       4.587   4.714  17.431  0.00  0.00    +0.000 A 
ATOM     11  C   UNL     1       5.917   4.832  16.991  0.00  0.00    +0.000 A 
ATOM     12  C   UNL     1       6.788   5.477  17.874  0.00  0.00    +0.000 A 
ATOM     13  C   UNL     1       6.459   5.338  19.210  0.00  0.00    +0.000 A 
ATOM     14  N   UNL     1       5.198   5.427  19.679  0.00  0.00    +0.000 NA
ATOM     15  C   UNL     1       4.294   5.234  18.695  0.00  0.00    +0.000 A 
BRANCH  12  16
ATOM     16  C   UNL     1       7.142   6.842  17.524  0.00  0.00    +0.000 C 
ATOM     17  N   UNL     1       7.285   7.961  17.230  0.00  0.00    +0.000 NA
ENDBRANCH  12  16
ENDBRANCH   3   7
BRANCH   6  18
ATOM     18  C   UNL     1       0.743   9.900  21.519  0.00  0.00    +0.000 C 
ATOM     19  O   UNL     1       1.410  10.927  21.600  0.00  0.00    +0.000 OA
ATOM     20  N   UNL     1      -0.459   9.721  22.161  0.00  0.00    +0.000 N 
ATOM     21  H   UNL     1      -0.911   8.808  22.109  0.00  0.00    +0.000 HD
BRANCH  20  22
ATOM     22  C   UNL     1      -1.061  10.731  23.022  0.00  0.00    +0.000 C 
BRANCH  22  23
ATOM     23  C   UNL     1      -1.632  11.934  22.252  0.00  0.00    +0.000 C 
ATOM     24  F   UNL     1      -2.072  11.478  21.029  0.00  0.00    +0.000 F 
BRANCH  23  25
ATOM     25  C   UNL     1      -2.834  12.638  22.937  0.00  0.00    +0.000 C 
ATOM     26  C   UNL     1      -2.422  13.896  23.708  0.00  0.00    +0.000 C 
ATOM     27  C   UNL     1      -3.944  12.974  21.940  0.00  0.00    +0.000 C 
BRANCH  25  28
ATOM     28  O   UNL     1      -3.413  11.733  23.894  0.00  0.00    +0.000 OA
ATOM     29  H   UNL     1      -3.129  10.833  23.648  0.00  0.00    +0.000 HD
ENDBRANCH  25  28
ENDBRANCH  23  25
ENDBRANCH  22  23
ENDBRANCH  20  22
ENDBRANCH   6  18
BRANCH   1  30
ATOM     30  N   UNL     1       1.456  10.051  18.593  0.00  0.00    +0.000 N 
ATOM     31  H   UNL     1       2.271  10.268  18.015  0.00  0.00    +0.000 HD
BRANCH  30  34
ATOM     32  N   UNL     1      -1.822  10.923  17.727  0.00  0.00    +0.000 N 
ATOM     33  C   UNL     1      -0.854   9.962  17.830  0.00  0.00    +0.000 A 
ATOM     34  C   UNL     1       0.255  10.609  18.306  0.00  0.00    +0.000 A 
ATOM     35  C   UNL     1      -0.136  11.961  18.430  0.00  0.00    +0.000 A 
ATOM     36  N   UNL     1      -1.418  12.145  18.120  0.00  0.00    +0.000 NA
BRANCH  32  37
ATOM     37  C   UNL     1      -3.162  10.765  17.195  0.00  0.00    +0.000 C 
BRANCH  37  39
ATOM     38  C   UNL     1      -2.988  10.037  14.765  0.00  0.00    +0.000 C 
ATOM     39  C   UNL     1      -3.265  11.185  15.727  0.00  0.00    +0.000 C 
ENDBRANCH  37  39
ENDBRANCH  32  37
ENDBRANCH  30  34
ENDBRANCH   1  30
TORSDOF 11
ENDMDL
MODEL 4
REMARK VINA RESULT:      -7.6      1.194      1.438
REMARK  Name = 
REMARK  14 active torsions:
REMARK  status: ('A' for Active; 'I' for Inactive)
REMARK    1  A    between atoms: C_1  and  C_2
REMARK    2  A    between atoms: C_2  and  C_3
REMARK    3  A    between atoms: C_3  and  N_4
REMARK    4  A    between atoms: C_6  and  N_7
REMARK    5  A    between atoms: N_7  and  C_8
REMARK    6  A    between atoms: C_10  and  N_11
REMARK    7  A    between atoms: C_16  and  C_17
REMARK    8  A    between atoms: C_24  and  C_25
REMARK    9  A    between atoms: N_27  and  C_28
REMARK   10  A    between atoms: C_28  and  C_29
REMARK   11  A    between atoms: C_29  and  C_31
REMARK   12  A    between atoms: C_31  and  C_32
REMARK   13  A    between atoms: C_31  and  C_33
REMARK   14  A    between atoms: C_31  and  O_34
REMARK                            x       y       z     vdW  Elec       q    Type
REMARK                         _______ _______ _______ _____ _____    ______ ____
ROOT
ATOM      1  C   UNL     1       0.772   9.834  18.963  0.00  0.00    +0.000 A 
ATOM      2  C   UNL     1       1.434   8.789  18.287  0.00  0.00    +0.000 A 
ATOM      3  C   UNL     1       2.004   7.743  18.996  0.00  0.00    +0.000 A 
ATOM      4  N   UNL     1       1.990   7.722  20.339  0.00  0.00    +0.000 NA
ATOM      5  C   UNL     1       1.450   8.791  20.996  0.00  0.00    +0.000 A 
ATOM      6  C   UNL     1       0.827   9.868  20.363  0.00  0.00    +0.000 A 
ENDROOT
BRANCH   3   7
ATOM      7  N   UNL     1       2.762   6.782  18.258  0.00  0.00    +0.000 N 
ATOM      8  C   UNL     1       3.924   7.026  17.539  0.00  0.00    +0.000 A 
ATOM      9  C   UNL     1       4.699   5.882  17.589  0.00  0.00    +0.000 A 
ATOM     10  C   UNL     1       3.907   4.865  18.170  0.00  0.00    +0.000 A 
ATOM     11  C   UNL     1       4.081   3.543  18.613  0.00  0.00    +0.000 A 
ATOM     12  C   UNL     1       2.940   2.927  19.136  0.00  0.00    +0.000 A 
ATOM     13  C   UNL     1       1.747   3.380  18.602  0.00  0.00    +0.000 A 
ATOM     14  N   UNL     1       1.485   4.679  18.360  0.00  0.00    +0.000 NA
ATOM     15  C   UNL     1       2.622   5.404  18.287  0.00  0.00    +0.000 A 
BRANCH  12  16
ATOM     16  C   UNL     1       2.896   2.813  20.584  0.00  0.00    +0.000 C 
ATOM     17  N   UNL     1       2.847   2.580  21.725  0.00  0.00    +0.000 NA
ENDBRANCH  12  16
ENDBRANCH   3   7
BRANCH   6  18
ATOM     18  C   UNL     1       0.267  10.968  21.194  0.00  0.00    +0.000 C 
ATOM     19  O   UNL     1       0.871  12.033  21.270  0.00  0.00    +0.000 OA
ATOM     20  N   UNL     1      -0.910  10.711  21.855  0.00  0.00    +0.000 N 
ATOM     21  H   UNL     1      -1.306   9.773  21.805  0.00  0.00    +0.000 HD
BRANCH  20  22
ATOM     22  C   UNL     1      -1.558  11.678  22.732  0.00  0.00    +0.000 C 
BRANCH  22  23
ATOM     23  C   UNL     1      -2.494  12.650  21.992  0.00  0.00    +0.000 C 
ATOM     24  F   UNL     1      -2.823  12.075  20.785  0.00  0.00    +0.000 F 
BRANCH  23  25
ATOM     25  C   UNL     1      -3.824  12.964  22.727  0.00  0.00    +0.000 C 
ATOM     26  C   UNL     1      -3.819  12.494  24.185  0.00  0.00    +0.000 C 
ATOM     27  C   UNL     1      -4.180  14.450  22.656  0.00  0.00    +0.000 C 
BRANCH  25  28
ATOM     28  O   UNL     1      -4.893  12.263  22.067  0.00  0.00    +0.000 OA
ATOM     29  H   UNL     1      -5.285  11.654  22.721  0.00  0.00    +0.000 HD
ENDBRANCH  25  28
ENDBRANCH  23  25
ENDBRANCH  22  23
ENDBRANCH  20  22
ENDBRANCH   6  18
BRANCH   1  30
ATOM     30  N   UNL     1       0.044  10.780  18.193  0.00  0.00    +0.000 N 
ATOM     31  H   UNL     1       0.653  11.356  17.608  0.00  0.00    +0.000 HD
BRANCH  30  34
ATOM     32  N   UNL     1      -3.298  11.101  17.200  0.00  0.00    +0.000 N 
ATOM     33  C   UNL     1      -2.046  11.643  17.289  0.00  0.00    +0.000 A 
ATOM     34  C   UNL     1      -1.279  10.696  17.913  0.00  0.00    +0.000 A 
ATOM     35  C   UNL     1      -2.166   9.631  18.187  0.00  0.00    +0.000 A 
ATOM     36  N   UNL     1      -3.389   9.858  17.710  0.00  0.00    +0.000 NA
BRANCH  32  37
ATOM     37  C   UNL     1      -4.496  11.739  16.690  0.00  0.00    +0.000 C 
BRANCH  37  39
ATOM     38  C   UNL     1      -5.744  12.595  18.732  0.00  0.00    +0.000 C 
ATOM     39  C   UNL     1      -5.699  11.559  17.618  0.00  0.00    +0.000 C 
ENDBRANCH  37  39
ENDBRANCH  32  37
ENDBRANCH  30  34
ENDBRANCH   1  30
TORSDOF 11
ENDMDL
MODEL 5
REMARK VINA RESULT:      -7.5      0.978      1.209
REMARK  Name = 
REMARK  14 active torsions:
REMARK  status: ('A' for Active; 'I' for Inactive)
REMARK    1  A    between atoms: C_1  and  C_2
REMARK    2  A    between atoms: C_2  and  C_3
REMARK    3  A    between atoms: C_3  and  N_4
REMARK    4  A    between atoms: C_6  and  N_7
REMARK    5  A    between atoms: N_7  and  C_8
REMARK    6  A    between atoms: C_10  and  N_11
REMARK    7  A    between atoms: C_16  and  C_17
REMARK    8  A    between atoms: C_24  and  C_25
REMARK    9  A    between atoms: N_27  and  C_28
REMARK   10  A    between atoms: C_28  and  C_29
REMARK   11  A    between atoms: C_29  and  C_31
REMARK   12  A    between atoms: C_31  and  C_32
REMARK   13  A    between atoms: C_31  and  C_33
REMARK   14  A    between atoms: C_31  and  O_34
REMARK                            x       y       z     vdW  Elec       q    Type
REMARK                         _______ _______ _______ _____ _____    ______ ____
ROOT
ATOM      1  C   UNL     1       0.596  10.001  18.875  0.00  0.00    +0.000 A 
ATOM      2  C   UNL     1       1.290   8.952  18.238  0.00  0.00    +0.000 A 
ATOM      3  C   UNL     1       1.869   7.937  18.983  0.00  0.00    +0.000 A 
ATOM      4  N   UNL     1       1.834   7.952  20.327  0.00  0.00    +0.000 NA
ATOM      5  C   UNL     1       1.262   9.026  20.946  0.00  0.00    +0.000 A 
ATOM      6  C   UNL     1       0.628  10.073  20.274  0.00  0.00    +0.000 A 
ENDROOT
BRANCH   3   7
ATOM      7  N   UNL     1       2.658   6.972  18.284  0.00  0.00    +0.000 N 
ATOM      8  C   UNL     1       3.831   7.220  17.584  0.00  0.00    +0.000 A 
ATOM      9  C   UNL     1       4.623   6.090  17.676  0.00  0.00    +0.000 A 
ATOM     10  C   UNL     1       3.835   5.073  18.263  0.00  0.00    +0.000 A 
ATOM     11  C   UNL     1       4.021   3.764  18.739  0.00  0.00    +0.000 A 
ATOM     12  C   UNL     1       2.879   3.142  19.253  0.00  0.00    +0.000 A 
ATOM     13  C   UNL     1       1.691   3.562  18.683  0.00  0.00    +0.000 A 
ATOM     14  N   UNL     1       1.413   4.851  18.406  0.00  0.00    +0.000 NA
ATOM     15  C   UNL     1       2.540   5.593  18.341  0.00  0.00    +0.000 A 
BRANCH  12  16
ATOM     16  C   UNL     1       2.806   3.058  20.701  0.00  0.00    +0.000 C 
ATOM     17  N   UNL     1       2.607   2.971  21.846  0.00  0.00    +0.000 NA
ENDBRANCH  12  16
ENDBRANCH   3   7
BRANCH   6  18
ATOM     18  C   UNL     1       0.033  11.183  21.067  0.00  0.00    +0.000 C 
ATOM     19  O   UNL     1       0.163  12.339  20.678  0.00  0.00    +0.000 OA
ATOM     20  N   UNL     1      -0.628  10.838  22.222  0.00  0.00    +0.000 N 
ATOM     21  H   UNL     1      -0.622   9.862  22.518  0.00  0.00    +0.000 HD
BRANCH  20  22
ATOM     22  C   UNL     1      -1.230  11.818  23.117  0.00  0.00    +0.000 C 
BRANCH  22  23
ATOM     23  C   UNL     1      -2.728  12.051  22.856  0.00  0.00    +0.000 C 
ATOM     24  F   UNL     1      -3.399  11.818  24.035  0.00  0.00    +0.000 F 
BRANCH  23  25
ATOM     25  C   UNL     1      -3.096  13.486  22.396  0.00  0.00    +0.000 C 
ATOM     26  C   UNL     1      -4.609  13.704  22.289  0.00  0.00    +0.000 C 
ATOM     27  C   UNL     1      -2.475  14.554  23.298  0.00  0.00    +0.000 C 
BRANCH  25  28
ATOM     28  O   UNL     1      -2.551  13.703  21.082  0.00  0.00    +0.000 OA
ATOM     29  H   UNL     1      -2.223  12.843  20.761  0.00  0.00    +0.000 HD
ENDBRANCH  25  28
ENDBRANCH  23  25
ENDBRANCH  22  23
ENDBRANCH  20  22
ENDBRANCH   6  18
BRANCH   1  30
ATOM     30  N   UNL     1      -0.138  10.911  18.069  0.00  0.00    +0.000 N 
ATOM     31  H   UNL     1       0.471  11.521  17.519  0.00  0.00    +0.000 HD
BRANCH  30  34
ATOM     32  N   UNL     1      -3.593  11.009  17.509  0.00  0.00    +0.000 N 
ATOM     33  C   UNL     1      -2.497  11.508  18.157  0.00  0.00    +0.000 A 
ATOM     34  C   UNL     1      -1.438  10.759  17.718  0.00  0.00    +0.000 A 
ATOM     35  C   UNL     1      -2.002   9.815  16.831  0.00  0.00    +0.000 A 
ATOM     36  N   UNL     1      -3.311   9.997  16.667  0.00  0.00    +0.000 NA
BRANCH  32  37
ATOM     37  C   UNL     1      -4.975  11.408  17.689  0.00  0.00    +0.000 C 
BRANCH  37  39
ATOM     38  C   UNL     1      -6.238  13.347  18.741  0.00  0.00    +0.000 C 
ATOM     39  C   UNL     1      -5.181  12.268  18.937  0.00  0.00    +0.000 C 
ENDBRANCH  37  39
ENDBRANCH  32  37
ENDBRANCH  30  34
ENDBRANCH   1  30
TORSDOF 11
ENDMDL
MODEL 6
REMARK VINA RESULT:      -7.5      3.807      9.516
REMARK  Name = 
REMARK  14 active torsions:
REMARK  status: ('A' for Active; 'I' for Inactive)
REMARK    1  A    between atoms: C_1  and  C_2
REMARK    2  A    between atoms: C_2  and  C_3
REMARK    3  A    between atoms: C_3  and  N_4
REMARK    4  A    between atoms: C_6  and  N_7
REMARK    5  A    between atoms: N_7  and  C_8
REMARK    6  A    between atoms: C_10  and  N_11
REMARK    7  A    between atoms: C_16  and  C_17
REMARK    8  A    between atoms: C_24  and  C_25
REMARK    9  A    between atoms: N_27  and  C_28
REMARK   10  A    between atoms: C_28  and  C_29
REMARK   11  A    between atoms: C_29  and  C_31
REMARK   12  A    between atoms: C_31  and  C_32
REMARK   13  A    between atoms: C_31  and  C_33
REMARK   14  A    between atoms: C_31  and  O_34
REMARK                            x       y       z     vdW  Elec       q    Type
REMARK                         _______ _______ _______ _____ _____    ______ ____
ROOT
ATOM      1  C   UNL     1       2.324   7.447  18.258  0.00  0.00    +0.000 A 
ATOM      2  C   UNL     1       1.800   8.726  17.979  0.00  0.00    +0.000 A 
ATOM      3  C   UNL     1       1.298   9.518  19.000  0.00  0.00    +0.000 A 
ATOM      4  N   UNL     1       1.248   9.074  20.267  0.00  0.00    +0.000 NA
ATOM      5  C   UNL     1       1.650   7.793  20.519  0.00  0.00    +0.000 A 
ATOM      6  C   UNL     1       2.198   6.940  19.559  0.00  0.00    +0.000 A 
ENDROOT
BRANCH   3   7
ATOM      7  N   UNL     1       0.672  10.750  18.632  0.00  0.00    +0.000 N 
ATOM      8  C   UNL     1      -0.684  10.952  18.418  0.00  0.00    +0.000 A 
ATOM      9  C   UNL     1      -0.979  12.253  18.786  0.00  0.00    +0.000 A 
ATOM     10  C   UNL     1       0.250  12.907  19.029  0.00  0.00    +0.000 A 
ATOM     11  C   UNL     1       0.681  14.149  19.527  0.00  0.00    +0.000 A 
ATOM     12  C   UNL     1       2.066  14.331  19.575  0.00  0.00    +0.000 A 
ATOM     13  C   UNL     1       2.771  13.634  18.610  0.00  0.00    +0.000 A 
ATOM     14  N   UNL     1       2.498  12.361  18.263  0.00  0.00    +0.000 NA
ATOM     15  C   UNL     1       1.245  12.011  18.627  0.00  0.00    +0.000 A 
BRANCH  12  16
ATOM     16  C   UNL     1       2.669  14.226  20.892  0.00  0.00    +0.000 C 
ATOM     17  N   UNL     1       3.023  14.171  22.002  0.00  0.00    +0.000 NA
ENDBRANCH  12  16
ENDBRANCH   3   7
BRANCH   6  18
ATOM     18  C   UNL     1       2.608   5.568  19.964  0.00  0.00    +0.000 C 
ATOM     19  O   UNL     1       3.799   5.314  20.112  0.00  0.00    +0.000 OA
ATOM     20  N   UNL     1       1.605   4.644  20.135  0.00  0.00    +0.000 N 
ATOM     21  H   UNL     1       0.647   4.913  19.914  0.00  0.00    +0.000 HD
BRANCH  20  22
ATOM     22  C   UNL     1       1.856   3.255  20.497  0.00  0.00    +0.000 C 
BRANCH  22  23
ATOM     23  C   UNL     1       2.014   2.322  19.283  0.00  0.00    +0.000 C 
ATOM     24  F   UNL     1       1.368   2.909  18.218  0.00  0.00    +0.000 F 
BRANCH  23  25
ATOM     25  C   UNL     1       3.479   2.062  18.844  0.00  0.00    +0.000 C 
ATOM     26  C   UNL     1       3.914   2.954  17.676  0.00  0.00    +0.000 C 
ATOM     27  C   UNL     1       4.460   2.208  20.008  0.00  0.00    +0.000 C 
BRANCH  25  28
ATOM     28  O   UNL     1       3.591   0.701  18.392  0.00  0.00    +0.000 OA
ATOM     29  H   UNL     1       3.460   0.128  19.171  0.00  0.00    +0.000 HD
ENDBRANCH  25  28
ENDBRANCH  23  25
ENDBRANCH  22  23
ENDBRANCH  20  22
ENDBRANCH   6  18
BRANCH   1  30
ATOM     30  N   UNL     1       2.996   6.752  17.217  0.00  0.00    +0.000 N 
ATOM     31  H   UNL     1       2.363   6.478  16.463  0.00  0.00    +0.000 HD
BRANCH  30  34
ATOM     32  N   UNL     1       6.471   7.178  17.162  0.00  0.00    +0.000 N 
ATOM     33  C   UNL     1       5.265   7.463  17.742  0.00  0.00    +0.000 A 
ATOM     34  C   UNL     1       4.333   6.789  16.999  0.00  0.00    +0.000 A 
ATOM     35  C   UNL     1       5.072   6.152  15.977  0.00  0.00    +0.000 A 
ATOM     36  N   UNL     1       6.382   6.351  16.104  0.00  0.00    +0.000 NA
BRANCH  32  37
ATOM     37  C   UNL     1       7.767   7.714  17.528  0.00  0.00    +0.000 C 
BRANCH  37  39
ATOM     38  C   UNL     1       7.890   5.692  19.063  0.00  0.00    +0.000 C 
ATOM     39  C   UNL     1       8.287   7.146  18.850  0.00  0.00    +0.000 C 
ENDBRANCH  37  39
ENDBRANCH  32  37
ENDBRANCH  30  34
ENDBRANCH   1  30
TORSDOF 11
ENDMDL
MODEL 7
REMARK VINA RESULT:      -7.5      1.037      1.452
REMARK  Name = 
REMARK  14 active torsions:
REMARK  status: ('A' for Active; 'I' for Inactive)
REMARK    1  A    between atoms: C_1  and  C_2
REMARK    2  A    between atoms: C_2  and  C_3
REMARK    3  A    between atoms: C_3  and  N_4
REMARK    4  A    between atoms: C_6  and  N_7
REMARK    5  A    between atoms: N_7  and  C_8
REMARK    6  A    between atoms: C_10  and  N_11
REMARK    7  A    between atoms: C_16  and  C_17
REMARK    8  A    between atoms: C_24  and  C_25
REMARK    9  A    between atoms: N_27  and  C_28
REMARK   10  A    between atoms: C_28  and  C_29
REMARK   11  A    between atoms: C_29  and  C_31
REMARK   12  A    between atoms: C_31  and  C_32
REMARK   13  A    between atoms: C_31  and  C_33
REMARK   14  A    between atoms: C_31  and  O_34
REMARK                            x       y       z     vdW  Elec       q    Type
REMARK                         _______ _______ _______ _____ _____    ______ ____
ROOT
ATOM      1  C   UNL     1       0.939   9.940  19.251  0.00  0.00    +0.000 A 
ATOM      2  C   UNL     1       1.587   8.918  18.527  0.00  0.00    +0.000 A 
ATOM      3  C   UNL     1       1.987   7.752  19.160  0.00  0.00    +0.000 A 
ATOM      4  N   UNL     1       1.819   7.585  20.483  0.00  0.00    +0.000 NA
ATOM      5  C   UNL     1       1.296   8.621  21.204  0.00  0.00    +0.000 A 
ATOM      6  C   UNL     1       0.838   9.814  20.643  0.00  0.00    +0.000 A 
ENDROOT
BRANCH   3   7
ATOM      7  N   UNL     1       2.743   6.812  18.395  0.00  0.00    +0.000 N 
ATOM      8  C   UNL     1       3.895   7.079  17.668  0.00  0.00    +0.000 A 
ATOM      9  C   UNL     1       4.679   5.939  17.687  0.00  0.00    +0.000 A 
ATOM     10  C   UNL     1       3.900   4.905  18.256  0.00  0.00    +0.000 A 
ATOM     11  C   UNL     1       4.089   3.576  18.670  0.00  0.00    +0.000 A 
ATOM     12  C   UNL     1       2.958   2.942  19.194  0.00  0.00    +0.000 A 
ATOM     13  C   UNL     1       1.756   3.396  18.681  0.00  0.00    +0.000 A 
ATOM     14  N   UNL     1       1.481   4.698  18.469  0.00  0.00    +0.000 NA
ATOM     15  C   UNL     1       2.613   5.432  18.398  0.00  0.00    +0.000 A 
BRANCH  12  16
ATOM     16  C   UNL     1       2.930   2.797  20.639  0.00  0.00    +0.000 C 
ATOM     17  N   UNL     1       2.799   2.591  21.779  0.00  0.00    +0.000 NA
ENDBRANCH  12  16
ENDBRANCH   3   7
BRANCH   6  18
ATOM     18  C   UNL     1       0.279  10.863  21.538  0.00  0.00    +0.000 C 
ATOM     19  O   UNL     1       0.850  11.944  21.630  0.00  0.00    +0.000 OA
ATOM     20  N   UNL     1      -0.862  10.543  22.236  0.00  0.00    +0.000 N 
ATOM     21  H   UNL     1      -1.229   9.594  22.166  0.00  0.00    +0.000 HD
BRANCH  20  22
ATOM     22  C   UNL     1      -1.503  11.454  23.175  0.00  0.00    +0.000 C 
BRANCH  22  23
ATOM     23  C   UNL     1      -2.591  12.333  22.534  0.00  0.00    +0.000 C 
ATOM     24  F   UNL     1      -3.777  12.067  23.179  0.00  0.00    +0.000 F 
BRANCH  23  25
ATOM     25  C   UNL     1      -2.344  13.861  22.640  0.00  0.00    +0.000 C 
ATOM     26  C   UNL     1      -1.064  14.202  23.410  0.00  0.00    +0.000 C 
ATOM     27  C   UNL     1      -2.325  14.535  21.267  0.00  0.00    +0.000 C 
BRANCH  25  28
ATOM     28  O   UNL     1      -3.437  14.456  23.363  0.00  0.00    +0.000 OA
ATOM     29  H   UNL     1      -4.035  13.732  23.627  0.00  0.00    +0.000 HD
ENDBRANCH  25  28
ENDBRANCH  23  25
ENDBRANCH  22  23
ENDBRANCH  20  22
ENDBRANCH   6  18
BRANCH   1  30
ATOM     30  N   UNL     1       0.382  11.029  18.529  0.00  0.00    +0.000 N 
ATOM     31  H   UNL     1       1.096  11.587  18.055  0.00  0.00    +0.000 HD
BRANCH  30  34
ATOM     32  N   UNL     1      -2.788  10.934  17.047  0.00  0.00    +0.000 N 
ATOM     33  C   UNL     1      -1.454  10.640  16.978  0.00  0.00    +0.000 A 
ATOM     34  C   UNL     1      -0.913  11.119  18.142  0.00  0.00    +0.000 A 
ATOM     35  C   UNL     1      -1.995  11.710  18.831  0.00  0.00    +0.000 A 
ATOM     36  N   UNL     1      -3.149  11.556  18.184  0.00  0.00    +0.000 NA
BRANCH  32  37
ATOM     37  C   UNL     1      -3.790  10.706  16.024  0.00  0.00    +0.000 C 
BRANCH  37  39
ATOM     38  C   UNL     1      -4.190   9.986  13.618  0.00  0.00    +0.000 C 
ATOM     39  C   UNL     1      -3.222   9.995  14.794  0.00  0.00    +0.000 C 
ENDBRANCH  37  39
ENDBRANCH  32  37
ENDBRANCH  30  34
ENDBRANCH   1  30
TORSDOF 11
ENDMDL
MODEL 8
REMARK VINA RESULT:      -7.4      1.761      2.031
REMARK  Name = 
REMARK  14 active torsions:
REMARK  status: ('A' for Active; 'I' for Inactive)
REMARK    1  A    between atoms: C_1  and  C_2
REMARK    2  A    between atoms: C_2  and  C_3
REMARK    3  A    between atoms: C_3  and  N_4
REMARK    4  A    between atoms: C_6  and  N_7
REMARK    5  A    between atoms: N_7  and  C_8
REMARK    6  A    between atoms: C_10  and  N_11
REMARK    7  A    between atoms: C_16  and  C_17
REMARK    8  A    between atoms: C_24  and  C_25
REMARK    9  A    between atoms: N_27  and  C_28
REMARK   10  A    between atoms: C_28  and  C_29
REMARK   11  A    between atoms: C_29  and  C_31
REMARK   12  A    between atoms: C_31  and  C_32
REMARK   13  A    between atoms: C_31  and  C_33
REMARK   14  A    between atoms: C_31  and  O_34
REMARK                            x       y       z     vdW  Elec       q    Type
REMARK                         _______ _______ _______ _____ _____    ______ ____
ROOT
ATOM      1  C   UNL     1       0.835   9.743  18.708  0.00  0.00    +0.000 A 
ATOM      2  C   UNL     1       1.540   8.720  18.042  0.00  0.00    +0.000 A 
ATOM      3  C   UNL     1       2.103   7.674  18.756  0.00  0.00    +0.000 A 
ATOM      4  N   UNL     1       2.042   7.632  20.097  0.00  0.00    +0.000 NA
ATOM      5  C   UNL     1       1.459   8.682  20.750  0.00  0.00    +0.000 A 
ATOM      6  C   UNL     1       0.839   9.756  20.109  0.00  0.00    +0.000 A 
ENDROOT
BRANCH   3   7
ATOM      7  N   UNL     1       2.905   6.738  18.032  0.00  0.00    +0.000 N 
ATOM      8  C   UNL     1       4.098   7.009  17.377  0.00  0.00    +0.000 A 
ATOM      9  C   UNL     1       4.880   5.869  17.436  0.00  0.00    +0.000 A 
ATOM     10  C   UNL     1       4.069   4.832  17.952  0.00  0.00    +0.000 A 
ATOM     11  C   UNL     1       4.234   3.500  18.370  0.00  0.00    +0.000 A 
ATOM     12  C   UNL     1       3.074   2.863  18.821  0.00  0.00    +0.000 A 
ATOM     13  C   UNL     1       1.905   3.320  18.240  0.00  0.00    +0.000 A 
ATOM     14  N   UNL     1       1.643   4.623  18.018  0.00  0.00    +0.000 NA
ATOM     15  C   UNL     1       2.776   5.358  18.020  0.00  0.00    +0.000 A 
BRANCH  12  16
ATOM     16  C   UNL     1       2.960   2.711  20.261  0.00  0.00    +0.000 C 
ATOM     17  N   UNL     1       2.999   2.646  21.424  0.00  0.00    +0.000 NA
ENDBRANCH  12  16
ENDBRANCH   3   7
BRANCH   6  18
ATOM     18  C   UNL     1       0.230  10.834  20.936  0.00  0.00    +0.000 C 
ATOM     19  O   UNL     1      -0.749  10.580  21.630  0.00  0.00    +0.000 OA
ATOM     20  N   UNL     1       0.805  12.079  20.858  0.00  0.00    +0.000 N 
ATOM     21  H   UNL     1       1.567  12.227  20.196  0.00  0.00    +0.000 HD
BRANCH  20  22
ATOM     22  C   UNL     1       0.298  13.237  21.582  0.00  0.00    +0.000 C 
BRANCH  22  23
ATOM     23  C   UNL     1      -0.423  14.258  20.683  0.00  0.00    +0.000 C 
ATOM     24  F   UNL     1      -0.778  15.330  21.470  0.00  0.00    +0.000 F 
BRANCH  23  25
ATOM     25  C   UNL     1       0.429  14.813  19.511  0.00  0.00    +0.000 C 
ATOM     26  C   UNL     1      -0.301  15.896  18.710  0.00  0.00    +0.000 C 
ATOM     27  C   UNL     1       1.785  15.336  19.986  0.00  0.00    +0.000 C 
BRANCH  25  28
ATOM     28  O   UNL     1       0.711  13.738  18.597  0.00  0.00    +0.000 OA
ATOM     29  H   UNL     1       0.542  12.904  19.072  0.00  0.00    +0.000 HD
ENDBRANCH  25  28
ENDBRANCH  23  25
ENDBRANCH  22  23
ENDBRANCH  20  22
ENDBRANCH   6  18
BRANCH   1  30
ATOM     30  N   UNL     1       0.118  10.687  17.926  0.00  0.00    +0.000 N 
ATOM     31  H   UNL     1       0.713  11.155  17.239  0.00  0.00    +0.000 HD
BRANCH  30  34
ATOM     32  N   UNL     1      -3.340  11.236  17.876  0.00  0.00    +0.000 N 
ATOM     33  C   UNL     1      -2.103  11.597  18.337  0.00  0.00    +0.000 A 
ATOM     34  C   UNL     1      -1.229  10.704  17.777  0.00  0.00    +0.000 A 
ATOM     35  C   UNL     1      -2.037   9.828  17.019  0.00  0.00    +0.000 A 
ATOM     36  N   UNL     1      -3.321  10.180  17.042  0.00  0.00    +0.000 NA
BRANCH  32  37
ATOM     37  C   UNL     1      -4.615  11.821  18.241  0.00  0.00    +0.000 C 
BRANCH  37  39
ATOM     38  C   UNL     1      -6.894  11.131  19.132  0.00  0.00    +0.000 C 
ATOM     39  C   UNL     1      -5.767  10.818  18.157  0.00  0.00    +0.000 C 
ENDBRANCH  37  39
ENDBRANCH  32  37
ENDBRANCH  30  34
ENDBRANCH   1  30
TORSDOF 11
ENDMDL
MODEL 9
REMARK VINA RESULT:      -7.3      1.080      1.302
REMARK  Name = 
REMARK  14 active torsions:
REMARK  status: ('A' for Active; 'I' for Inactive)
REMARK    1  A    between atoms: C_1  and  C_2
REMARK    2  A    between atoms: C_2  and  C_3
REMARK    3  A    between atoms: C_3  and  N_4
REMARK    4  A    between atoms: C_6  and  N_7
REMARK    5  A    between atoms: N_7  and  C_8
REMARK    6  A    between atoms: C_10  and  N_11
REMARK    7  A    between atoms: C_16  and  C_17
REMARK    8  A    between atoms: C_24  and  C_25
REMARK    9  A    between atoms: N_27  and  C_28
REMARK   10  A    between atoms: C_28  and  C_29
REMARK   11  A    between atoms: C_29  and  C_31
REMARK   12  A    between atoms: C_31  and  C_32
REMARK   13  A    between atoms: C_31  and  C_33
REMARK   14  A    between atoms: C_31  and  O_34
REMARK                            x       y       z     vdW  Elec       q    Type
REMARK                         _______ _______ _______ _____ _____    ______ ____
ROOT
ATOM      1  C   UNL     1       0.911   9.819  18.765  0.00  0.00    +0.000 A 
ATOM      2  C   UNL     1       1.499   8.685  18.169  0.00  0.00    +0.000 A 
ATOM      3  C   UNL     1       2.026   7.671  18.953  0.00  0.00    +0.000 A 
ATOM      4  N   UNL     1       2.040   7.763  20.294  0.00  0.00    +0.000 NA
ATOM      5  C   UNL     1       1.575   8.912  20.868  0.00  0.00    +0.000 A 
ATOM      6  C   UNL     1       0.998   9.966  20.156  0.00  0.00    +0.000 A 
ENDROOT
BRANCH   3   7
ATOM      7  N   UNL     1       2.714   6.610  18.287  0.00  0.00    +0.000 N 
ATOM      8  C   UNL     1       3.894   6.720  17.565  0.00  0.00    +0.000 A 
ATOM      9  C   UNL     1       4.581   5.526  17.696  0.00  0.00    +0.000 A 
ATOM     10  C   UNL     1       3.711   4.612  18.334  0.00  0.00    +0.000 A 
ATOM     11  C   UNL     1       3.783   3.311  18.862  0.00  0.00    +0.000 A 
ATOM     12  C   UNL     1       2.596   2.818  19.412  0.00  0.00    +0.000 A 
ATOM     13  C   UNL     1       1.444   3.323  18.838  0.00  0.00    +0.000 A 
ATOM     14  N   UNL     1       1.281   4.620  18.510  0.00  0.00    +0.000 NA
ATOM     15  C   UNL     1       2.470   5.251  18.403  0.00  0.00    +0.000 A 
BRANCH  12  16
ATOM     16  C   UNL     1       2.536   2.801  20.864  0.00  0.00    +0.000 C 
ATOM     17  N   UNL     1       2.465   2.928  22.020  0.00  0.00    +0.000 NA
ENDBRANCH  12  16
ENDBRANCH   3   7
BRANCH   6  18
ATOM     18  C   UNL     1       0.519  11.162  20.902  0.00  0.00    +0.000 C 
ATOM     19  O   UNL     1       1.322  12.028  21.231  0.00  0.00    +0.000 OA
ATOM     20  N   UNL     1      -0.823  11.215  21.196  0.00  0.00    +0.000 N 
ATOM     21  H   UNL     1      -1.409  10.416  20.957  0.00  0.00    +0.000 HD
BRANCH  20  22
ATOM     22  C   UNL     1      -1.429  12.305  21.949  0.00  0.00    +0.000 C 
BRANCH  22  23
ATOM     23  C   UNL     1      -2.676  11.883  22.746  0.00  0.00    +0.000 C 
ATOM     24  F   UNL     1      -2.274  10.980  23.704  0.00  0.00    +0.000 F 
BRANCH  23  25
ATOM     25  C   UNL     1      -3.404  13.039  23.482  0.00  0.00    +0.000 C 
ATOM     26  C   UNL     1      -4.260  13.894  22.541  0.00  0.00    +0.000 C 
ATOM     27  C   UNL     1      -4.255  12.530  24.647  0.00  0.00    +0.000 C 
BRANCH  25  28
ATOM     28  O   UNL     1      -2.417  13.913  24.057  0.00  0.00    +0.000 OA
ATOM     29  H   UNL     1      -2.474  13.813  25.026  0.00  0.00    +0.000 HD
ENDBRANCH  25  28
ENDBRANCH  23  25
ENDBRANCH  22  23
ENDBRANCH  20  22
ENDBRANCH   6  18
BRANCH   1  30
ATOM     30  N   UNL     1       0.220  10.738  17.931  0.00  0.00    +0.000 N 
ATOM     31  H   UNL     1       0.844  11.207  17.271  0.00  0.00    +0.000 HD
BRANCH  30  34
ATOM     32  N   UNL     1      -3.229  11.252  17.622  0.00  0.00    +0.000 N 
ATOM     33  C   UNL     1      -2.019  11.679  18.097  0.00  0.00    +0.000 A 
ATOM     34  C   UNL     1      -1.116  10.726  17.708  0.00  0.00    +0.000 A 
ATOM     35  C   UNL     1      -1.883   9.752  17.030  0.00  0.00    +0.000 A 
ATOM     36  N   UNL     1      -3.166  10.096  16.937  0.00  0.00    +0.000 NA
BRANCH  32  37
ATOM     37  C   UNL     1      -4.523  11.871  17.836  0.00  0.00    +0.000 C 
BRANCH  37  39
ATOM     38  C   UNL     1      -6.993  11.423  18.236  0.00  0.00    +0.000 C 
ATOM     39  C   UNL     1      -5.574  10.878  18.334  0.00  0.00    +0.000 C 
ENDBRANCH  37  39
ENDBRANCH  32  37
ENDBRANCH  30  34
ENDBRANCH   1  30
TORSDOF 11
ENDMDL
