MODEL 1
REMARK VINA RESULT:      -7.7      0.000      0.000
REMARK  Name = 
REMARK  10 active torsions:
REMARK  status: ('A' for Active; 'I' for Inactive)
REMARK    1  A    between atoms: C_1  and  C_2
REMARK    2  A    between atoms: C_2  and  C_3
REMARK    3  A    between atoms: C_2  and  C_4
REMARK    4  A    between atoms: C_4  and  C_5
REMARK    5  A    between atoms: C_8  and  C_9
REMARK    6  A    between atoms: C_9  and  C_10
REMARK    7  A    between atoms: C_9  and  C_11
REMARK    8  A    between atoms: N_13  and  C_14
REMARK    9  A    between atoms: C_14  and  N_15
REMARK   10  A    between atoms: N_18  and  C_19
REMARK                            x       y       z     vdW  Elec       q    Type
REMARK                         _______ _______ _______ _____ _____    ______ ____
ROOT
ATOM      1  C   UNL     1       4.105   4.892  19.324  0.00  0.00    +0.000 A 
ATOM      2  N   UNL     1       3.516   6.011  19.621  0.00  0.00    +0.000 NA
ATOM      3  N   UNL     1       2.245   5.608  20.000  0.00  0.00    +0.000 N 
ATOM      4  C   UNL     1       2.140   4.249  19.895  0.00  0.00    +0.000 A 
ATOM      5  S   UNL     1       0.911   3.186  20.191  0.00  0.00    +0.000 S 
ATOM      6  O   UNL     1       3.334   3.773  19.453  0.00  0.00    +0.000 OA
ENDROOT
BRANCH   1   7
ATOM      7  C   UNL     1       5.520   4.640  18.853  0.00  0.00    +0.000 C 
ATOM      8  C   UNL     1       6.439   5.796  19.280  0.00  0.00    +0.000 C 
BRANCH   7  12
ATOM      9  C   UNL     1       6.201   4.161  14.558  0.00  0.00    +0.000 A 
ATOM     10  C   UNL     1       7.238   4.519  15.428  0.00  0.00    +0.000 A 
ATOM     11  C   UNL     1       7.010   4.611  16.808  0.00  0.00    +0.000 A 
ATOM     12  C   UNL     1       5.743   4.353  17.369  0.00  0.00    +0.000 A 
ATOM     13  C   UNL     1       4.714   3.982  16.496  0.00  0.00    +0.000 A 
ATOM     14  C   UNL     1       4.943   3.887  15.112  0.00  0.00    +0.000 A 
BRANCH   9  15
ATOM     15  C   UNL     1       6.387   4.166  13.052  0.00  0.00    +0.000 C 
BRANCH  15  17
ATOM     16  C   UNL     1       4.599   3.285  11.455  0.00  0.00    +0.000 C 
ATOM     17  C   UNL     1       5.843   2.946  12.278  0.00  0.00    +0.000 C 
ATOM     18  C   UNL     1       6.925   2.397  11.333  0.00  0.00    +0.000 C 
ENDBRANCH  15  17
ENDBRANCH   9  15
ENDBRANCH   7  12
ENDBRANCH   1   7
BRANCH   3  19
ATOM     19  C   UNL     1       1.252   6.567  20.486  0.00  0.00    +0.000 C 
BRANCH  19  20
ATOM     20  N   UNL     1       1.818   7.909  20.539  0.00  0.00    +0.000 NA
ATOM     21  C   UNL     1       1.493   8.795  19.425  0.00  0.00    +0.000 C 
ATOM     22  C   UNL     1       0.387   9.848  19.599  0.00  0.00    +0.000 C 
ATOM     23  N   UNL     1       0.452  10.548  20.886  0.00  0.00    +0.000 N 
ATOM     24  C   UNL     1       0.641   9.691  22.067  0.00  0.00    +0.000 C 
ATOM     25  C   UNL     1       1.704   8.575  21.846  0.00  0.00    +0.000 C 
BRANCH  23  26
ATOM     26  C   UNL     1      -0.095  11.829  20.977  0.00  0.00    +0.000 A 
ATOM     27  C   UNL     1      -1.487  12.055  20.924  0.00  0.00    +0.000 A 
ATOM     28  C   UNL     1      -2.038  13.331  20.747  0.00  0.00    +0.000 A 
ATOM     29  C   UNL     1      -1.200  14.430  20.656  0.00  0.00    +0.000 A 
ATOM     30 CL   UNL     1      -1.852  15.978  20.292  0.00  0.00    +0.000 Cl
ATOM     31  C   UNL     1       0.169  14.265  20.821  0.00  0.00    +0.000 A 
ATOM     32  C   UNL     1       0.709  12.980  20.993  0.00  0.00    +0.000 A 
ENDBRANCH  23  26
ENDBRANCH  19  20
ENDBRANCH   3  19
TORSDOF 7
ENDMDL
MODEL 2
REMARK VINA RESULT:      -7.5      2.126      2.460
REMARK  Name = 
REMARK  10 active torsions:
REMARK  status: ('A' for Active; 'I' for Inactive)
REMARK    1  A    between atoms: C_1  and  C_2
REMARK    2  A    between atoms: C_2  and  C_3
REMARK    3  A    between atoms: C_2  and  C_4
REMARK    4  A    between atoms: C_4  and  C_5
REMARK    5  A    between atoms: C_8  and  C_9
REMARK    6  A    between atoms: C_9  and  C_10
REMARK    7  A    between atoms: C_9  and  C_11
REMARK    8  A    between atoms: N_13  and  C_14
REMARK    9  A    between atoms: C_14  and  N_15
REMARK   10  A    between atoms: N_18  and  C_19
REMARK                            x       y       z     vdW  Elec       q    Type
REMARK                         _______ _______ _______ _____ _____    ______ ____
ROOT
ATOM      1  C   UNL     1       3.708   6.186  18.899  0.00  0.00    +0.000 A 
ATOM      2  N   UNL     1       2.939   6.243  19.944  0.00  0.00    +0.000 NA
ATOM      3  N   UNL     1       2.117   7.326  19.672  0.00  0.00    +0.000 N 
ATOM      4  C   UNL     1       2.454   7.872  18.465  0.00  0.00    +0.000 A 
ATOM      5  S   UNL     1       1.866   9.150  17.601  0.00  0.00    +0.000 S 
ATOM      6  O   UNL     1       3.487   7.148  17.956  0.00  0.00    +0.000 OA
ENDROOT
BRANCH   1   7
ATOM      7  C   UNL     1       4.818   5.214  18.568  0.00  0.00    +0.000 C 
ATOM      8  C   UNL     1       6.083   5.552  19.376  0.00  0.00    +0.000 C 
BRANCH   7  12
ATOM      9  C   UNL     1       5.958   4.356  14.433  0.00  0.00    +0.000 A 
ATOM     10  C   UNL     1       4.724   3.943  14.953  0.00  0.00    +0.000 A 
ATOM     11  C   UNL     1       4.357   4.279  16.263  0.00  0.00    +0.000 A 
ATOM     12  C   UNL     1       5.202   5.033  17.101  0.00  0.00    +0.000 A 
ATOM     13  C   UNL     1       6.427   5.455  16.571  0.00  0.00    +0.000 A 
ATOM     14  C   UNL     1       6.796   5.121  15.256  0.00  0.00    +0.000 A 
BRANCH   9  15
ATOM     15  C   UNL     1       6.433   3.912  13.062  0.00  0.00    +0.000 C 
BRANCH  15  17
ATOM     16  C   UNL     1       4.482   3.440  11.483  0.00  0.00    +0.000 C 
ATOM     17  C   UNL     1       5.589   2.834  12.346  0.00  0.00    +0.000 C 
ATOM     18  C   UNL     1       6.492   1.966  11.454  0.00  0.00    +0.000 C 
ENDBRANCH  15  17
ENDBRANCH   9  15
ENDBRANCH   7  12
ENDBRANCH   1   7
BRANCH   3  19
ATOM     19  C   UNL     1       1.034   7.710  20.579  0.00  0.00    +0.000 C 
BRANCH  19  20
ATOM     20  N   UNL     1       1.309   9.006  21.185  0.00  0.00    +0.000 NA
ATOM     21  C   UNL     1       0.791  10.176  20.483  0.00  0.00    +0.000 C 
ATOM     22  C   UNL     1      -0.507  10.835  20.976  0.00  0.00    +0.000 C 
ATOM     23  N   UNL     1      -0.569  10.971  22.436  0.00  0.00    +0.000 N 
ATOM     24  C   UNL     1      -0.188   9.774  23.202  0.00  0.00    +0.000 C 
ATOM     25  C   UNL     1       1.080   9.067  22.638  0.00  0.00    +0.000 C 
BRANCH  23  26
ATOM     26  C   UNL     1      -1.369  11.978  22.979  0.00  0.00    +0.000 A 
ATOM     27  C   UNL     1      -2.745  11.789  23.230  0.00  0.00    +0.000 A 
ATOM     28  C   UNL     1      -3.612  12.851  23.519  0.00  0.00    +0.000 A 
ATOM     29  C   UNL     1      -3.110  14.138  23.603  0.00  0.00    +0.000 A 
ATOM     30 CL   UNL     1      -4.182  15.465  23.811  0.00  0.00    +0.000 Cl
ATOM     31  C   UNL     1      -1.743  14.352  23.478  0.00  0.00    +0.000 A 
ATOM     32  C   UNL     1      -0.885  13.280  23.184  0.00  0.00    +0.000 A 
ENDBRANCH  23  26
ENDBRANCH  19  20
ENDBRANCH   3  19
TORSDOF 7
ENDMDL
MODEL 3
REMARK VINA RESULT:      -7.4      2.552      3.481
REMARK  Name = 
REMARK  10 active torsions:
REMARK  status: ('A' for Active; 'I' for Inactive)
REMARK    1  A    between atoms: C_1  and  C_2
REMARK    2  A    between atoms: C_2  and  C_3
REMARK    3  A    between atoms: C_2  and  C_4
REMARK    4  A    between atoms: C_4  and  C_5
REMARK    5  A    between atoms: C_8  and  C_9
REMARK    6  A    between atoms: C_9  and  C_10
REMARK    7  A    between atoms: C_9  and  C_11
REMARK    8  A    between atoms: N_13  and  C_14
REMARK    9  A    between atoms: C_14  and  N_15
REMARK   10  A    between atoms: N_18  and  C_19
REMARK                            x       y       z     vdW  Elec       q    Type
REMARK                         _______ _______ _______ _____ _____    ______ ____
ROOT
ATOM      1  C   UNL     1       2.264   6.705  19.131  0.00  0.00    +0.000 A 
ATOM      2  N   UNL     1       2.022   7.148  20.328  0.00  0.00    +0.000 NA
ATOM      3  N   UNL     1       1.755   8.493  20.119  0.00  0.00    +0.000 N 
ATOM      4  C   UNL     1       1.868   8.786  18.788  0.00  0.00    +0.000 A 
ATOM      5  S   UNL     1       1.680  10.177  17.919  0.00  0.00    +0.000 S 
ATOM      6  O   UNL     1       2.202   7.639  18.137  0.00  0.00    +0.000 OA
ENDROOT
BRANCH   1   7
ATOM      7  C   UNL     1       2.609   5.307  18.670  0.00  0.00    +0.000 C 
ATOM      8  C   UNL     1       3.045   4.443  19.865  0.00  0.00    +0.000 C 
BRANCH   7  12
ATOM      9  C   UNL     1       5.744   4.691  15.682  0.00  0.00    +0.000 A 
ATOM     10  C   UNL     1       4.953   3.631  16.141  0.00  0.00    +0.000 A 
ATOM     11  C   UNL     1       3.916   3.862  17.056  0.00  0.00    +0.000 A 
ATOM     12  C   UNL     1       3.633   5.152  17.547  0.00  0.00    +0.000 A 
ATOM     13  C   UNL     1       4.418   6.209  17.073  0.00  0.00    +0.000 A 
ATOM     14  C   UNL     1       5.456   5.980  16.154  0.00  0.00    +0.000 A 
BRANCH   9  15
ATOM     15  C   UNL     1       6.944   4.459  14.783  0.00  0.00    +0.000 C 
BRANCH  15  17
ATOM     16  C   UNL     1       8.032   5.379  12.664  0.00  0.00    +0.000 C 
ATOM     17  C   UNL     1       6.767   4.785  13.284  0.00  0.00    +0.000 C 
ATOM     18  C   UNL     1       6.388   3.512  12.509  0.00  0.00    +0.000 C 
ENDBRANCH  15  17
ENDBRANCH   9  15
ENDBRANCH   7  12
ENDBRANCH   1   7
BRANCH   3  19
ATOM     19  C   UNL     1       1.360   9.374  21.219  0.00  0.00    +0.000 C 
BRANCH  19  20
ATOM     20  N   UNL     1      -0.091   9.422  21.340  0.00  0.00    +0.000 NA
ATOM     21  C   UNL     1      -0.628   9.499  22.696  0.00  0.00    +0.000 C 
ATOM     22  C   UNL     1      -1.084  10.859  23.248  0.00  0.00    +0.000 C 
ATOM     23  N   UNL     1      -1.859  11.645  22.280  0.00  0.00    +0.000 N 
ATOM     24  C   UNL     1      -1.294  11.719  20.924  0.00  0.00    +0.000 C 
ATOM     25  C   UNL     1      -0.757  10.350  20.412  0.00  0.00    +0.000 C 
BRANCH  23  26
ATOM     26  C   UNL     1      -2.761  12.595  22.763  0.00  0.00    +0.000 A 
ATOM     27  C   UNL     1      -4.070  12.715  22.249  0.00  0.00    +0.000 A 
ATOM     28  C   UNL     1      -4.891  13.816  22.526  0.00  0.00    +0.000 A 
ATOM     29  C   UNL     1      -4.431  14.817  23.364  0.00  0.00    +0.000 A 
ATOM     30 CL   UNL     1      -5.366  16.240  23.596  0.00  0.00    +0.000 Cl
ATOM     31  C   UNL     1      -3.195  14.680  23.984  0.00  0.00    +0.000 A 
ATOM     32  C   UNL     1      -2.379  13.574  23.695  0.00  0.00    +0.000 A 
ENDBRANCH  23  26
ENDBRANCH  19  20
ENDBRANCH   3  19
TORSDOF 7
ENDMDL
MODEL 4
REMARK VINA RESULT:      -7.3      3.206      5.042
REMARK  Name = 
REMARK  10 active torsions:
REMARK  status: ('A' for Active; 'I' for Inactive)
REMARK    1  A    between atoms: C_1  and  C_2
REMARK    2  A    between atoms: C_2  and  C_3
REMARK    3  A    between atoms: C_2  and  C_4
REMARK    4  A    between atoms: C_4  and  C_5
REMARK    5  A    between atoms: C_8  and  C_9
REMARK    6  A    between atoms: C_9  and  C_10
REMARK    7  A    between atoms: C_9  and  C_11
REMARK    8  A    between atoms: N_13  and  C_14
REMARK    9  A    between atoms: C_14  and  N_15
REMARK   10  A    between atoms: N_18  and  C_19
REMARK                            x       y       z     vdW  Elec       q    Type
REMARK                         _______ _______ _______ _____ _____    ______ ____
ROOT
ATOM      1  C   UNL     1       4.963   5.791  17.456  0.00  0.00    +0.000 A 
ATOM      2  N   UNL     1       4.149   6.803  17.477  0.00  0.00    +0.000 NA
ATOM      3  N   UNL     1       2.944   6.232  17.856  0.00  0.00    +0.000 N 
ATOM      4  C   UNL     1       3.105   4.885  18.031  0.00  0.00    +0.000 A 
ATOM      5  S   UNL     1       2.072   3.673  18.468  0.00  0.00    +0.000 S 
ATOM      6  O   UNL     1       4.405   4.585  17.770  0.00  0.00    +0.000 OA
ENDROOT
BRANCH   1   7
ATOM      7  C   UNL     1       6.440   5.744  17.133  0.00  0.00    +0.000 C 
ATOM      8  C   UNL     1       7.057   4.434  17.650  0.00  0.00    +0.000 C 
BRANCH   7  12
ATOM      9  C   UNL     1       8.735   9.120  18.707  0.00  0.00    +0.000 A 
ATOM     10  C   UNL     1       8.794   7.853  19.303  0.00  0.00    +0.000 A 
ATOM     11  C   UNL     1       8.094   6.772  18.747  0.00  0.00    +0.000 A 
ATOM     12  C   UNL     1       7.312   6.914  17.584  0.00  0.00    +0.000 A 
ATOM     13  C   UNL     1       7.269   8.179  16.986  0.00  0.00    +0.000 A 
ATOM     14  C   UNL     1       7.972   9.262  17.540  0.00  0.00    +0.000 A 
BRANCH   9  15
ATOM     15  C   UNL     1       9.385  10.331  19.347  0.00  0.00    +0.000 C 
BRANCH  15  17
ATOM     16  C   UNL     1       9.056  12.839  18.989  0.00  0.00    +0.000 C 
ATOM     17  C   UNL     1       9.652  11.546  18.431  0.00  0.00    +0.000 C 
ATOM     18  C   UNL     1      11.166  11.740  18.244  0.00  0.00    +0.000 C 
ENDBRANCH  15  17
ENDBRANCH   9  15
ENDBRANCH   7  12
ENDBRANCH   1   7
BRANCH   3  19
ATOM     19  C   UNL     1       1.746   7.045  18.071  0.00  0.00    +0.000 C 
BRANCH  19  20
ATOM     20  N   UNL     1       2.059   8.213  18.883  0.00  0.00    +0.000 NA
ATOM     21  C   UNL     1       1.542   9.493  18.409  0.00  0.00    +0.000 C 
ATOM     22  C   UNL     1       0.268  10.073  19.045  0.00  0.00    +0.000 C 
ATOM     23  N   UNL     1       0.247   9.954  20.508  0.00  0.00    +0.000 N 
ATOM     24  C   UNL     1       0.629   8.639  21.045  0.00  0.00    +0.000 C 
ATOM     25  C   UNL     1       1.870   8.026  20.331  0.00  0.00    +0.000 C 
BRANCH  23  26
ATOM     26  C   UNL     1      -0.521  10.862  21.239  0.00  0.00    +0.000 A 
ATOM     27  C   UNL     1      -0.822  10.661  22.604  0.00  0.00    +0.000 A 
ATOM     28  C   UNL     1      -1.797  11.407  23.279  0.00  0.00    +0.000 A 
ATOM     29  C   UNL     1      -2.477  12.409  22.607  0.00  0.00    +0.000 A 
ATOM     30 CL   UNL     1      -3.774  13.231  23.377  0.00  0.00    +0.000 Cl
ATOM     31  C   UNL     1      -2.129  12.716  21.298  0.00  0.00    +0.000 A 
ATOM     32  C   UNL     1      -1.153  11.958  20.630  0.00  0.00    +0.000 A 
ENDBRANCH  23  26
ENDBRANCH  19  20
ENDBRANCH   3  19
TORSDOF 7
ENDMDL
MODEL 5
REMARK VINA RESULT:      -7.3      2.539      3.799
REMARK  Name = 
REMARK  10 active torsions:
REMARK  status: ('A' for Active; 'I' for Inactive)
REMARK    1  A    between atoms: C_1  and  C_2
REMARK    2  A    between atoms: C_2  and  C_3
REMARK    3  A    between atoms: C_2  and  C_4
REMARK    4  A    between atoms: C_4  and  C_5
REMARK    5  A    between atoms: C_8  and  C_9
REMARK    6  A    between atoms: C_9  and  C_10
REMARK    7  A    between atoms: C_9  and  C_11
REMARK    8  A    between atoms: N_13  and  C_14
REMARK    9  A    between atoms: C_14  and  N_15
REMARK   10  A    between atoms: N_18  and  C_19
REMARK                            x       y       z     vdW  Elec       q    Type
REMARK                         _______ _______ _______ _____ _____    ______ ____
ROOT
ATOM      1  C   UNL     1       1.868   6.537  19.998  0.00  0.00    +0.000 A 
ATOM      2  N   UNL     1       1.563   7.269  21.027  0.00  0.00    +0.000 NA
ATOM      3  N   UNL     1       1.502   8.549  20.498  0.00  0.00    +0.000 N 
ATOM      4  C   UNL     1       1.791   8.512  19.162  0.00  0.00    +0.000 A 
ATOM      5  S   UNL     1       1.882   9.676  17.994  0.00  0.00    +0.000 S 
ATOM      6  O   UNL     1       2.036   7.217  18.825  0.00  0.00    +0.000 OA
ENDROOT
BRANCH   1   7
ATOM      7  C   UNL     1       2.069   5.041  19.901  0.00  0.00    +0.000 C 
ATOM      8  C   UNL     1       2.421   4.460  21.280  0.00  0.00    +0.000 C 
BRANCH   7  12
ATOM      9  C   UNL     1       4.985   3.865  16.858  0.00  0.00    +0.000 A 
ATOM     10  C   UNL     1       5.375   4.526  18.030  0.00  0.00    +0.000 A 
ATOM     11  C   UNL     1       4.431   4.842  19.017  0.00  0.00    +0.000 A 
ATOM     12  C   UNL     1       3.069   4.515  18.872  0.00  0.00    +0.000 A 
ATOM     13  C   UNL     1       2.687   3.843  17.706  0.00  0.00    +0.000 A 
ATOM     14  C   UNL     1       3.632   3.522  16.716  0.00  0.00    +0.000 A 
BRANCH   9  15
ATOM     15  C   UNL     1       5.959   3.613  15.723  0.00  0.00    +0.000 C 
BRANCH  15  17
ATOM     16  C   UNL     1       5.403   5.982  14.949  0.00  0.00    +0.000 C 
ATOM     17  C   UNL     1       5.923   4.604  14.540  0.00  0.00    +0.000 C 
ATOM     18  C   UNL     1       7.333   4.765  13.945  0.00  0.00    +0.000 C 
ENDBRANCH  15  17
ENDBRANCH   9  15
ENDBRANCH   7  12
ENDBRANCH   1   7
BRANCH   3  19
ATOM     19  C   UNL     1       1.115   9.698  21.317  0.00  0.00    +0.000 C 
BRANCH  19  20
ATOM     20  N   UNL     1      -0.335   9.834  21.357  0.00  0.00    +0.000 NA
ATOM     21  C   UNL     1      -0.949   9.880  22.681  0.00  0.00    +0.000 C 
ATOM     22  C   UNL     1      -1.353  11.238  23.276  0.00  0.00    +0.000 C 
ATOM     23  N   UNL     1      -2.017  12.118  22.308  0.00  0.00    +0.000 N 
ATOM     24  C   UNL     1      -1.366  12.222  20.992  0.00  0.00    +0.000 C 
ATOM     25  C   UNL     1      -0.884  10.847  20.441  0.00  0.00    +0.000 C 
BRANCH  23  26
ATOM     26  C   UNL     1      -2.886  13.100  22.786  0.00  0.00    +0.000 A 
ATOM     27  C   UNL     1      -4.015  12.784  23.572  0.00  0.00    +0.000 A 
ATOM     28  C   UNL     1      -5.034  13.708  23.836  0.00  0.00    +0.000 A 
ATOM     29  C   UNL     1      -4.929  14.998  23.345  0.00  0.00    +0.000 A 
ATOM     30 CL   UNL     1      -6.236  16.098  23.535  0.00  0.00    +0.000 Cl
ATOM     31  C   UNL     1      -3.780  15.384  22.667  0.00  0.00    +0.000 A 
ATOM     32  C   UNL     1      -2.767  14.446  22.405  0.00  0.00    +0.000 A 
ENDBRANCH  23  26
ENDBRANCH  19  20
ENDBRANCH   3  19
TORSDOF 7
ENDMDL
MODEL 6
REMARK VINA RESULT:      -7.3      4.526      6.913
REMARK  Name = 
REMARK  10 active torsions:
REMARK  status: ('A' for Active; 'I' for Inactive)
REMARK    1  A    between atoms: C_1  and  C_2
REMARK    2  A    between atoms: C_2  and  C_3
REMARK    3  A    between atoms: C_2  and  C_4
REMARK    4  A    between atoms: C_4  and  C_5
REMARK    5  A    between atoms: C_8  and  C_9
REMARK    6  A    between atoms: C_9  and  C_10
REMARK    7  A    between atoms: C_9  and  C_11
REMARK    8  A    between atoms: N_13  and  C_14
REMARK    9  A    between atoms: C_14  and  N_15
REMARK   10  A    between atoms: N_18  and  C_19
REMARK                            x       y       z     vdW  Elec       q    Type
REMARK                         _______ _______ _______ _____ _____    ______ ____
ROOT
ATOM      1  C   UNL     1       0.192  10.047  20.265  0.00  0.00    +0.000 A 
ATOM      2  N   UNL     1       0.578  11.252  20.557  0.00  0.00    +0.000 NA
ATOM      3  N   UNL     1      -0.239  12.046  19.767  0.00  0.00    +0.000 N 
ATOM      4  C   UNL     1      -1.073  11.257  19.025  0.00  0.00    +0.000 A 
ATOM      5  S   UNL     1      -2.252  11.590  17.917  0.00  0.00    +0.000 S 
ATOM      6  O   UNL     1      -0.802   9.960  19.333  0.00  0.00    +0.000 OA
ENDROOT
BRANCH   1   7
ATOM      7  C   UNL     1       0.679   8.719  20.801  0.00  0.00    +0.000 C 
ATOM      8  C   UNL     1       1.231   8.889  22.226  0.00  0.00    +0.000 C 
BRANCH   7  12
ATOM      9  C   UNL     1       3.325   6.419  18.184  0.00  0.00    +0.000 A 
ATOM     10  C   UNL     1       2.877   7.698  17.830  0.00  0.00    +0.000 A 
ATOM     11  C   UNL     1       2.076   8.440  18.710  0.00  0.00    +0.000 A 
ATOM     12  C   UNL     1       1.692   7.936  19.968  0.00  0.00    +0.000 A 
ATOM     13  C   UNL     1       2.155   6.663  20.322  0.00  0.00    +0.000 A 
ATOM     14  C   UNL     1       2.960   5.919  19.442  0.00  0.00    +0.000 A 
BRANCH   9  15
ATOM     15  C   UNL     1       4.095   5.547  17.210  0.00  0.00    +0.000 C 
BRANCH  15  17
ATOM     16  C   UNL     1       6.397   5.332  18.294  0.00  0.00    +0.000 C 
ATOM     17  C   UNL     1       5.609   5.819  17.077  0.00  0.00    +0.000 C 
ATOM     18  C   UNL     1       6.160   5.122  15.821  0.00  0.00    +0.000 C 
ENDBRANCH  15  17
ENDBRANCH   9  15
ENDBRANCH   7  12
ENDBRANCH   1   7
BRANCH   3  19
ATOM     19  C   UNL     1      -0.183  13.507  19.835  0.00  0.00    +0.000 C 
BRANCH  19  20
ATOM     20  N   UNL     1       0.559  14.045  18.702  0.00  0.00    +0.000 NA
ATOM     21  C   UNL     1       0.958  15.447  18.791  0.00  0.00    +0.000 C 
ATOM     22  C   UNL     1       2.398  15.795  19.198  0.00  0.00    +0.000 C 
ATOM     23  N   UNL     1       3.404  14.956  18.538  0.00  0.00    +0.000 N 
ATOM     24  C   UNL     1       3.126  13.511  18.536  0.00  0.00    +0.000 C 
ATOM     25  C   UNL     1       1.641  13.177  18.206  0.00  0.00    +0.000 C 
BRANCH  23  26
ATOM     26  C   UNL     1       4.695  15.464  18.377  0.00  0.00    +0.000 A 
ATOM     27  C   UNL     1       5.741  14.694  17.825  0.00  0.00    +0.000 A 
ATOM     28  C   UNL     1       7.084  15.084  17.898  0.00  0.00    +0.000 A 
ATOM     29  C   UNL     1       7.414  16.287  18.499  0.00  0.00    +0.000 A 
ATOM     30 CL   UNL     1       9.065  16.709  18.726  0.00  0.00    +0.000 Cl
ATOM     31  C   UNL     1       6.406  17.129  18.949  0.00  0.00    +0.000 A 
ATOM     32  C   UNL     1       5.063  16.725  18.874  0.00  0.00    +0.000 A 
ENDBRANCH  23  26
ENDBRANCH  19  20
ENDBRANCH   3  19
TORSDOF 7
ENDMDL
MODEL 7
REMARK VINA RESULT:      -7.3      1.577      2.370
REMARK  Name = 
REMARK  10 active torsions:
REMARK  status: ('A' for Active; 'I' for Inactive)
REMARK    1  A    between atoms: C_1  and  C_2
REMARK    2  A    between atoms: C_2  and  C_3
REMARK    3  A    between atoms: C_2  and  C_4
REMARK    4  A    between atoms: C_4  and  C_5
REMARK    5  A    between atoms: C_8  and  C_9
REMARK    6  A    between atoms: C_9  and  C_10
REMARK    7  A    between atoms: C_9  and  C_11
REMARK    8  A    between atoms: N_13  and  C_14
REMARK    9  A    between atoms: C_14  and  N_15
REMARK   10  A    between atoms: N_18  and  C_19
REMARK                            x       y       z     vdW  Elec       q    Type
REMARK                         _______ _______ _______ _____ _____    ______ ____
ROOT
ATOM      1  C   UNL     1       5.384   4.867  18.743  0.00  0.00    +0.000 A 
ATOM      2  N   UNL     1       4.723   5.785  19.382  0.00  0.00    +0.000 NA
ATOM      3  N   UNL     1       3.672   5.081  19.950  0.00  0.00    +0.000 N 
ATOM      4  C   UNL     1       3.758   3.761  19.602  0.00  0.00    +0.000 A 
ATOM      5  S   UNL     1       2.830   2.441  19.950  0.00  0.00    +0.000 S 
ATOM      6  O   UNL     1       4.858   3.609  18.817  0.00  0.00    +0.000 OA
ENDROOT
BRANCH   1   7
ATOM      7  C   UNL     1       6.650   4.980  17.925  0.00  0.00    +0.000 C 
ATOM      8  C   UNL     1       7.353   6.317  18.211  0.00  0.00    +0.000 C 
BRANCH   7  12
ATOM      9  C   UNL     1       6.362   4.086  13.652  0.00  0.00    +0.000 A 
ATOM     10  C   UNL     1       5.285   3.867  14.520  0.00  0.00    +0.000 A 
ATOM     11  C   UNL     1       5.381   4.214  15.875  0.00  0.00    +0.000 A 
ATOM     12  C   UNL     1       6.550   4.788  16.413  0.00  0.00    +0.000 A 
ATOM     13  C   UNL     1       7.617   5.018  15.537  0.00  0.00    +0.000 A 
ATOM     14  C   UNL     1       7.521   4.673  14.178  0.00  0.00    +0.000 A 
BRANCH   9  15
ATOM     15  C   UNL     1       6.331   3.616  12.210  0.00  0.00    +0.000 C 
BRANCH  15  17
ATOM     16  C   UNL     1       4.127   3.103  11.027  0.00  0.00    +0.000 C 
ATOM     17  C   UNL     1       5.285   2.538  11.850  0.00  0.00    +0.000 C 
ATOM     18  C   UNL     1       5.951   1.405  11.052  0.00  0.00    +0.000 C 
ENDBRANCH  15  17
ENDBRANCH   9  15
ENDBRANCH   7  12
ENDBRANCH   1   7
BRANCH   3  19
ATOM     19  C   UNL     1       2.701   5.734  20.828  0.00  0.00    +0.000 C 
BRANCH  19  20
ATOM     20  N   UNL     1       1.672   6.406  20.045  0.00  0.00    +0.000 NA
ATOM     21  C   UNL     1       0.809   7.336  20.767  0.00  0.00    +0.000 C 
ATOM     22  C   UNL     1       1.088   8.845  20.679  0.00  0.00    +0.000 C 
ATOM     23  N   UNL     1       1.404   9.295  19.318  0.00  0.00    +0.000 N 
ATOM     24  C   UNL     1       2.378   8.472  18.585  0.00  0.00    +0.000 C 
ATOM     25  C   UNL     1       2.133   6.943  18.754  0.00  0.00    +0.000 C 
BRANCH  23  26
ATOM     26  C   UNL     1       1.155  10.628  18.983  0.00  0.00    +0.000 A 
ATOM     27  C   UNL     1       2.162  11.473  18.469  0.00  0.00    +0.000 A 
ATOM     28  C   UNL     1       2.007  12.862  18.378  0.00  0.00    +0.000 A 
ATOM     29  C   UNL     1       0.813  13.443  18.769  0.00  0.00    +0.000 A 
ATOM     30 CL   UNL     1       0.661  15.154  18.801  0.00  0.00    +0.000 Cl
ATOM     31  C   UNL     1      -0.244  12.636  19.170  0.00  0.00    +0.000 A 
ATOM     32  C   UNL     1      -0.076  11.245  19.261  0.00  0.00    +0.000 A 
ENDBRANCH  23  26
ENDBRANCH  19  20
ENDBRANCH   3  19
TORSDOF 7
ENDMDL
MODEL 8
REMARK VINA RESULT:      -7.2      3.483      5.228
REMARK  Name = 
REMARK  10 active torsions:
REMARK  status: ('A' for Active; 'I' for Inactive)
REMARK    1  A    between atoms: C_1  and  C_2
REMARK    2  A    between atoms: C_2  and  C_3
REMARK    3  A    between atoms: C_2  and  C_4
REMARK    4  A    between atoms: C_4  and  C_5
REMARK    5  A    between atoms: C_8  and  C_9
REMARK    6  A    between atoms: C_9  and  C_10
REMARK    7  A    between atoms: C_9  and  C_11
REMARK    8  A    between atoms: N_13  and  C_14
REMARK    9  A    between atoms: C_14  and  N_15
REMARK   10  A    between atoms: N_18  and  C_19
REMARK                            x       y       z     vdW  Elec       q    Type
REMARK                         _______ _______ _______ _____ _____    ______ ____
ROOT
ATOM      1  C   UNL     1       5.018   6.215  17.311  0.00  0.00    +0.000 A 
ATOM      2  N   UNL     1       4.130   7.110  17.622  0.00  0.00    +0.000 NA
ATOM      3  N   UNL     1       2.981   6.361  17.823  0.00  0.00    +0.000 N 
ATOM      4  C   UNL     1       3.248   5.037  17.605  0.00  0.00    +0.000 A 
ATOM      5  S   UNL     1       2.322   3.672  17.680  0.00  0.00    +0.000 S 
ATOM      6  O   UNL     1       4.561   4.928  17.268  0.00  0.00    +0.000 OA
ENDROOT
BRANCH   1   7
ATOM      7  C   UNL     1       6.485   6.381  16.986  0.00  0.00    +0.000 C 
ATOM      8  C   UNL     1       7.234   5.057  17.213  0.00  0.00    +0.000 C 
BRANCH   7  12
ATOM      9  C   UNL     1       8.856   9.652  18.663  0.00  0.00    +0.000 A 
ATOM     10  C   UNL     1       7.868   9.884  17.698  0.00  0.00    +0.000 A 
ATOM     11  C   UNL     1       7.081   8.828  17.217  0.00  0.00    +0.000 A 
ATOM     12  C   UNL     1       7.252   7.507  17.676  0.00  0.00    +0.000 A 
ATOM     13  C   UNL     1       8.231   7.284  18.651  0.00  0.00    +0.000 A 
ATOM     14  C   UNL     1       9.018   8.342  19.137  0.00  0.00    +0.000 A 
BRANCH   9  15
ATOM     15  C   UNL     1       9.799  10.750  19.118  0.00  0.00    +0.000 C 
BRANCH  15  17
ATOM     16  C   UNL     1       9.843  12.890  17.725  0.00  0.00    +0.000 C 
ATOM     17  C   UNL     1      10.522  11.551  18.013  0.00  0.00    +0.000 C 
ATOM     18  C   UNL     1      11.981  11.815  18.424  0.00  0.00    +0.000 C 
ENDBRANCH  15  17
ENDBRANCH   9  15
ENDBRANCH   7  12
ENDBRANCH   1   7
BRANCH   3  19
ATOM     19  C   UNL     1       1.730   6.980  18.263  0.00  0.00    +0.000 C 
BRANCH  19  20
ATOM     20  N   UNL     1       2.000   8.179  19.046  0.00  0.00    +0.000 NA
ATOM     21  C   UNL     1       1.491   9.437  18.507  0.00  0.00    +0.000 C 
ATOM     22  C   UNL     1       0.188  10.025  19.071  0.00  0.00    +0.000 C 
ATOM     23  N   UNL     1       0.110   9.957  20.535  0.00  0.00    +0.000 N 
ATOM     24  C   UNL     1       0.480   8.664  21.132  0.00  0.00    +0.000 C 
ATOM     25  C   UNL     1       1.754   8.039  20.491  0.00  0.00    +0.000 C 
BRANCH  23  26
ATOM     26  C   UNL     1      -0.696  10.881  21.203  0.00  0.00    +0.000 A 
ATOM     27  C   UNL     1      -0.864  10.855  22.604  0.00  0.00    +0.000 A 
ATOM     28  C   UNL     1      -1.860  11.592  23.258  0.00  0.00    +0.000 A 
ATOM     29  C   UNL     1      -2.698  12.411  22.521  0.00  0.00    +0.000 A 
ATOM     30 CL   UNL     1      -4.015  13.205  23.289  0.00  0.00    +0.000 Cl
ATOM     31  C   UNL     1      -2.491  12.555  21.155  0.00  0.00    +0.000 A 
ATOM     32  C   UNL     1      -1.491  11.808  20.510  0.00  0.00    +0.000 A 
ENDBRANCH  23  26
ENDBRANCH  19  20
ENDBRANCH   3  19
TORSDOF 7
ENDMDL
MODEL 9
REMARK VINA RESULT:      -7.2      3.143      5.023
REMARK  Name = 
REMARK  10 active torsions:
REMARK  status: ('A' for Active; 'I' for Inactive)
REMARK    1  A    between atoms: C_1  and  C_2
REMARK    2  A    between atoms: C_2  and  C_3
REMARK    3  A    between atoms: C_2  and  C_4
REMARK    4  A    between atoms: C_4  and  C_5
REMARK    5  A    between atoms: C_8  and  C_9
REMARK    6  A    between atoms: C_9  and  C_10
REMARK    7  A    between atoms: C_9  and  C_11
REMARK    8  A    between atoms: N_13  and  C_14
REMARK    9  A    between atoms: C_14  and  N_15
REMARK   10  A    between atoms: N_18  and  C_19
REMARK                            x       y       z     vdW  Elec       q    Type
REMARK                         _______ _______ _______ _____ _____    ______ ____
ROOT
ATOM      1  C   UNL     1       5.227   5.696  17.415  0.00  0.00    +0.000 A 
ATOM      2  N   UNL     1       4.359   6.646  17.590  0.00  0.00    +0.000 NA
ATOM      3  N   UNL     1       3.188   5.956  17.866  0.00  0.00    +0.000 N 
ATOM      4  C   UNL     1       3.424   4.610  17.827  0.00  0.00    +0.000 A 
ATOM      5  S   UNL     1       2.461   3.289  18.061  0.00  0.00    +0.000 S 
ATOM      6  O   UNL     1       4.738   4.427  17.530  0.00  0.00    +0.000 OA
ENDROOT
BRANCH   1   7
ATOM      7  C   UNL     1       6.704   5.783  17.098  0.00  0.00    +0.000 C 
ATOM      8  C   UNL     1       7.427   4.514  17.578  0.00  0.00    +0.000 C 
BRANCH   7  12
ATOM      9  C   UNL     1       8.704   9.289  18.785  0.00  0.00    +0.000 A 
ATOM     10  C   UNL     1       8.862   8.016  19.346  0.00  0.00    +0.000 A 
ATOM     11  C   UNL     1       8.257   6.898  18.755  0.00  0.00    +0.000 A 
ATOM     12  C   UNL     1       7.474   7.007  17.589  0.00  0.00    +0.000 A 
ATOM     13  C   UNL     1       7.332   8.280  17.025  0.00  0.00    +0.000 A 
ATOM     14  C   UNL     1       7.940   9.402  17.614  0.00  0.00    +0.000 A 
BRANCH   9  15
ATOM     15  C   UNL     1       9.248  10.532  19.464  0.00  0.00    +0.000 C 
BRANCH  15  17
ATOM     16  C   UNL     1      10.568  11.824  17.700  0.00  0.00    +0.000 C 
ATOM     17  C   UNL     1      10.636  11.027  19.004  0.00  0.00    +0.000 C 
ATOM     18  C   UNL     1      11.265  11.914  20.092  0.00  0.00    +0.000 C 
ENDBRANCH  15  17
ENDBRANCH   9  15
ENDBRANCH   7  12
ENDBRANCH   1   7
BRANCH   3  19
ATOM     19  C   UNL     1       1.947   6.658  18.199  0.00  0.00    +0.000 C 
BRANCH  19  20
ATOM     20  N   UNL     1       2.236   7.937  18.833  0.00  0.00    +0.000 NA
ATOM     21  C   UNL     1       1.876   9.134  18.079  0.00  0.00    +0.000 C 
ATOM     22  C   UNL     1       0.576   9.878  18.424  0.00  0.00    +0.000 C 
ATOM     23  N   UNL     1       0.361  10.026  19.868  0.00  0.00    +0.000 N 
ATOM     24  C   UNL     1       0.576   8.812  20.671  0.00  0.00    +0.000 C 
ATOM     25  C   UNL     1       1.851   8.022  20.252  0.00  0.00    +0.000 C 
BRANCH  23  26
ATOM     26  C   UNL     1      -0.428  11.086  20.320  0.00  0.00    +0.000 A 
ATOM     27  C   UNL     1      -1.621  11.463  19.667  0.00  0.00    +0.000 A 
ATOM     28  C   UNL     1      -2.279  12.670  19.937  0.00  0.00    +0.000 A 
ATOM     29  C   UNL     1      -1.774  13.521  20.905  0.00  0.00    +0.000 A 
ATOM     30 CL   UNL     1      -2.485  15.067  21.143  0.00  0.00    +0.000 Cl
ATOM     31  C   UNL     1      -0.670  13.133  21.652  0.00  0.00    +0.000 A 
ATOM     32  C   UNL     1      -0.016  11.923  21.369  0.00  0.00    +0.000 A 
ENDBRANCH  23  26
ENDBRANCH  19  20
ENDBRANCH   3  19
TORSDOF 7
ENDMDL
