MODEL 1
REMARK VINA RESULT:      -8.3      0.000      0.000
REMARK  Name = 
REMARK  7 active torsions:
REMARK  status: ('A' for Active; 'I' for Inactive)
REMARK    1  A    between atoms: C_2  and  C_3
REMARK    2  A    between atoms: N_10  and  C_11
REMARK    3  A    between atoms: N_10  and  C_26
REMARK    4  A    between atoms: C_11  and  C_12
REMARK    5  A    between atoms: C_15  and  C_16
REMARK    6  A    between atoms: C_16  and  O_17
REMARK    7  A    between atoms: O_17  and  C_18
REMARK                            x       y       z     vdW  Elec       q    Type
REMARK                         _______ _______ _______ _____ _____    ______ ____
ROOT
ATOM      1  C   UNL     1       2.849   6.006  19.820  0.00  0.00    +0.000 C 
ENDROOT
BRANCH   1   2
ATOM      2  C   UNL     1       2.372   7.310  19.271  0.00  0.00    +0.000 A 
ATOM      3  C   UNL     1       2.605   7.850  18.018  0.00  0.00    +0.000 A 
ATOM      4  S   UNL     1       1.850   9.383  17.880  0.00  0.00    +0.000 S 
ATOM      5  C   UNL     1       1.251   9.213  19.479  0.00  0.00    +0.000 A 
ATOM      6  N   UNL     1       1.640   8.131  20.112  0.00  0.00    +0.000 NA
BRANCH   5   7
ATOM      7  C   UNL     1       0.254  10.172  20.039  0.00  0.00    +0.000 C 
BRANCH   7   8
ATOM      8  O   UNL     1      -0.117  11.100  19.023  0.00  0.00    +0.000 OA
BRANCH   8   9
ATOM      9  C   UNL     1      -1.466  11.190  18.781  0.00  0.00    +0.000 A 
ATOM     10  C   UNL     1      -2.344  12.084  19.408  0.00  0.00    +0.000 A 
ATOM     11  C   UNL     1      -3.705  12.071  19.087  0.00  0.00    +0.000 A 
ATOM     12  C   UNL     1      -4.188  11.173  18.146  0.00  0.00    +0.000 A 
ATOM     13 CL   UNL     1      -5.865  11.155  17.760  0.00  0.00    +0.000 Cl
ATOM     14  C   UNL     1      -3.320  10.287  17.512  0.00  0.00    +0.000 A 
ATOM     15  C   UNL     1      -1.959  10.297  17.833  0.00  0.00    +0.000 A 
ENDBRANCH   8   9
ENDBRANCH   7   8
ENDBRANCH   5   7
ENDBRANCH   1   2
BRANCH   1  18
ATOM     16  O   UNL     1       3.922   3.604  17.228  0.00  0.00    +0.000 OA
ATOM     17  C   UNL     1       3.995   4.539  18.017  0.00  0.00    +0.000 C 
ATOM     18  N   UNL     1       2.883   4.952  18.790  0.00  0.00    +0.000 N 
BRANCH  17  19
ATOM     19  C   UNL     1       5.310   5.242  18.106  0.00  0.00    +0.000 A 
ATOM     20  C   UNL     1       6.202   5.042  19.164  0.00  0.00    +0.000 A 
ATOM     21  C   UNL     1       7.365   5.816  19.280  0.00  0.00    +0.000 A 
ATOM     22  C   UNL     1       7.717   6.697  18.265  0.00  0.00    +0.000 A 
ATOM     23  C   UNL     1       6.917   6.789  17.129  0.00  0.00    +0.000 A 
ATOM     24  C   UNL     1       5.716   6.076  17.059  0.00  0.00    +0.000 A 
ATOM     25  F   UNL     1       4.969   6.229  15.956  0.00  0.00    +0.000 F 
ENDBRANCH  17  19
BRANCH  18  26
ATOM     26  C   UNL     1       1.664   4.157  18.653  0.00  0.00    +0.000 C 
ATOM     27  C   UNL     1       1.536   2.709  19.063  0.00  0.00    +0.000 C 
ATOM     28  C   UNL     1       0.839   3.769  19.855  0.00  0.00    +0.000 C 
ENDBRANCH  18  26
ENDBRANCH   1  18
TORSDOF 7
ENDMDL
MODEL 2
REMARK VINA RESULT:      -8.2      2.834      4.643
REMARK  Name = 
REMARK  7 active torsions:
REMARK  status: ('A' for Active; 'I' for Inactive)
REMARK    1  A    between atoms: C_2  and  C_3
REMARK    2  A    between atoms: N_10  and  C_11
REMARK    3  A    between atoms: N_10  and  C_26
REMARK    4  A    between atoms: C_11  and  C_12
REMARK    5  A    between atoms: C_15  and  C_16
REMARK    6  A    between atoms: C_16  and  O_17
REMARK    7  A    between atoms: O_17  and  C_18
REMARK                            x       y       z     vdW  Elec       q    Type
REMARK                         _______ _______ _______ _____ _____    ______ ____
ROOT
ATOM      1  C   UNL     1       5.176   5.165  18.677  0.00  0.00    +0.000 C 
ENDROOT
BRANCH   1   2
ATOM      2  C   UNL     1       4.064   6.160  18.660  0.00  0.00    +0.000 A 
ATOM      3  C   UNL     1       3.684   7.006  17.633  0.00  0.00    +0.000 A 
ATOM      4  S   UNL     1       2.354   7.972  18.117  0.00  0.00    +0.000 S 
ATOM      5  C   UNL     1       2.360   7.187  19.643  0.00  0.00    +0.000 A 
ATOM      6  N   UNL     1       3.328   6.319  19.823  0.00  0.00    +0.000 NA
BRANCH   5   7
ATOM      7  C   UNL     1       1.258   7.396  20.627  0.00  0.00    +0.000 C 
BRANCH   7   8
ATOM      8  O   UNL     1       1.666   8.375  21.579  0.00  0.00    +0.000 OA
BRANCH   8   9
ATOM      9  C   UNL     1       0.735   9.346  21.851  0.00  0.00    +0.000 A 
ATOM     10  C   UNL     1      -0.020   9.439  23.028  0.00  0.00    +0.000 A 
ATOM     11  C   UNL     1      -0.951  10.471  23.184  0.00  0.00    +0.000 A 
ATOM     12  C   UNL     1      -1.129  11.405  22.173  0.00  0.00    +0.000 A 
ATOM     13 CL   UNL     1      -2.282  12.667  22.365  0.00  0.00    +0.000 Cl
ATOM     14  C   UNL     1      -0.376  11.324  21.004  0.00  0.00    +0.000 A 
ATOM     15  C   UNL     1       0.554  10.292  20.845  0.00  0.00    +0.000 A 
ENDBRANCH   8   9
ENDBRANCH   7   8
ENDBRANCH   5   7
ENDBRANCH   1   2
BRANCH   1  18
ATOM     16  O   UNL     1       3.701   2.174  17.088  0.00  0.00    +0.000 OA
ATOM     17  C   UNL     1       3.872   3.055  17.923  0.00  0.00    +0.000 C 
ATOM     18  N   UNL     1       4.903   4.017  17.792  0.00  0.00    +0.000 N 
BRANCH  17  19
ATOM     19  C   UNL     1       2.956   3.051  19.102  0.00  0.00    +0.000 A 
ATOM     20  C   UNL     1       1.605   3.397  19.009  0.00  0.00    +0.000 A 
ATOM     21  C   UNL     1       0.810   3.507  20.158  0.00  0.00    +0.000 A 
ATOM     22  C   UNL     1       1.321   3.134  21.395  0.00  0.00    +0.000 A 
ATOM     23  C   UNL     1       2.619   2.636  21.478  0.00  0.00    +0.000 A 
ATOM     24  C   UNL     1       3.432   2.608  20.341  0.00  0.00    +0.000 A 
ATOM     25  F   UNL     1       4.684   2.150  20.486  0.00  0.00    +0.000 F 
ENDBRANCH  17  19
BRANCH  18  26
ATOM     26  C   UNL     1       5.705   3.950  16.571  0.00  0.00    +0.000 C 
ATOM     27  C   UNL     1       5.403   4.717  15.305  0.00  0.00    +0.000 C 
ATOM     28  C   UNL     1       6.582   5.100  16.143  0.00  0.00    +0.000 C 
ENDBRANCH  18  26
ENDBRANCH   1  18
TORSDOF 7
ENDMDL
MODEL 3
REMARK VINA RESULT:      -8.0      2.556      2.808
REMARK  Name = 
REMARK  7 active torsions:
REMARK  status: ('A' for Active; 'I' for Inactive)
REMARK    1  A    between atoms: C_2  and  C_3
REMARK    2  A    between atoms: N_10  and  C_11
REMARK    3  A    between atoms: N_10  and  C_26
REMARK    4  A    between atoms: C_11  and  C_12
REMARK    5  A    between atoms: C_15  and  C_16
REMARK    6  A    between atoms: C_16  and  O_17
REMARK    7  A    between atoms: O_17  and  C_18
REMARK                            x       y       z     vdW  Elec       q    Type
REMARK                         _______ _______ _______ _____ _____    ______ ____
ROOT
ATOM      1  C   UNL     1       3.073   5.616  19.598  0.00  0.00    +0.000 C 
ENDROOT
BRANCH   1   2
ATOM      2  C   UNL     1       2.478   6.960  19.331  0.00  0.00    +0.000 A 
ATOM      3  C   UNL     1       2.474   7.676  18.147  0.00  0.00    +0.000 A 
ATOM      4  S   UNL     1       1.676   9.178  18.362  0.00  0.00    +0.000 S 
ATOM      5  C   UNL     1       1.373   8.763  20.000  0.00  0.00    +0.000 A 
ATOM      6  N   UNL     1       1.891   7.624  20.395  0.00  0.00    +0.000 NA
BRANCH   5   7
ATOM      7  C   UNL     1       0.472   9.590  20.854  0.00  0.00    +0.000 C 
BRANCH   7   8
ATOM      8  O   UNL     1       0.693  10.968  20.564  0.00  0.00    +0.000 OA
BRANCH   8   9
ATOM      9  C   UNL     1       0.042  11.849  21.391  0.00  0.00    +0.000 A 
ATOM     10  C   UNL     1       0.282  13.228  21.458  0.00  0.00    +0.000 A 
ATOM     11  C   UNL     1      -0.440  14.023  22.354  0.00  0.00    +0.000 A 
ATOM     12  C   UNL     1      -1.397  13.447  23.179  0.00  0.00    +0.000 A 
ATOM     13 CL   UNL     1      -2.276  14.428  24.285  0.00  0.00    +0.000 Cl
ATOM     14  C   UNL     1      -1.647  12.078  23.112  0.00  0.00    +0.000 A 
ATOM     15  C   UNL     1      -0.925  11.281  22.218  0.00  0.00    +0.000 A 
ENDBRANCH   8   9
ENDBRANCH   7   8
ENDBRANCH   5   7
ENDBRANCH   1   2
BRANCH   1  18
ATOM     16  O   UNL     1       4.322   3.898  16.576  0.00  0.00    +0.000 OA
ATOM     17  C   UNL     1       4.325   4.649  17.545  0.00  0.00    +0.000 C 
ATOM     18  N   UNL     1       3.185   4.808  18.369  0.00  0.00    +0.000 N 
BRANCH  17  19
ATOM     19  C   UNL     1       5.584   5.409  17.802  0.00  0.00    +0.000 A 
ATOM     20  C   UNL     1       6.543   4.990  18.729  0.00  0.00    +0.000 A 
ATOM     21  C   UNL     1       7.647   5.796  19.037  0.00  0.00    +0.000 A 
ATOM     22  C   UNL     1       7.877   6.963  18.316  0.00  0.00    +0.000 A 
ATOM     23  C   UNL     1       7.014   7.310  17.280  0.00  0.00    +0.000 A 
ATOM     24  C   UNL     1       5.870   6.544  17.036  0.00  0.00    +0.000 A 
ATOM     25  F   UNL     1       5.057   6.945  16.048  0.00  0.00    +0.000 F 
ENDBRANCH  17  19
BRANCH  18  26
ATOM     26  C   UNL     1       2.027   3.975  18.048  0.00  0.00    +0.000 C 
ATOM     27  C   UNL     1       1.902   2.511  18.400  0.00  0.00    +0.000 C 
ATOM     28  C   UNL     1       1.064   3.523  19.117  0.00  0.00    +0.000 C 
ENDBRANCH  18  26
ENDBRANCH   1  18
TORSDOF 7
ENDMDL
MODEL 4
REMARK VINA RESULT:      -7.9      0.604      1.158
REMARK  Name = 
REMARK  7 active torsions:
REMARK  status: ('A' for Active; 'I' for Inactive)
REMARK    1  A    between atoms: C_2  and  C_3
REMARK    2  A    between atoms: N_10  and  C_11
REMARK    3  A    between atoms: N_10  and  C_26
REMARK    4  A    between atoms: C_11  and  C_12
REMARK    5  A    between atoms: C_15  and  C_16
REMARK    6  A    between atoms: C_16  and  O_17
REMARK    7  A    between atoms: O_17  and  C_18
REMARK                            x       y       z     vdW  Elec       q    Type
REMARK                         _______ _______ _______ _____ _____    ______ ____
ROOT
ATOM      1  C   UNL     1       3.333   5.715  19.838  0.00  0.00    +0.000 C 
ENDROOT
BRANCH   1   2
ATOM      2  C   UNL     1       2.710   6.949  19.274  0.00  0.00    +0.000 A 
ATOM      3  C   UNL     1       2.806   7.448  17.987  0.00  0.00    +0.000 A 
ATOM      4  S   UNL     1       1.917   8.907  17.845  0.00  0.00    +0.000 S 
ATOM      5  C   UNL     1       1.449   8.762  19.490  0.00  0.00    +0.000 A 
ATOM      6  N   UNL     1       1.973   7.746  20.134  0.00  0.00    +0.000 NA
BRANCH   5   7
ATOM      7  C   UNL     1       0.418   9.662  20.083  0.00  0.00    +0.000 C 
BRANCH   7   8
ATOM      8  O   UNL     1       0.143  10.719  19.168  0.00  0.00    +0.000 OA
BRANCH   8   9
ATOM      9  C   UNL     1      -1.155  10.782  18.725  0.00  0.00    +0.000 A 
ATOM     10  C   UNL     1      -1.710   9.974  17.723  0.00  0.00    +0.000 A 
ATOM     11  C   UNL     1      -3.046  10.143  17.347  0.00  0.00    +0.000 A 
ATOM     12  C   UNL     1      -3.826  11.111  17.965  0.00  0.00    +0.000 A 
ATOM     13 CL   UNL     1      -5.466  11.320  17.493  0.00  0.00    +0.000 Cl
ATOM     14  C   UNL     1      -3.283  11.912  18.968  0.00  0.00    +0.000 A 
ATOM     15  C   UNL     1      -1.947  11.746  19.344  0.00  0.00    +0.000 A 
ENDBRANCH   8   9
ENDBRANCH   7   8
ENDBRANCH   5   7
ENDBRANCH   1   2
BRANCH   1  18
ATOM     16  O   UNL     1       4.783   3.522  17.243  0.00  0.00    +0.000 OA
ATOM     17  C   UNL     1       4.702   4.456  18.032  0.00  0.00    +0.000 C 
ATOM     18  N   UNL     1       3.539   4.680  18.808  0.00  0.00    +0.000 N 
BRANCH  17  19
ATOM     19  C   UNL     1       5.882   5.367  18.118  0.00  0.00    +0.000 A 
ATOM     20  C   UNL     1       6.863   5.240  19.105  0.00  0.00    +0.000 A 
ATOM     21  C   UNL     1       7.884   6.191  19.232  0.00  0.00    +0.000 A 
ATOM     22  C   UNL     1       8.015   7.200  18.285  0.00  0.00    +0.000 A 
ATOM     23  C   UNL     1       7.137   7.244  17.205  0.00  0.00    +0.000 A 
ATOM     24  C   UNL     1       6.072   6.341  17.132  0.00  0.00    +0.000 A 
ATOM     25  F   UNL     1       5.238   6.452  16.087  0.00  0.00    +0.000 F 
ENDBRANCH  17  19
BRANCH  18  26
ATOM     26  C   UNL     1       2.467   3.694  18.674  0.00  0.00    +0.000 C 
ATOM     27  C   UNL     1       1.088   3.843  19.271  0.00  0.00    +0.000 C 
ATOM     28  C   UNL     1       1.272   3.947  17.790  0.00  0.00    +0.000 C 
ENDBRANCH  18  26
ENDBRANCH   1  18
TORSDOF 7
ENDMDL
MODEL 5
REMARK VINA RESULT:      -7.9      1.196      1.711
REMARK  Name = 
REMARK  7 active torsions:
REMARK  status: ('A' for Active; 'I' for Inactive)
REMARK    1  A    between atoms: C_2  and  C_3
REMARK    2  A    between atoms: N_10  and  C_11
REMARK    3  A    between atoms: N_10  and  C_26
REMARK    4  A    between atoms: C_11  and  C_12
REMARK    5  A    between atoms: C_15  and  C_16
REMARK    6  A    between atoms: C_16  and  O_17
REMARK    7  A    between atoms: O_17  and  C_18
REMARK                            x       y       z     vdW  Elec       q    Type
REMARK                         _______ _______ _______ _____ _____    ______ ____
ROOT
ATOM      1  C   UNL     1       3.324   5.032  19.659  0.00  0.00    +0.000 C 
ENDROOT
BRANCH   1   2
ATOM      2  C   UNL     1       2.572   6.315  19.790  0.00  0.00    +0.000 A 
ATOM      3  C   UNL     1       1.898   6.805  20.895  0.00  0.00    +0.000 A 
ATOM      4  S   UNL     1       1.181   8.319  20.532  0.00  0.00    +0.000 S 
ATOM      5  C   UNL     1       1.831   8.229  18.946  0.00  0.00    +0.000 A 
ATOM      6  N   UNL     1       2.475   7.120  18.667  0.00  0.00    +0.000 NA
BRANCH   5   7
ATOM      7  C   UNL     1       1.771   9.394  18.017  0.00  0.00    +0.000 C 
BRANCH   7   8
ATOM      8  O   UNL     1       1.186  10.501  18.698  0.00  0.00    +0.000 OA
BRANCH   8   9
ATOM      9  C   UNL     1      -0.149  10.698  18.449  0.00  0.00    +0.000 A 
ATOM     10  C   UNL     1      -0.937   9.922  17.588  0.00  0.00    +0.000 A 
ATOM     11  C   UNL     1      -2.289  10.232  17.405  0.00  0.00    +0.000 A 
ATOM     12  C   UNL     1      -2.853  11.307  18.076  0.00  0.00    +0.000 A 
ATOM     13 CL   UNL     1      -4.513  11.689  17.841  0.00  0.00    +0.000 Cl
ATOM     14  C   UNL     1      -2.078  12.078  18.941  0.00  0.00    +0.000 A 
ATOM     15  C   UNL     1      -0.726  11.772  19.123  0.00  0.00    +0.000 A 
ENDBRANCH   8   9
ENDBRANCH   7   8
ENDBRANCH   5   7
ENDBRANCH   1   2
BRANCH   1  18
ATOM     16  O   UNL     1       4.317   4.154  16.211  0.00  0.00    +0.000 OA
ATOM     17  C   UNL     1       4.391   4.656  17.326  0.00  0.00    +0.000 C 
ATOM     18  N   UNL     1       3.340   4.541  18.268  0.00  0.00    +0.000 N 
BRANCH  17  19
ATOM     19  C   UNL     1       5.635   5.420  17.638  0.00  0.00    +0.000 A 
ATOM     20  C   UNL     1       6.650   4.909  18.453  0.00  0.00    +0.000 A 
ATOM     21  C   UNL     1       7.741   5.704  18.828  0.00  0.00    +0.000 A 
ATOM     22  C   UNL     1       7.899   6.970  18.277  0.00  0.00    +0.000 A 
ATOM     23  C   UNL     1       6.977   7.430  17.341  0.00  0.00    +0.000 A 
ATOM     24  C   UNL     1       5.848   6.664  17.036  0.00  0.00    +0.000 A 
ATOM     25  F   UNL     1       4.976   7.171  16.152  0.00  0.00    +0.000 F 
ENDBRANCH  17  19
BRANCH  18  26
ATOM     26  C   UNL     1       2.192   3.729  17.867  0.00  0.00    +0.000 C 
ATOM     27  C   UNL     1       2.084   2.237  18.078  0.00  0.00    +0.000 C 
ATOM     28  C   UNL     1       1.233   3.166  18.886  0.00  0.00    +0.000 C 
ENDBRANCH  18  26
ENDBRANCH   1  18
TORSDOF 7
ENDMDL
MODEL 6
REMARK VINA RESULT:      -7.9      2.708      4.596
REMARK  Name = 
REMARK  7 active torsions:
REMARK  status: ('A' for Active; 'I' for Inactive)
REMARK    1  A    between atoms: C_2  and  C_3
REMARK    2  A    between atoms: N_10  and  C_11
REMARK    3  A    between atoms: N_10  and  C_26
REMARK    4  A    between atoms: C_11  and  C_12
REMARK    5  A    between atoms: C_15  and  C_16
REMARK    6  A    between atoms: C_16  and  O_17
REMARK    7  A    between atoms: O_17  and  C_18
REMARK                            x       y       z     vdW  Elec       q    Type
REMARK                         _______ _______ _______ _____ _____    ______ ____
ROOT
ATOM      1  C   UNL     1       4.835   5.148  18.353  0.00  0.00    +0.000 C 
ENDROOT
BRANCH   1   2
ATOM      2  C   UNL     1       3.798   6.210  18.510  0.00  0.00    +0.000 A 
ATOM      3  C   UNL     1       3.463   7.220  17.625  0.00  0.00    +0.000 A 
ATOM      4  S   UNL     1       2.214   8.196  18.280  0.00  0.00    +0.000 S 
ATOM      5  C   UNL     1       2.191   7.200  19.677  0.00  0.00    +0.000 A 
ATOM      6  N   UNL     1       3.096   6.249  19.703  0.00  0.00    +0.000 NA
BRANCH   5   7
ATOM      7  C   UNL     1       1.124   7.340  20.711  0.00  0.00    +0.000 C 
BRANCH   7   8
ATOM      8  O   UNL     1       1.463   8.414  21.584  0.00  0.00    +0.000 OA
BRANCH   8   9
ATOM      9  C   UNL     1       0.546   9.434  21.636  0.00  0.00    +0.000 A 
ATOM     10  C   UNL     1       0.149  10.224  20.549  0.00  0.00    +0.000 A 
ATOM     11  C   UNL     1      -0.788  11.246  20.730  0.00  0.00    +0.000 A 
ATOM     12  C   UNL     1      -1.327  11.480  21.987  0.00  0.00    +0.000 A 
ATOM     13 CL   UNL     1      -2.473  12.744  22.207  0.00  0.00    +0.000 Cl
ATOM     14  C   UNL     1      -0.944  10.693  23.071  0.00  0.00    +0.000 A 
ATOM     15  C   UNL     1      -0.006   9.672  22.892  0.00  0.00    +0.000 A 
ENDBRANCH   8   9
ENDBRANCH   7   8
ENDBRANCH   5   7
ENDBRANCH   1   2
BRANCH   1  18
ATOM     16  O   UNL     1       3.041   2.290  16.851  0.00  0.00    +0.000 OA
ATOM     17  C   UNL     1       3.374   3.109  17.700  0.00  0.00    +0.000 C 
ATOM     18  N   UNL     1       4.387   4.067  17.455  0.00  0.00    +0.000 N 
BRANCH  17  19
ATOM     19  C   UNL     1       2.676   3.033  19.018  0.00  0.00    +0.000 A 
ATOM     20  C   UNL     1       1.324   3.353  19.176  0.00  0.00    +0.000 A 
ATOM     21  C   UNL     1       0.739   3.395  20.449  0.00  0.00    +0.000 A 
ATOM     22  C   UNL     1       1.463   2.980  21.560  0.00  0.00    +0.000 A 
ATOM     23  C   UNL     1       2.763   2.508  21.395  0.00  0.00    +0.000 A 
ATOM     24  C   UNL     1       3.367   2.548  20.134  0.00  0.00    +0.000 A 
ATOM     25  F   UNL     1       4.631   2.112  20.039  0.00  0.00    +0.000 F 
ENDBRANCH  17  19
BRANCH  18  26
ATOM     26  C   UNL     1       4.964   4.077  16.111  0.00  0.00    +0.000 C 
ATOM     27  C   UNL     1       5.657   5.264  15.486  0.00  0.00    +0.000 C 
ATOM     28  C   UNL     1       6.457   4.069  15.896  0.00  0.00    +0.000 C 
ENDBRANCH  18  26
ENDBRANCH   1  18
TORSDOF 7
ENDMDL
MODEL 7
REMARK VINA RESULT:      -7.8      1.815      4.035
REMARK  Name = 
REMARK  7 active torsions:
REMARK  status: ('A' for Active; 'I' for Inactive)
REMARK    1  A    between atoms: C_2  and  C_3
REMARK    2  A    between atoms: N_10  and  C_11
REMARK    3  A    between atoms: N_10  and  C_26
REMARK    4  A    between atoms: C_11  and  C_12
REMARK    5  A    between atoms: C_15  and  C_16
REMARK    6  A    between atoms: C_16  and  O_17
REMARK    7  A    between atoms: O_17  and  C_18
REMARK                            x       y       z     vdW  Elec       q    Type
REMARK                         _______ _______ _______ _____ _____    ______ ____
ROOT
ATOM      1  C   UNL     1       3.783   6.038  17.567  0.00  0.00    +0.000 C 
ENDROOT
BRANCH   1   2
ATOM      2  C   UNL     1       2.961   6.989  18.372  0.00  0.00    +0.000 A 
ATOM      3  C   UNL     1       2.568   6.877  19.695  0.00  0.00    +0.000 A 
ATOM      4  S   UNL     1       1.617   8.228  20.150  0.00  0.00    +0.000 S 
ATOM      5  C   UNL     1       1.810   8.875  18.572  0.00  0.00    +0.000 A 
ATOM      6  N   UNL     1       2.469   8.114  17.731  0.00  0.00    +0.000 NA
BRANCH   5   7
ATOM      7  C   UNL     1       1.367  10.262  18.244  0.00  0.00    +0.000 C 
BRANCH   7   8
ATOM      8  O   UNL     1       0.352  10.654  19.164  0.00  0.00    +0.000 OA
BRANCH   8   9
ATOM      9  C   UNL     1      -0.911  10.745  18.634  0.00  0.00    +0.000 A 
ATOM     10  C   UNL     1      -1.384  10.014  17.536  0.00  0.00    +0.000 A 
ATOM     11  C   UNL     1      -2.691  10.205  17.078  0.00  0.00    +0.000 A 
ATOM     12  C   UNL     1      -3.523  11.119  17.709  0.00  0.00    +0.000 A 
ATOM     13 CL   UNL     1      -5.127  11.357  17.136  0.00  0.00    +0.000 Cl
ATOM     14  C   UNL     1      -3.062  11.844  18.806  0.00  0.00    +0.000 A 
ATOM     15  C   UNL     1      -1.755  11.656  19.265  0.00  0.00    +0.000 A 
ENDBRANCH   8   9
ENDBRANCH   7   8
ENDBRANCH   5   7
ENDBRANCH   1   2
BRANCH   1  18
ATOM     16  O   UNL     1       5.501   3.558  19.698  0.00  0.00    +0.000 OA
ATOM     17  C   UNL     1       4.587   4.096  19.085  0.00  0.00    +0.000 C 
ATOM     18  N   UNL     1       4.768   5.320  18.397  0.00  0.00    +0.000 N 
BRANCH  17  19
ATOM     19  C   UNL     1       3.260   3.412  19.119  0.00  0.00    +0.000 A 
ATOM     20  C   UNL     1       2.800   2.605  18.074  0.00  0.00    +0.000 A 
ATOM     21  C   UNL     1       1.498   2.086  18.085  0.00  0.00    +0.000 A 
ATOM     22  C   UNL     1       0.694   2.253  19.206  0.00  0.00    +0.000 A 
ATOM     23  C   UNL     1       1.198   2.921  20.319  0.00  0.00    +0.000 A 
ATOM     24  C   UNL     1       2.467   3.507  20.267  0.00  0.00    +0.000 A 
ATOM     25  F   UNL     1       2.888   4.167  21.356  0.00  0.00    +0.000 F 
ENDBRANCH  17  19
BRANCH  18  26
ATOM     26  C   UNL     1       6.123   5.871  18.393  0.00  0.00    +0.000 C 
ATOM     27  C   UNL     1       7.185   5.523  17.377  0.00  0.00    +0.000 C 
ATOM     28  C   UNL     1       6.558   6.882  17.361  0.00  0.00    +0.000 C 
ENDBRANCH  18  26
ENDBRANCH   1  18
TORSDOF 7
ENDMDL
MODEL 8
REMARK VINA RESULT:      -7.7      2.301      2.780
REMARK  Name = 
REMARK  7 active torsions:
REMARK  status: ('A' for Active; 'I' for Inactive)
REMARK    1  A    between atoms: C_2  and  C_3
REMARK    2  A    between atoms: N_10  and  C_11
REMARK    3  A    between atoms: N_10  and  C_26
REMARK    4  A    between atoms: C_11  and  C_12
REMARK    5  A    between atoms: C_15  and  C_16
REMARK    6  A    between atoms: C_16  and  O_17
REMARK    7  A    between atoms: O_17  and  C_18
REMARK                            x       y       z     vdW  Elec       q    Type
REMARK                         _______ _______ _______ _____ _____    ______ ____
ROOT
ATOM      1  C   UNL     1       2.997   5.657  19.814  0.00  0.00    +0.000 C 
ENDROOT
BRANCH   1   2
ATOM      2  C   UNL     1       2.459   6.955  19.311  0.00  0.00    +0.000 A 
ATOM      3  C   UNL     1       2.501   7.460  18.022  0.00  0.00    +0.000 A 
ATOM      4  S   UNL     1       1.758   9.004  17.963  0.00  0.00    +0.000 S 
ATOM      5  C   UNL     1       1.415   8.885  19.640  0.00  0.00    +0.000 A 
ATOM      6  N   UNL     1       1.882   7.812  20.233  0.00  0.00    +0.000 NA
BRANCH   5   7
ATOM      7  C   UNL     1       0.533   9.877  20.323  0.00  0.00    +0.000 C 
BRANCH   7   8
ATOM      8  O   UNL     1      -0.053  10.728  19.341  0.00  0.00    +0.000 OA
BRANCH   8   9
ATOM      9  C   UNL     1       0.340  12.042  19.400  0.00  0.00    +0.000 A 
ATOM     10  C   UNL     1       1.467  12.521  20.080  0.00  0.00    +0.000 A 
ATOM     11  C   UNL     1       1.758  13.889  20.078  0.00  0.00    +0.000 A 
ATOM     12  C   UNL     1       0.931  14.775  19.401  0.00  0.00    +0.000 A 
ATOM     13 CL   UNL     1       1.288  16.457  19.409  0.00  0.00    +0.000 Cl
ATOM     14  C   UNL     1      -0.187  14.304  18.716  0.00  0.00    +0.000 A 
ATOM     15  C   UNL     1      -0.481  12.937  18.718  0.00  0.00    +0.000 A 
ENDBRANCH   8   9
ENDBRANCH   7   8
ENDBRANCH   5   7
ENDBRANCH   1   2
BRANCH   1  18
ATOM     16  O   UNL     1       4.250   3.468  17.116  0.00  0.00    +0.000 OA
ATOM     17  C   UNL     1       4.249   4.372  17.943  0.00  0.00    +0.000 C 
ATOM     18  N   UNL     1       3.112   4.653  18.740  0.00  0.00    +0.000 N 
BRANCH  17  19
ATOM     19  C   UNL     1       5.498   5.182  18.055  0.00  0.00    +0.000 A 
ATOM     20  C   UNL     1       6.461   4.952  19.042  0.00  0.00    +0.000 A 
ATOM     21  C   UNL     1       7.555   5.814  19.196  0.00  0.00    +0.000 A 
ATOM     22  C   UNL     1       7.771   6.831  18.274  0.00  0.00    +0.000 A 
ATOM     23  C   UNL     1       6.905   6.973  17.192  0.00  0.00    +0.000 A 
ATOM     24  C   UNL     1       5.770   6.161  17.094  0.00  0.00    +0.000 A 
ATOM     25  F   UNL     1       4.953   6.364  16.050  0.00  0.00    +0.000 F 
ENDBRANCH  17  19
BRANCH  18  26
ATOM     26  C   UNL     1       1.965   3.762  18.576  0.00  0.00    +0.000 C 
ATOM     27  C   UNL     1       1.798   2.442  19.292  0.00  0.00    +0.000 C 
ATOM     28  C   UNL     1       0.931   3.604  19.663  0.00  0.00    +0.000 C 
ENDBRANCH  18  26
ENDBRANCH   1  18
TORSDOF 7
ENDMDL
MODEL 9
REMARK VINA RESULT:      -7.7      1.824      2.151
REMARK  Name = 
REMARK  7 active torsions:
REMARK  status: ('A' for Active; 'I' for Inactive)
REMARK    1  A    between atoms: C_2  and  C_3
REMARK    2  A    between atoms: N_10  and  C_11
REMARK    3  A    between atoms: N_10  and  C_26
REMARK    4  A    between atoms: C_11  and  C_12
REMARK    5  A    between atoms: C_15  and  C_16
REMARK    6  A    between atoms: C_16  and  O_17
REMARK    7  A    between atoms: O_17  and  C_18
REMARK                            x       y       z     vdW  Elec       q    Type
REMARK                         _______ _______ _______ _____ _____    ______ ____
ROOT
ATOM      1  C   UNL     1       3.156   5.564  19.841  0.00  0.00    +0.000 C 
ENDROOT
BRANCH   1   2
ATOM      2  C   UNL     1       2.435   6.859  19.664  0.00  0.00    +0.000 A 
ATOM      3  C   UNL     1       2.490   7.733  18.592  0.00  0.00    +0.000 A 
ATOM      4  S   UNL     1       1.487   9.093  18.879  0.00  0.00    +0.000 S 
ATOM      5  C   UNL     1       1.035   8.420  20.392  0.00  0.00    +0.000 A 
ATOM      6  N   UNL     1       1.638   7.298  20.709  0.00  0.00    +0.000 NA
BRANCH   5   7
ATOM      7  C   UNL     1      -0.064   9.014  21.207  0.00  0.00    +0.000 C 
BRANCH   7   8
ATOM      8  O   UNL     1       0.368  10.271  21.721  0.00  0.00    +0.000 OA
BRANCH   8   9
ATOM      9  C   UNL     1      -0.586  11.258  21.722  0.00  0.00    +0.000 A 
ATOM     10  C   UNL     1      -1.126  11.863  22.865  0.00  0.00    +0.000 A 
ATOM     11  C   UNL     1      -2.106  12.853  22.738  0.00  0.00    +0.000 A 
ATOM     12  C   UNL     1      -2.545  13.238  21.479  0.00  0.00    +0.000 A 
ATOM     13 CL   UNL     1      -3.757  14.449  21.328  0.00  0.00    +0.000 Cl
ATOM     14  C   UNL     1      -2.007  12.647  20.338  0.00  0.00    +0.000 A 
ATOM     15  C   UNL     1      -1.029  11.656  20.463  0.00  0.00    +0.000 A 
ENDBRANCH   8   9
ENDBRANCH   7   8
ENDBRANCH   5   7
ENDBRANCH   1   2
BRANCH   1  18
ATOM     16  O   UNL     1       4.147   3.879  16.707  0.00  0.00    +0.000 OA
ATOM     17  C   UNL     1       4.229   4.624  17.677  0.00  0.00    +0.000 C 
ATOM     18  N   UNL     1       3.166   4.764  18.602  0.00  0.00    +0.000 N 
BRANCH  17  19
ATOM     19  C   UNL     1       5.497   5.399  17.824  0.00  0.00    +0.000 A 
ATOM     20  C   UNL     1       6.540   4.987  18.659  0.00  0.00    +0.000 A 
ATOM     21  C   UNL     1       7.658   5.805  18.871  0.00  0.00    +0.000 A 
ATOM     22  C   UNL     1       7.808   6.978  18.140  0.00  0.00    +0.000 A 
ATOM     23  C   UNL     1       6.851   7.320  17.188  0.00  0.00    +0.000 A 
ATOM     24  C   UNL     1       5.699   6.541  17.043  0.00  0.00    +0.000 A 
ATOM     25  F   UNL     1       4.795   6.937  16.135  0.00  0.00    +0.000 F 
ENDBRANCH  17  19
BRANCH  18  26
ATOM     26  C   UNL     1       1.994   3.919  18.381  0.00  0.00    +0.000 C 
ATOM     27  C   UNL     1       1.879   2.481  18.831  0.00  0.00    +0.000 C 
ATOM     28  C   UNL     1       1.073   3.540  19.514  0.00  0.00    +0.000 C 
ENDBRANCH  18  26
ENDBRANCH   1  18
TORSDOF 7
ENDMDL
