MODEL 1
REMARK VINA RESULT:      -9.0      0.000      0.000
REMARK  Name = 
REMARK  5 active torsions:
REMARK  status: ('A' for Active; 'I' for Inactive)
REMARK    1  A    between atoms: C_2  and  C_13
REMARK    2  A    between atoms: N_3  and  C_4
REMARK    3  A    between atoms: C_4  and  C_5
REMARK    4  A    between atoms: C_5  and  C_6
REMARK    5  A    between atoms: C_19  and  C_20
REMARK                            x       y       z     vdW  Elec       q    Type
REMARK                         _______ _______ _______ _____ _____    ______ ____
ROOT
ATOM      1  C   UNL     1       3.210   3.482  19.131  0.00  0.00    +0.000 A 
ATOM      2  C   UNL     1       3.113   2.457  20.087  0.00  0.00    +0.000 A 
ATOM      3  C   UNL     1       2.579   2.742  21.336  0.00  0.00    +0.000 A 
ATOM      4  N   UNL     1       2.128   3.951  21.740  0.00  0.00    +0.000 NA
ATOM      5  C   UNL     1       2.236   4.884  20.780  0.00  0.00    +0.000 A 
ATOM      6  N   UNL     1       1.862   6.186  20.887  0.00  0.00    +0.000 N 
ATOM      7  C   UNL     1       2.115   6.814  19.687  0.00  0.00    +0.000 A 
ATOM      8  N   UNL     1       2.645   5.960  18.822  0.00  0.00    +0.000 NA
ATOM      9  C   UNL     1       2.735   4.751  19.493  0.00  0.00    +0.000 A 
ATOM     10  H   UNL     1       1.439   6.595  21.704  0.00  0.00    +0.000 HD
ENDROOT
BRANCH   7  11
ATOM     11  C   UNL     1       1.785   8.222  19.444  0.00  0.00    +0.000 A 
ATOM     12  C   UNL     1       1.106   8.991  20.407  0.00  0.00    +0.000 A 
ATOM     13  C   UNL     1       0.782  10.326  20.150  0.00  0.00    +0.000 A 
ATOM     14  C   UNL     1       1.135  10.895  18.933  0.00  0.00    +0.000 A 
ATOM     15  F   UNL     1       0.820  12.174  18.689  0.00  0.00    +0.000 F 
ATOM     16  C   UNL     1       1.808  10.156  17.969  0.00  0.00    +0.000 A 
ATOM     17  C   UNL     1       2.137   8.823  18.226  0.00  0.00    +0.000 A 
ENDBRANCH   7  11
BRANCH   1  19
ATOM     18  O   UNL     1       3.962   2.020  17.463  0.00  0.00    +0.000 OA
ATOM     19  C   UNL     1       3.821   3.187  17.819  0.00  0.00    +0.000 C 
ATOM     20  N   UNL     1       4.231   4.258  17.056  0.00  0.00    +0.000 N 
ATOM     21  H   UNL     1       4.059   5.201  17.406  0.00  0.00    +0.000 HD
BRANCH  20  22
ATOM     22  C   UNL     1       4.910   4.047  15.794  0.00  0.00    +0.000 C 
BRANCH  22  23
ATOM     23  C   UNL     1       6.423   3.930  15.956  0.00  0.00    +0.000 C 
BRANCH  23  24
ATOM     24  C   UNL     1       6.992   5.055  16.777  0.00  0.00    +0.000 A 
ATOM     25  C   UNL     1       7.463   4.842  18.076  0.00  0.00    +0.000 A 
ATOM     26  C   UNL     1       7.969   5.913  18.807  0.00  0.00    +0.000 A 
ATOM     27  C   UNL     1       7.982   7.163  18.215  0.00  0.00    +0.000 A 
ATOM     28  F   UNL     1       8.474   8.195  18.916  0.00  0.00    +0.000 F 
ATOM     29  N   UNL     1       7.529   7.414  16.970  0.00  0.00    +0.000 NA
ATOM     30  C   UNL     1       7.041   6.357  16.283  0.00  0.00    +0.000 A 
ENDBRANCH  23  24
ENDBRANCH  22  23
ENDBRANCH  20  22
ENDBRANCH   1  19
TORSDOF 5
ENDMDL
MODEL 2
REMARK VINA RESULT:      -8.8      4.046      6.515
REMARK  Name = 
REMARK  5 active torsions:
REMARK  status: ('A' for Active; 'I' for Inactive)
REMARK    1  A    between atoms: C_2  and  C_13
REMARK    2  A    between atoms: N_3  and  C_4
REMARK    3  A    between atoms: C_4  and  C_5
REMARK    4  A    between atoms: C_5  and  C_6
REMARK    5  A    between atoms: C_19  and  C_20
REMARK                            x       y       z     vdW  Elec       q    Type
REMARK                         _______ _______ _______ _____ _____    ______ ____
ROOT
ATOM      1  C   UNL     1       6.850   5.859  17.024  0.00  0.00    +0.000 A 
ATOM      2  C   UNL     1       7.174   5.734  15.663  0.00  0.00    +0.000 A 
ATOM      3  C   UNL     1       6.453   4.852  14.871  0.00  0.00    +0.000 A 
ATOM      4  N   UNL     1       5.434   4.070  15.294  0.00  0.00    +0.000 NA
ATOM      5  C   UNL     1       5.164   4.243  16.598  0.00  0.00    +0.000 A 
ATOM      6  N   UNL     1       4.194   3.605  17.304  0.00  0.00    +0.000 N 
ATOM      7  C   UNL     1       4.221   4.065  18.601  0.00  0.00    +0.000 A 
ATOM      8  N   UNL     1       5.180   4.969  18.749  0.00  0.00    +0.000 NA
ATOM      9  C   UNL     1       5.785   5.086  17.508  0.00  0.00    +0.000 A 
ATOM     10  H   UNL     1       3.549   2.935  16.914  0.00  0.00    +0.000 HD
ENDROOT
BRANCH   7  11
ATOM     11  C   UNL     1       3.271   3.614  19.623  0.00  0.00    +0.000 A 
ATOM     12  C   UNL     1       3.647   2.687  20.613  0.00  0.00    +0.000 A 
ATOM     13  C   UNL     1       2.722   2.253  21.567  0.00  0.00    +0.000 A 
ATOM     14  C   UNL     1       1.423   2.741  21.534  0.00  0.00    +0.000 A 
ATOM     15  F   UNL     1       0.539   2.321  22.448  0.00  0.00    +0.000 F 
ATOM     16  C   UNL     1       1.030   3.659  20.569  0.00  0.00    +0.000 A 
ATOM     17  C   UNL     1       1.955   4.098  19.617  0.00  0.00    +0.000 A 
ENDBRANCH   7  11
BRANCH   1  19
ATOM     18  O   UNL     1       8.126   6.345  18.926  0.00  0.00    +0.000 OA
ATOM     19  C   UNL     1       7.648   6.764  17.875  0.00  0.00    +0.000 C 
ATOM     20  N   UNL     1       7.798   8.065  17.450  0.00  0.00    +0.000 N 
ATOM     21  H   UNL     1       7.392   8.336  16.554  0.00  0.00    +0.000 HD
BRANCH  20  22
ATOM     22  C   UNL     1       8.500   9.032  18.270  0.00  0.00    +0.000 C 
BRANCH  22  23
ATOM     23  C   UNL     1       8.388  10.452  17.722  0.00  0.00    +0.000 C 
BRANCH  23  24
ATOM     24  C   UNL     1       9.429  11.368  18.310  0.00  0.00    +0.000 A 
ATOM     25  C   UNL     1      10.133  11.021  19.466  0.00  0.00    +0.000 A 
ATOM     26  C   UNL     1      11.077  11.902  19.985  0.00  0.00    +0.000 A 
ATOM     27  C   UNL     1      11.281  13.104  19.332  0.00  0.00    +0.000 A 
ATOM     28  F   UNL     1      12.194  13.952  19.828  0.00  0.00    +0.000 F 
ATOM     29  N   UNL     1      10.617  13.482  18.221  0.00  0.00    +0.000 NA
ATOM     30  C   UNL     1       9.705  12.608  17.739  0.00  0.00    +0.000 A 
ENDBRANCH  23  24
ENDBRANCH  22  23
ENDBRANCH  20  22
ENDBRANCH   1  19
TORSDOF 5
ENDMDL
MODEL 3
REMARK VINA RESULT:      -8.5      0.722      1.013
REMARK  Name = 
REMARK  5 active torsions:
REMARK  status: ('A' for Active; 'I' for Inactive)
REMARK    1  A    between atoms: C_2  and  C_13
REMARK    2  A    between atoms: N_3  and  C_4
REMARK    3  A    between atoms: C_4  and  C_5
REMARK    4  A    between atoms: C_5  and  C_6
REMARK    5  A    between atoms: C_19  and  C_20
REMARK                            x       y       z     vdW  Elec       q    Type
REMARK                         _______ _______ _______ _____ _____    ______ ____
ROOT
ATOM      1  C   UNL     1       3.050   3.180  19.369  0.00  0.00    +0.000 A 
ATOM      2  C   UNL     1       2.979   2.226  20.398  0.00  0.00    +0.000 A 
ATOM      3  C   UNL     1       2.546   2.616  21.658  0.00  0.00    +0.000 A 
ATOM      4  N   UNL     1       2.171   3.868  22.006  0.00  0.00    +0.000 NA
ATOM      5  C   UNL     1       2.247   4.729  20.979  0.00  0.00    +0.000 A 
ATOM      6  N   UNL     1       1.932   6.051  21.020  0.00  0.00    +0.000 N 
ATOM      7  C   UNL     1       2.125   6.586  19.766  0.00  0.00    +0.000 A 
ATOM      8  N   UNL     1       2.559   5.654  18.929  0.00  0.00    +0.000 NA
ATOM      9  C   UNL     1       2.650   4.490  19.673  0.00  0.00    +0.000 A 
ATOM     10  H   UNL     1       1.583   6.531  21.834  0.00  0.00    +0.000 HD
ENDROOT
BRANCH   7  11
ATOM     11  C   UNL     1       1.833   7.988  19.449  0.00  0.00    +0.000 A 
ATOM     12  C   UNL     1       1.180   8.826  20.370  0.00  0.00    +0.000 A 
ATOM     13  C   UNL     1       0.892  10.154  20.044  0.00  0.00    +0.000 A 
ATOM     14  C   UNL     1       1.255  10.647  18.797  0.00  0.00    +0.000 A 
ATOM     15  F   UNL     1       0.975  11.919  18.486  0.00  0.00    +0.000 F 
ATOM     16  C   UNL     1       1.903   9.839  17.872  0.00  0.00    +0.000 A 
ATOM     17  C   UNL     1       2.196   8.512  18.199  0.00  0.00    +0.000 A 
ENDBRANCH   7  11
BRANCH   1  19
ATOM     18  O   UNL     1       3.457   1.601  17.689  0.00  0.00    +0.000 OA
ATOM     19  C   UNL     1       3.555   2.773  18.043  0.00  0.00    +0.000 C 
ATOM     20  N   UNL     1       4.145   3.744  17.264  0.00  0.00    +0.000 N 
ATOM     21  H   UNL     1       4.170   4.702  17.614  0.00  0.00    +0.000 HD
BRANCH  20  22
ATOM     22  C   UNL     1       4.735   3.405  15.985  0.00  0.00    +0.000 C 
BRANCH  22  23
ATOM     23  C   UNL     1       5.452   4.589  15.340  0.00  0.00    +0.000 C 
BRANCH  23  24
ATOM     24  C   UNL     1       6.262   5.371  16.339  0.00  0.00    +0.000 A 
ATOM     25  C   UNL     1       6.084   6.748  16.502  0.00  0.00    +0.000 A 
ATOM     26  C   UNL     1       6.863   7.436  17.426  0.00  0.00    +0.000 A 
ATOM     27  C   UNL     1       7.800   6.725  18.153  0.00  0.00    +0.000 A 
ATOM     28  F   UNL     1       8.549   7.386  19.048  0.00  0.00    +0.000 F 
ATOM     29  N   UNL     1       8.011   5.400  18.020  0.00  0.00    +0.000 NA
ATOM     30  C   UNL     1       7.242   4.756  17.115  0.00  0.00    +0.000 A 
ENDBRANCH  23  24
ENDBRANCH  22  23
ENDBRANCH  20  22
ENDBRANCH   1  19
TORSDOF 5
ENDMDL
MODEL 4
REMARK VINA RESULT:      -8.3      4.042      6.546
REMARK  Name = 
REMARK  5 active torsions:
REMARK  status: ('A' for Active; 'I' for Inactive)
REMARK    1  A    between atoms: C_2  and  C_13
REMARK    2  A    between atoms: N_3  and  C_4
REMARK    3  A    between atoms: C_4  and  C_5
REMARK    4  A    between atoms: C_5  and  C_6
REMARK    5  A    between atoms: C_19  and  C_20
REMARK                            x       y       z     vdW  Elec       q    Type
REMARK                         _______ _______ _______ _____ _____    ______ ____
ROOT
ATOM      1  C   UNL     1       6.925   5.918  17.058  0.00  0.00    +0.000 A 
ATOM      2  C   UNL     1       7.319   5.760  15.718  0.00  0.00    +0.000 A 
ATOM      3  C   UNL     1       6.666   4.828  14.924  0.00  0.00    +0.000 A 
ATOM      4  N   UNL     1       5.653   4.026  15.325  0.00  0.00    +0.000 NA
ATOM      5  C   UNL     1       5.315   4.233  16.607  0.00  0.00    +0.000 A 
ATOM      6  N   UNL     1       4.333   3.585  17.288  0.00  0.00    +0.000 N 
ATOM      7  C   UNL     1       4.282   4.089  18.569  0.00  0.00    +0.000 A 
ATOM      8  N   UNL     1       5.203   5.030  18.731  0.00  0.00    +0.000 NA
ATOM      9  C   UNL     1       5.863   5.126  17.517  0.00  0.00    +0.000 A 
ATOM     10  H   UNL     1       3.730   2.882  16.892  0.00  0.00    +0.000 HD
ENDROOT
BRANCH   7  11
ATOM     11  C   UNL     1       3.299   3.640  19.560  0.00  0.00    +0.000 A 
ATOM     12  C   UNL     1       1.978   4.124  19.552  0.00  0.00    +0.000 A 
ATOM     13  C   UNL     1       1.060   3.699  20.516  0.00  0.00    +0.000 A 
ATOM     14  C   UNL     1       1.458   2.792  21.489  0.00  0.00    +0.000 A 
ATOM     15  F   UNL     1       0.577   2.390  22.413  0.00  0.00    +0.000 F 
ATOM     16  C   UNL     1       2.756   2.297  21.515  0.00  0.00    +0.000 A 
ATOM     17  C   UNL     1       3.674   2.718  20.548  0.00  0.00    +0.000 A 
ENDBRANCH   7  11
BRANCH   1  19
ATOM     18  O   UNL     1       8.239   6.475  18.914  0.00  0.00    +0.000 OA
ATOM     19  C   UNL     1       7.651   6.877  17.914  0.00  0.00    +0.000 C 
ATOM     20  N   UNL     1       7.610   8.205  17.553  0.00  0.00    +0.000 N 
ATOM     21  H   UNL     1       7.122   8.464  16.695  0.00  0.00    +0.000 HD
BRANCH  20  22
ATOM     22  C   UNL     1       8.231   9.216  18.386  0.00  0.00    +0.000 C 
BRANCH  22  23
ATOM     23  C   UNL     1       8.974  10.270  17.570  0.00  0.00    +0.000 C 
BRANCH  23  24
ATOM     24  C   UNL     1       9.575  11.339  18.443  0.00  0.00    +0.000 A 
ATOM     25  C   UNL     1      10.436  11.019  19.497  0.00  0.00    +0.000 A 
ATOM     26  C   UNL     1      10.960  12.036  20.288  0.00  0.00    +0.000 A 
ATOM     27  C   UNL     1      10.600  13.341  20.003  0.00  0.00    +0.000 A 
ATOM     28  F   UNL     1      11.108  14.323  20.762  0.00  0.00    +0.000 F 
ATOM     29  N   UNL     1       9.766  13.692  19.003  0.00  0.00    +0.000 NA
ATOM     30  C   UNL     1       9.270  12.685  18.251  0.00  0.00    +0.000 A 
ENDBRANCH  23  24
ENDBRANCH  22  23
ENDBRANCH  20  22
ENDBRANCH   1  19
TORSDOF 5
ENDMDL
MODEL 5
REMARK VINA RESULT:      -8.2      3.072      4.405
REMARK  Name = 
REMARK  5 active torsions:
REMARK  status: ('A' for Active; 'I' for Inactive)
REMARK    1  A    between atoms: C_2  and  C_13
REMARK    2  A    between atoms: N_3  and  C_4
REMARK    3  A    between atoms: C_4  and  C_5
REMARK    4  A    between atoms: C_5  and  C_6
REMARK    5  A    between atoms: C_19  and  C_20
REMARK                            x       y       z     vdW  Elec       q    Type
REMARK                         _______ _______ _______ _____ _____    ______ ____
ROOT
ATOM      1  C   UNL     1       5.549   5.682  17.008  0.00  0.00    +0.000 A 
ATOM      2  C   UNL     1       5.607   4.317  16.679  0.00  0.00    +0.000 A 
ATOM      3  C   UNL     1       4.501   3.513  16.914  0.00  0.00    +0.000 A 
ATOM      4  N   UNL     1       3.329   3.927  17.449  0.00  0.00    +0.000 NA
ATOM      5  C   UNL     1       3.331   5.240  17.729  0.00  0.00    +0.000 A 
ATOM      6  N   UNL     1       2.299   5.942  18.266  0.00  0.00    +0.000 N 
ATOM      7  C   UNL     1       2.680   7.260  18.385  0.00  0.00    +0.000 A 
ATOM      8  N   UNL     1       3.923   7.421  17.950  0.00  0.00    +0.000 NA
ATOM      9  C   UNL     1       4.347   6.166  17.545  0.00  0.00    +0.000 A 
ATOM     10  H   UNL     1       1.399   5.551  18.498  0.00  0.00    +0.000 HD
ENDROOT
BRANCH   7  11
ATOM     11  C   UNL     1       1.782   8.304  18.890  0.00  0.00    +0.000 A 
ATOM     12  C   UNL     1       1.431   8.372  20.250  0.00  0.00    +0.000 A 
ATOM     13  C   UNL     1       0.558   9.362  20.710  0.00  0.00    +0.000 A 
ATOM     14  C   UNL     1       0.033  10.283  19.813  0.00  0.00    +0.000 A 
ATOM     15  F   UNL     1      -0.806  11.227  20.257  0.00  0.00    +0.000 F 
ATOM     16  C   UNL     1       0.367  10.237  18.466  0.00  0.00    +0.000 A 
ATOM     17  C   UNL     1       1.244   9.251  18.006  0.00  0.00    +0.000 A 
ENDBRANCH   7  11
BRANCH   1  19
ATOM     18  O   UNL     1       7.595   6.181  15.986  0.00  0.00    +0.000 OA
ATOM     19  C   UNL     1       6.742   6.526  16.799  0.00  0.00    +0.000 C 
ATOM     20  N   UNL     1       6.852   7.667  17.561  0.00  0.00    +0.000 N 
ATOM     21  H   UNL     1       6.093   7.903  18.200  0.00  0.00    +0.000 HD
BRANCH  20  22
ATOM     22  C   UNL     1       8.032   8.504  17.470  0.00  0.00    +0.000 C 
BRANCH  22  23
ATOM     23  C   UNL     1       8.677   8.754  18.831  0.00  0.00    +0.000 C 
BRANCH  23  24
ATOM     24  C   UNL     1       9.100  10.189  19.000  0.00  0.00    +0.000 A 
ATOM     25  C   UNL     1       9.190  11.055  17.906  0.00  0.00    +0.000 A 
ATOM     26  C   UNL     1       9.598  12.370  18.104  0.00  0.00    +0.000 A 
ATOM     27  C   UNL     1       9.909  12.774  19.390  0.00  0.00    +0.000 A 
ATOM     28  F   UNL     1      10.299  14.042  19.583  0.00  0.00    +0.000 F 
ATOM     29  N   UNL     1       9.846  11.969  20.470  0.00  0.00    +0.000 NA
ATOM     30  C   UNL     1       9.448  10.696  20.250  0.00  0.00    +0.000 A 
ENDBRANCH  23  24
ENDBRANCH  22  23
ENDBRANCH  20  22
ENDBRANCH   1  19
TORSDOF 5
ENDMDL
MODEL 6
REMARK VINA RESULT:      -8.2      1.110      1.607
REMARK  Name = 
REMARK  5 active torsions:
REMARK  status: ('A' for Active; 'I' for Inactive)
REMARK    1  A    between atoms: C_2  and  C_13
REMARK    2  A    between atoms: N_3  and  C_4
REMARK    3  A    between atoms: C_4  and  C_5
REMARK    4  A    between atoms: C_5  and  C_6
REMARK    5  A    between atoms: C_19  and  C_20
REMARK                            x       y       z     vdW  Elec       q    Type
REMARK                         _______ _______ _______ _____ _____    ______ ____
ROOT
ATOM      1  C   UNL     1       3.847   3.624  19.590  0.00  0.00    +0.000 A 
ATOM      2  C   UNL     1       3.591   2.522  20.424  0.00  0.00    +0.000 A 
ATOM      3  C   UNL     1       2.654   2.642  21.440  0.00  0.00    +0.000 A 
ATOM      4  N   UNL     1       1.936   3.754  21.719  0.00  0.00    +0.000 NA
ATOM      5  C   UNL     1       2.215   4.766  20.881  0.00  0.00    +0.000 A 
ATOM      6  N   UNL     1       1.652   6.002  20.908  0.00  0.00    +0.000 N 
ATOM      7  C   UNL     1       2.185   6.749  19.881  0.00  0.00    +0.000 A 
ATOM      8  N   UNL     1       3.075   6.034  19.206  0.00  0.00    +0.000 NA
ATOM      9  C   UNL     1       3.112   4.795  19.824  0.00  0.00    +0.000 A 
ATOM     10  H   UNL     1       0.938   6.292  21.557  0.00  0.00    +0.000 HD
ENDROOT
BRANCH   7  11
ATOM     11  C   UNL     1       1.760   8.123  19.596  0.00  0.00    +0.000 A 
ATOM     12  C   UNL     1       2.010   8.723  18.348  0.00  0.00    +0.000 A 
ATOM     13  C   UNL     1       1.615  10.041  18.101  0.00  0.00    +0.000 A 
ATOM     14  C   UNL     1       0.971  10.762  19.098  0.00  0.00    +0.000 A 
ATOM     15  F   UNL     1       0.598  12.025  18.859  0.00  0.00    +0.000 F 
ATOM     16  C   UNL     1       0.711  10.189  20.337  0.00  0.00    +0.000 A 
ATOM     17  C   UNL     1       1.101   8.870  20.583  0.00  0.00    +0.000 A 
ENDBRANCH   7  11
BRANCH   1  19
ATOM     18  O   UNL     1       6.049   3.764  18.807  0.00  0.00    +0.000 OA
ATOM     19  C   UNL     1       4.878   3.508  18.540  0.00  0.00    +0.000 C 
ATOM     20  N   UNL     1       4.462   3.136  17.281  0.00  0.00    +0.000 N 
ATOM     21  H   UNL     1       3.475   2.916  17.138  0.00  0.00    +0.000 HD
BRANCH  20  22
ATOM     22  C   UNL     1       5.401   3.079  16.180  0.00  0.00    +0.000 C 
BRANCH  22  23
ATOM     23  C   UNL     1       5.344   4.322  15.297  0.00  0.00    +0.000 C 
BRANCH  23  24
ATOM     24  C   UNL     1       5.884   5.539  15.999  0.00  0.00    +0.000 A 
ATOM     25  C   UNL     1       5.039   6.567  16.427  0.00  0.00    +0.000 A 
ATOM     26  C   UNL     1       5.580   7.681  17.060  0.00  0.00    +0.000 A 
ATOM     27  C   UNL     1       6.950   7.734  17.238  0.00  0.00    +0.000 A 
ATOM     28  F   UNL     1       7.473   8.805  17.853  0.00  0.00    +0.000 F 
ATOM     29  N   UNL     1       7.802   6.770  16.833  0.00  0.00    +0.000 NA
ATOM     30  C   UNL     1       7.250   5.699  16.220  0.00  0.00    +0.000 A 
ENDBRANCH  23  24
ENDBRANCH  22  23
ENDBRANCH  20  22
ENDBRANCH   1  19
TORSDOF 5
ENDMDL
MODEL 7
REMARK VINA RESULT:      -8.1      3.040      4.400
REMARK  Name = 
REMARK  5 active torsions:
REMARK  status: ('A' for Active; 'I' for Inactive)
REMARK    1  A    between atoms: C_2  and  C_13
REMARK    2  A    between atoms: N_3  and  C_4
REMARK    3  A    between atoms: C_4  and  C_5
REMARK    4  A    between atoms: C_5  and  C_6
REMARK    5  A    between atoms: C_19  and  C_20
REMARK                            x       y       z     vdW  Elec       q    Type
REMARK                         _______ _______ _______ _____ _____    ______ ____
ROOT
ATOM      1  C   UNL     1       5.533   5.722  17.024  0.00  0.00    +0.000 A 
ATOM      2  C   UNL     1       5.608   4.355  16.708  0.00  0.00    +0.000 A 
ATOM      3  C   UNL     1       4.508   3.542  16.944  0.00  0.00    +0.000 A 
ATOM      4  N   UNL     1       3.328   3.949  17.467  0.00  0.00    +0.000 NA
ATOM      5  C   UNL     1       3.315   5.265  17.734  0.00  0.00    +0.000 A 
ATOM      6  N   UNL     1       2.272   5.962  18.257  0.00  0.00    +0.000 N 
ATOM      7  C   UNL     1       2.640   7.285  18.366  0.00  0.00    +0.000 A 
ATOM      8  N   UNL     1       3.884   7.454  17.938  0.00  0.00    +0.000 NA
ATOM      9  C   UNL     1       4.323   6.199  17.548  0.00  0.00    +0.000 A 
ATOM     10  H   UNL     1       1.375   5.565  18.487  0.00  0.00    +0.000 HD
ENDROOT
BRANCH   7  11
ATOM     11  C   UNL     1       1.728   8.324  18.855  0.00  0.00    +0.000 A 
ATOM     12  C   UNL     1       1.169   9.277  17.983  0.00  0.00    +0.000 A 
ATOM     13  C   UNL     1       0.318  10.272  18.470  0.00  0.00    +0.000 A 
ATOM     14  C   UNL     1       0.023  10.320  19.826  0.00  0.00    +0.000 A 
ATOM     15  F   UNL     1      -0.790  11.277  20.289  0.00  0.00    +0.000 F 
ATOM     16  C   UNL     1       0.561   9.388  20.705  0.00  0.00    +0.000 A 
ATOM     17  C   UNL     1       1.409   8.389  20.219  0.00  0.00    +0.000 A 
ENDBRANCH   7  11
BRANCH   1  19
ATOM     18  O   UNL     1       7.578   6.235  16.005  0.00  0.00    +0.000 OA
ATOM     19  C   UNL     1       6.720   6.575  16.816  0.00  0.00    +0.000 C 
ATOM     20  N   UNL     1       6.819   7.720  17.574  0.00  0.00    +0.000 N 
ATOM     21  H   UNL     1       6.055   7.951  18.211  0.00  0.00    +0.000 HD
BRANCH  20  22
ATOM     22  C   UNL     1       7.991   8.566  17.484  0.00  0.00    +0.000 C 
BRANCH  22  23
ATOM     23  C   UNL     1       8.693   8.738  18.828  0.00  0.00    +0.000 C 
BRANCH  23  24
ATOM     24  C   UNL     1       9.188  10.145  19.031  0.00  0.00    +0.000 A 
ATOM     25  C   UNL     1       9.453  10.645  20.310  0.00  0.00    +0.000 A 
ATOM     26  C   UNL     1       9.896  11.956  20.455  0.00  0.00    +0.000 A 
ATOM     27  C   UNL     1      10.054  12.725  19.317  0.00  0.00    +0.000 A 
ATOM     28  F   UNL     1      10.485  13.988  19.455  0.00  0.00    +0.000 F 
ATOM     29  N   UNL     1       9.801  12.286  18.067  0.00  0.00    +0.000 NA
ATOM     30  C   UNL     1       9.370  11.010  17.954  0.00  0.00    +0.000 A 
ENDBRANCH  23  24
ENDBRANCH  22  23
ENDBRANCH  20  22
ENDBRANCH   1  19
TORSDOF 5
ENDMDL
MODEL 8
REMARK VINA RESULT:      -8.1      2.873      7.592
REMARK  Name = 
REMARK  5 active torsions:
REMARK  status: ('A' for Active; 'I' for Inactive)
REMARK    1  A    between atoms: C_2  and  C_13
REMARK    2  A    between atoms: N_3  and  C_4
REMARK    3  A    between atoms: C_4  and  C_5
REMARK    4  A    between atoms: C_5  and  C_6
REMARK    5  A    between atoms: C_19  and  C_20
REMARK                            x       y       z     vdW  Elec       q    Type
REMARK                         _______ _______ _______ _____ _____    ______ ____
ROOT
ATOM      1  C   UNL     1       2.873   5.419  19.384  0.00  0.00    +0.000 A 
ATOM      2  C   UNL     1       2.483   4.578  20.440  0.00  0.00    +0.000 A 
ATOM      3  C   UNL     1       2.832   3.236  20.404  0.00  0.00    +0.000 A 
ATOM      4  N   UNL     1       3.535   2.633  19.418  0.00  0.00    +0.000 NA
ATOM      5  C   UNL     1       3.890   3.490  18.447  0.00  0.00    +0.000 A 
ATOM      6  N   UNL     1       4.605   3.182  17.332  0.00  0.00    +0.000 N 
ATOM      7  C   UNL     1       4.779   4.330  16.592  0.00  0.00    +0.000 A 
ATOM      8  N   UNL     1       4.193   5.358  17.191  0.00  0.00    +0.000 NA
ATOM      9  C   UNL     1       3.625   4.848  18.347  0.00  0.00    +0.000 A 
ATOM     10  H   UNL     1       4.969   2.266  17.121  0.00  0.00    +0.000 HD
ENDROOT
BRANCH   7  11
ATOM     11  C   UNL     1       5.549   4.360  15.344  0.00  0.00    +0.000 A 
ATOM     12  C   UNL     1       6.729   5.117  15.231  0.00  0.00    +0.000 A 
ATOM     13  C   UNL     1       7.440   5.150  14.028  0.00  0.00    +0.000 A 
ATOM     14  C   UNL     1       6.974   4.427  12.937  0.00  0.00    +0.000 A 
ATOM     15  F   UNL     1       7.655   4.464  11.785  0.00  0.00    +0.000 F 
ATOM     16  C   UNL     1       5.813   3.670  13.026  0.00  0.00    +0.000 A 
ATOM     17  C   UNL     1       5.104   3.633  14.230  0.00  0.00    +0.000 A 
ENDBRANCH   7  11
BRANCH   1  19
ATOM     18  O   UNL     1       1.927   7.302  20.405  0.00  0.00    +0.000 OA
ATOM     19  C   UNL     1       2.461   6.837  19.402  0.00  0.00    +0.000 C 
ATOM     20  N   UNL     1       2.679   7.575  18.260  0.00  0.00    +0.000 N 
ATOM     21  H   UNL     1       3.150   7.128  17.472  0.00  0.00    +0.000 HD
BRANCH  20  22
ATOM     22  C   UNL     1       2.230   8.950  18.173  0.00  0.00    +0.000 C 
BRANCH  22  23
ATOM     23  C   UNL     1       0.818   9.069  17.606  0.00  0.00    +0.000 C 
BRANCH  23  24
ATOM     24  C   UNL     1      -0.034  10.018  18.406  0.00  0.00    +0.000 A 
ATOM     25  C   UNL     1      -1.303  10.404  17.966  0.00  0.00    +0.000 A 
ATOM     26  C   UNL     1      -2.052  11.294  18.728  0.00  0.00    +0.000 A 
ATOM     27  C   UNL     1      -1.504  11.773  19.905  0.00  0.00    +0.000 A 
ATOM     28  F   UNL     1      -2.228  12.627  20.644  0.00  0.00    +0.000 F 
ATOM     29  N   UNL     1      -0.282  11.434  20.361  0.00  0.00    +0.000 NA
ATOM     30  C   UNL     1       0.426  10.569  19.600  0.00  0.00    +0.000 A 
ENDBRANCH  23  24
ENDBRANCH  22  23
ENDBRANCH  20  22
ENDBRANCH   1  19
TORSDOF 5
ENDMDL
MODEL 9
REMARK VINA RESULT:      -8.1      2.428      3.041
REMARK  Name = 
REMARK  5 active torsions:
REMARK  status: ('A' for Active; 'I' for Inactive)
REMARK    1  A    between atoms: C_2  and  C_13
REMARK    2  A    between atoms: N_3  and  C_4
REMARK    3  A    between atoms: C_4  and  C_5
REMARK    4  A    between atoms: C_5  and  C_6
REMARK    5  A    between atoms: C_19  and  C_20
REMARK                            x       y       z     vdW  Elec       q    Type
REMARK                         _______ _______ _______ _____ _____    ______ ____
ROOT
ATOM      1  C   UNL     1       3.745   3.819  19.329  0.00  0.00    +0.000 A 
ATOM      2  C   UNL     1       3.591   2.657  20.103  0.00  0.00    +0.000 A 
ATOM      3  C   UNL     1       2.770   2.689  21.221  0.00  0.00    +0.000 A 
ATOM      4  N   UNL     1       2.077   3.767  21.656  0.00  0.00    +0.000 NA
ATOM      5  C   UNL     1       2.255   4.840  20.868  0.00  0.00    +0.000 A 
ATOM      6  N   UNL     1       1.688   6.062  21.045  0.00  0.00    +0.000 N 
ATOM      7  C   UNL     1       2.099   6.888  20.023  0.00  0.00    +0.000 A 
ATOM      8  N   UNL     1       2.915   6.238  19.205  0.00  0.00    +0.000 NA
ATOM      9  C   UNL     1       3.031   4.959  19.724  0.00  0.00    +0.000 A 
ATOM     10  H   UNL     1       1.047   6.294  21.787  0.00  0.00    +0.000 HD
ENDROOT
BRANCH   7  11
ATOM     11  C   UNL     1       1.634   8.272  19.886  0.00  0.00    +0.000 A 
ATOM     12  C   UNL     1       1.102   8.978  20.980  0.00  0.00    +0.000 A 
ATOM     13  C   UNL     1       0.644  10.289  20.827  0.00  0.00    +0.000 A 
ATOM     14  C   UNL     1       0.717  10.899  19.581  0.00  0.00    +0.000 A 
ATOM     15  F   UNL     1       0.275  12.154  19.436  0.00  0.00    +0.000 F 
ATOM     16  C   UNL     1       1.242  10.223  18.486  0.00  0.00    +0.000 A 
ATOM     17  C   UNL     1       1.704   8.913  18.640  0.00  0.00    +0.000 A 
ENDBRANCH   7  11
BRANCH   1  19
ATOM     18  O   UNL     1       4.450   3.005  17.249  0.00  0.00    +0.000 OA
ATOM     19  C   UNL     1       4.656   3.795  18.167  0.00  0.00    +0.000 C 
ATOM     20  N   UNL     1       5.727   4.661  18.183  0.00  0.00    +0.000 N 
ATOM     21  H   UNL     1       5.822   5.305  18.968  0.00  0.00    +0.000 HD
BRANCH  20  22
ATOM     22  C   UNL     1       6.708   4.640  17.117  0.00  0.00    +0.000 C 
BRANCH  22  23
ATOM     23  C   UNL     1       6.368   5.613  15.991  0.00  0.00    +0.000 C 
BRANCH  23  24
ATOM     24  C   UNL     1       6.550   4.991  14.632  0.00  0.00    +0.000 A 
ATOM     25  C   UNL     1       5.677   4.007  14.160  0.00  0.00    +0.000 A 
ATOM     26  C   UNL     1       5.889   3.448  12.903  0.00  0.00    +0.000 A 
ATOM     27  C   UNL     1       6.972   3.887  12.164  0.00  0.00    +0.000 A 
ATOM     28  F   UNL     1       7.175   3.352  10.951  0.00  0.00    +0.000 F 
ATOM     29  N   UNL     1       7.843   4.826  12.586  0.00  0.00    +0.000 NA
ATOM     30  C   UNL     1       7.615   5.352  13.810  0.00  0.00    +0.000 A 
ENDBRANCH  23  24
ENDBRANCH  22  23
ENDBRANCH  20  22
ENDBRANCH   1  19
TORSDOF 5
ENDMDL
