MODEL 1
REMARK VINA RESULT:      -6.7      0.000      0.000
REMARK  Name = 
REMARK  7 active torsions:
REMARK  status: ('A' for Active; 'I' for Inactive)
REMARK    1  A    between atoms: C_1  and  C_2
REMARK    2  A    between atoms: C_2  and  C_3
REMARK    3  A    between atoms: C_2  and  C_4
REMARK    4  A    between atoms: C_9  and  N_10
REMARK    5  A    between atoms: N_10  and  C_11
REMARK    6  A    between atoms: C_11  and  C_12
REMARK    7  A    between atoms: C_12  and  N_13
REMARK                            x       y       z     vdW  Elec       q    Type
REMARK                         _______ _______ _______ _____ _____    ______ ____
ROOT
ATOM      1  N   UNL     1       2.537   4.152  17.175  0.00  0.00    +0.000 N 
ATOM      2  H   UNL     1       1.759   3.917  16.542  0.00  0.00    +0.000 HD
ENDROOT
BRANCH   1   8
ATOM      3  C   UNL     1       2.104   4.750  19.643  0.00  0.00    +0.000 A 
ATOM      4  C   UNL     1       1.941   5.797  20.582  0.00  0.00    +0.000 A 
ATOM      5  C   UNL     1       2.053   7.137  20.222  0.00  0.00    +0.000 A 
ATOM      6  C   UNL     1       2.328   7.476  18.912  0.00  0.00    +0.000 A 
ATOM      7  C   UNL     1       2.476   6.482  17.958  0.00  0.00    +0.000 A 
ATOM      8  C   UNL     1       2.375   5.100  18.262  0.00  0.00    +0.000 A 
BRANCH   3  10
ATOM      9  C   UNL     1       2.052   3.319  21.745  0.00  0.00    +0.000 C 
ATOM     10  C   UNL     1       1.977   3.317  20.195  0.00  0.00    +0.000 C 
ATOM     11  C   UNL     1       0.642   2.674  19.777  0.00  0.00    +0.000 C 
ENDBRANCH   3  10
ENDBRANCH   1   8
BRANCH   1  12
ATOM     12  C   UNL     1       3.859   3.557  16.963  0.00  0.00    +0.000 C 
BRANCH  12  13
ATOM     13  C   UNL     1       4.879   4.303  16.077  0.00  0.00    +0.000 C 
BRANCH  13  14
ATOM     14  N   UNL     1       5.957   4.938  16.910  0.00  0.00    +0.000 NA
ATOM     15  C   UNL     1       6.055   6.406  16.728  0.00  0.00    +0.000 C 
ATOM     16  C   UNL     1       7.487   6.931  16.919  0.00  0.00    +0.000 C 
ATOM     17  C   UNL     1       7.914   7.135  18.371  0.00  0.00    +0.000 C 
ATOM     18  C   UNL     1       7.896   5.888  19.249  0.00  0.00    +0.000 C 
ATOM     19  C   UNL     1       6.484   5.327  19.431  0.00  0.00    +0.000 C 
ATOM     20  C   UNL     1       5.992   4.402  18.299  0.00  0.00    +0.000 C 
ENDBRANCH  13  14
ENDBRANCH  12  13
ENDBRANCH   1  12
TORSDOF 5
ENDMDL
MODEL 2
REMARK VINA RESULT:      -6.5      1.438      5.905
REMARK  Name = 
REMARK  7 active torsions:
REMARK  status: ('A' for Active; 'I' for Inactive)
REMARK    1  A    between atoms: C_1  and  C_2
REMARK    2  A    between atoms: C_2  and  C_3
REMARK    3  A    between atoms: C_2  and  C_4
REMARK    4  A    between atoms: C_9  and  N_10
REMARK    5  A    between atoms: N_10  and  C_11
REMARK    6  A    between atoms: C_11  and  C_12
REMARK    7  A    between atoms: C_12  and  N_13
REMARK                            x       y       z     vdW  Elec       q    Type
REMARK                         _______ _______ _______ _____ _____    ______ ____
ROOT
ATOM      1  N   UNL     1       4.558   7.373  16.963  0.00  0.00    +0.000 N 
ATOM      2  H   UNL     1       4.848   8.342  16.764  0.00  0.00    +0.000 HD
ENDROOT
BRANCH   1   8
ATOM      3  C   UNL     1       6.601   5.823  17.210  0.00  0.00    +0.000 A 
ATOM      4  C   UNL     1       7.295   4.708  16.681  0.00  0.00    +0.000 A 
ATOM      5  C   UNL     1       6.821   3.996  15.583  0.00  0.00    +0.000 A 
ATOM      6  C   UNL     1       5.641   4.375  14.975  0.00  0.00    +0.000 A 
ATOM      7  C   UNL     1       4.941   5.473  15.450  0.00  0.00    +0.000 A 
ATOM      8  C   UNL     1       5.370   6.238  16.565  0.00  0.00    +0.000 A 
BRANCH   3  10
ATOM      9  C   UNL     1       8.158   5.499  19.195  0.00  0.00    +0.000 C 
ATOM     10  C   UNL     1       7.234   6.494  18.444  0.00  0.00    +0.000 C 
ATOM     11  C   UNL     1       8.071   7.723  18.043  0.00  0.00    +0.000 C 
ENDBRANCH   3  10
ENDBRANCH   1   8
BRANCH   1  12
ATOM     12  C   UNL     1       3.276   7.114  17.623  0.00  0.00    +0.000 C 
BRANCH  12  13
ATOM     13  C   UNL     1       3.272   6.383  18.983  0.00  0.00    +0.000 C 
BRANCH  13  14
ATOM     14  N   UNL     1       2.501   5.096  18.902  0.00  0.00    +0.000 NA
ATOM     15  C   UNL     1       3.314   3.952  18.424  0.00  0.00    +0.000 C 
ATOM     16  C   UNL     1       2.481   2.918  17.650  0.00  0.00    +0.000 C 
ATOM     17  C   UNL     1       1.700   1.934  18.518  0.00  0.00    +0.000 C 
ATOM     18  C   UNL     1       0.674   2.550  19.462  0.00  0.00    +0.000 C 
ATOM     19  C   UNL     1       1.323   3.436  20.527  0.00  0.00    +0.000 C 
ATOM     20  C   UNL     1       1.624   4.883  20.087  0.00  0.00    +0.000 C 
ENDBRANCH  13  14
ENDBRANCH  12  13
ENDBRANCH   1  12
TORSDOF 5
ENDMDL
MODEL 3
REMARK VINA RESULT:      -6.4      3.103      7.012
REMARK  Name = 
REMARK  7 active torsions:
REMARK  status: ('A' for Active; 'I' for Inactive)
REMARK    1  A    between atoms: C_1  and  C_2
REMARK    2  A    between atoms: C_2  and  C_3
REMARK    3  A    between atoms: C_2  and  C_4
REMARK    4  A    between atoms: C_9  and  N_10
REMARK    5  A    between atoms: N_10  and  C_11
REMARK    6  A    between atoms: C_11  and  C_12
REMARK    7  A    between atoms: C_12  and  N_13
REMARK                            x       y       z     vdW  Elec       q    Type
REMARK                         _______ _______ _______ _____ _____    ______ ____
ROOT
ATOM      1  N   UNL     1       5.697   3.216  15.249  0.00  0.00    +0.000 N 
ATOM      2  H   UNL     1       5.826   2.207  15.414  0.00  0.00    +0.000 HD
ENDROOT
BRANCH   1   8
ATOM      3  C   UNL     1       6.243   3.626  12.764  0.00  0.00    +0.000 A 
ATOM      4  C   UNL     1       7.020   4.372  11.845  0.00  0.00    +0.000 A 
ATOM      5  C   UNL     1       7.897   5.371  12.258  0.00  0.00    +0.000 A 
ATOM      6  C   UNL     1       8.031   5.655  13.602  0.00  0.00    +0.000 A 
ATOM      7  C   UNL     1       7.304   4.936  14.536  0.00  0.00    +0.000 A 
ATOM      8  C   UNL     1       6.393   3.907  14.179  0.00  0.00    +0.000 A 
BRANCH   3  10
ATOM      9  C   UNL     1       4.217   3.250  11.275  0.00  0.00    +0.000 C 
ATOM     10  C   UNL     1       5.298   2.572  12.157  0.00  0.00    +0.000 C 
ATOM     11  C   UNL     1       6.071   1.565  11.285  0.00  0.00    +0.000 C 
ENDBRANCH   3  10
ENDBRANCH   1   8
BRANCH   1  12
ATOM     12  C   UNL     1       4.825   3.996  16.130  0.00  0.00    +0.000 C 
BRANCH  12  13
ATOM     13  C   UNL     1       5.175   4.092  17.630  0.00  0.00    +0.000 C 
BRANCH  13  14
ATOM     14  N   UNL     1       3.968   3.824  18.486  0.00  0.00    +0.000 NA
ATOM     15  C   UNL     1       3.305   5.057  18.972  0.00  0.00    +0.000 C 
ATOM     16  C   UNL     1       2.629   4.864  20.339  0.00  0.00    +0.000 C 
ATOM     17  C   UNL     1       1.253   4.204  20.294  0.00  0.00    +0.000 C 
ATOM     18  C   UNL     1       1.210   2.800  19.700  0.00  0.00    +0.000 C 
ATOM     19  C   UNL     1       1.595   2.785  18.219  0.00  0.00    +0.000 C 
ATOM     20  C   UNL     1       3.110   2.740  17.933  0.00  0.00    +0.000 C 
ENDBRANCH  13  14
ENDBRANCH  12  13
ENDBRANCH   1  12
TORSDOF 5
ENDMDL
MODEL 4
REMARK VINA RESULT:      -6.4      1.359      6.078
REMARK  Name = 
REMARK  7 active torsions:
REMARK  status: ('A' for Active; 'I' for Inactive)
REMARK    1  A    between atoms: C_1  and  C_2
REMARK    2  A    between atoms: C_2  and  C_3
REMARK    3  A    between atoms: C_2  and  C_4
REMARK    4  A    between atoms: C_9  and  N_10
REMARK    5  A    between atoms: N_10  and  C_11
REMARK    6  A    between atoms: C_11  and  C_12
REMARK    7  A    between atoms: C_12  and  N_13
REMARK                            x       y       z     vdW  Elec       q    Type
REMARK                         _______ _______ _______ _____ _____    ______ ____
ROOT
ATOM      1  N   UNL     1       4.755   6.671  17.999  0.00  0.00    +0.000 N 
ATOM      2  H   UNL     1       5.234   7.090  18.809  0.00  0.00    +0.000 HD
ENDROOT
BRANCH   1   8
ATOM      3  C   UNL     1       6.901   5.654  16.999  0.00  0.00    +0.000 A 
ATOM      4  C   UNL     1       7.442   4.834  15.979  0.00  0.00    +0.000 A 
ATOM      5  C   UNL     1       6.637   4.195  15.040  0.00  0.00    +0.000 A 
ATOM      6  C   UNL     1       5.267   4.356  15.085  0.00  0.00    +0.000 A 
ATOM      7  C   UNL     1       4.699   5.164  16.056  0.00  0.00    +0.000 A 
ATOM      8  C   UNL     1       5.463   5.842  17.041  0.00  0.00    +0.000 A 
BRANCH   3  10
ATOM      9  C   UNL     1       7.842   7.823  17.935  0.00  0.00    +0.000 C 
ATOM     10  C   UNL     1       7.913   6.274  17.981  0.00  0.00    +0.000 C 
ATOM     11  C   UNL     1       7.638   5.820  19.427  0.00  0.00    +0.000 C 
ENDBRANCH   3  10
ENDBRANCH   1   8
BRANCH   1  12
ATOM     12  C   UNL     1       3.334   6.941  17.769  0.00  0.00    +0.000 C 
BRANCH  12  13
ATOM     13  C   UNL     1       2.340   6.758  18.936  0.00  0.00    +0.000 C 
BRANCH  13  14
ATOM     14  N   UNL     1       2.259   5.317  19.356  0.00  0.00    +0.000 NA
ATOM     15  C   UNL     1       1.605   5.123  20.672  0.00  0.00    +0.000 C 
ATOM     16  C   UNL     1       2.149   3.900  21.428  0.00  0.00    +0.000 C 
ATOM     17  C   UNL     1       1.560   2.559  20.996  0.00  0.00    +0.000 C 
ATOM     18  C   UNL     1       1.781   2.175  19.537  0.00  0.00    +0.000 C 
ATOM     19  C   UNL     1       1.077   3.132  18.573  0.00  0.00    +0.000 C 
ATOM     20  C   UNL     1       1.856   4.420  18.237  0.00  0.00    +0.000 C 
ENDBRANCH  13  14
ENDBRANCH  12  13
ENDBRANCH   1  12
TORSDOF 5
ENDMDL
MODEL 5
REMARK VINA RESULT:      -6.4      3.065      7.048
REMARK  Name = 
REMARK  7 active torsions:
REMARK  status: ('A' for Active; 'I' for Inactive)
REMARK    1  A    between atoms: C_1  and  C_2
REMARK    2  A    between atoms: C_2  and  C_3
REMARK    3  A    between atoms: C_2  and  C_4
REMARK    4  A    between atoms: C_9  and  N_10
REMARK    5  A    between atoms: N_10  and  C_11
REMARK    6  A    between atoms: C_11  and  C_12
REMARK    7  A    between atoms: C_12  and  N_13
REMARK                            x       y       z     vdW  Elec       q    Type
REMARK                         _______ _______ _______ _____ _____    ______ ____
ROOT
ATOM      1  N   UNL     1       5.329   3.554  15.247  0.00  0.00    +0.000 N 
ATOM      2  H   UNL     1       5.083   2.554  15.285  0.00  0.00    +0.000 HD
ENDROOT
BRANCH   1   8
ATOM      3  C   UNL     1       6.152   3.682  12.808  0.00  0.00    +0.000 A 
ATOM      4  C   UNL     1       7.073   4.280  11.914  0.00  0.00    +0.000 A 
ATOM      5  C   UNL     1       7.979   5.253  12.327  0.00  0.00    +0.000 A 
ATOM      6  C   UNL     1       8.000   5.657  13.647  0.00  0.00    +0.000 A 
ATOM      7  C   UNL     1       7.128   5.083  14.559  0.00  0.00    +0.000 A 
ATOM      8  C   UNL     1       6.181   4.089  14.200  0.00  0.00    +0.000 A 
BRANCH   3  10
ATOM      9  C   UNL     1       4.134   3.331  11.302  0.00  0.00    +0.000 C 
ATOM     10  C   UNL     1       5.194   2.641  12.201  0.00  0.00    +0.000 C 
ATOM     11  C   UNL     1       5.956   1.612  11.345  0.00  0.00    +0.000 C 
ENDBRANCH   3  10
ENDBRANCH   1   8
BRANCH   1  12
ATOM     12  C   UNL     1       4.852   4.465  16.290  0.00  0.00    +0.000 C 
BRANCH  12  13
ATOM     13  C   UNL     1       4.962   4.032  17.767  0.00  0.00    +0.000 C 
BRANCH  13  14
ATOM     14  N   UNL     1       3.608   3.975  18.416  0.00  0.00    +0.000 NA
ATOM     15  C   UNL     1       3.088   2.595  18.574  0.00  0.00    +0.000 C 
ATOM     16  C   UNL     1       1.554   2.530  18.503  0.00  0.00    +0.000 C 
ATOM     17  C   UNL     1       0.830   2.895  19.797  0.00  0.00    +0.000 C 
ATOM     18  C   UNL     1       1.081   4.305  20.323  0.00  0.00    +0.000 C 
ATOM     19  C   UNL     1       2.540   4.522  20.727  0.00  0.00    +0.000 C 
ATOM     20  C   UNL     1       3.493   4.901  19.576  0.00  0.00    +0.000 C 
ENDBRANCH  13  14
ENDBRANCH  12  13
ENDBRANCH   1  12
TORSDOF 5
ENDMDL
MODEL 6
REMARK VINA RESULT:      -6.3      1.920      3.558
REMARK  Name = 
REMARK  7 active torsions:
REMARK  status: ('A' for Active; 'I' for Inactive)
REMARK    1  A    between atoms: C_1  and  C_2
REMARK    2  A    between atoms: C_2  and  C_3
REMARK    3  A    between atoms: C_2  and  C_4
REMARK    4  A    between atoms: C_9  and  N_10
REMARK    5  A    between atoms: N_10  and  C_11
REMARK    6  A    between atoms: C_11  and  C_12
REMARK    7  A    between atoms: C_12  and  N_13
REMARK                            x       y       z     vdW  Elec       q    Type
REMARK                         _______ _______ _______ _____ _____    ______ ____
ROOT
ATOM      1  N   UNL     1       2.608   5.911  20.322  0.00  0.00    +0.000 N 
ATOM      2  H   UNL     1       2.766   5.872  21.340  0.00  0.00    +0.000 HD
ENDROOT
BRANCH   1   8
ATOM      3  C   UNL     1       1.477   8.225  20.237  0.00  0.00    +0.000 A 
ATOM      4  C   UNL     1       1.196   9.362  19.440  0.00  0.00    +0.000 A 
ATOM      5  C   UNL     1       1.663   9.482  18.134  0.00  0.00    +0.000 A 
ATOM      6  C   UNL     1       2.422   8.472  17.579  0.00  0.00    +0.000 A 
ATOM      7  C   UNL     1       2.704   7.334  18.318  0.00  0.00    +0.000 A 
ATOM      8  C   UNL     1       2.259   7.151  19.654  0.00  0.00    +0.000 A 
BRANCH   3  10
ATOM      9  C   UNL     1       1.613   9.343  22.517  0.00  0.00    +0.000 C 
ATOM     10  C   UNL     1       0.915   8.245  21.671  0.00  0.00    +0.000 C 
ATOM     11  C   UNL     1      -0.599   8.524  21.674  0.00  0.00    +0.000 C 
ENDBRANCH   3  10
ENDBRANCH   1   8
BRANCH   1  12
ATOM     12  C   UNL     1       2.689   4.688  19.521  0.00  0.00    +0.000 C 
BRANCH  12  13
ATOM     13  C   UNL     1       3.991   3.860  19.554  0.00  0.00    +0.000 C 
BRANCH  13  14
ATOM     14  N   UNL     1       4.922   4.270  18.448  0.00  0.00    +0.000 NA
ATOM     15  C   UNL     1       4.261   4.360  17.124  0.00  0.00    +0.000 C 
ATOM     16  C   UNL     1       5.215   4.031  15.964  0.00  0.00    +0.000 C 
ATOM     17  C   UNL     1       6.125   5.177  15.529  0.00  0.00    +0.000 C 
ATOM     18  C   UNL     1       7.071   5.715  16.597  0.00  0.00    +0.000 C 
ATOM     19  C   UNL     1       6.322   6.358  17.766  0.00  0.00    +0.000 C 
ATOM     20  C   UNL     1       5.831   5.379  18.852  0.00  0.00    +0.000 C 
ENDBRANCH  13  14
ENDBRANCH  12  13
ENDBRANCH   1  12
TORSDOF 5
ENDMDL
MODEL 7
REMARK VINA RESULT:      -6.3      0.640      2.577
REMARK  Name = 
REMARK  7 active torsions:
REMARK  status: ('A' for Active; 'I' for Inactive)
REMARK    1  A    between atoms: C_1  and  C_2
REMARK    2  A    between atoms: C_2  and  C_3
REMARK    3  A    between atoms: C_2  and  C_4
REMARK    4  A    between atoms: C_9  and  N_10
REMARK    5  A    between atoms: N_10  and  C_11
REMARK    6  A    between atoms: C_11  and  C_12
REMARK    7  A    between atoms: C_12  and  N_13
REMARK                            x       y       z     vdW  Elec       q    Type
REMARK                         _______ _______ _______ _____ _____    ______ ____
ROOT
ATOM      1  N   UNL     1       2.665   4.207  17.328  0.00  0.00    +0.000 N 
ATOM      2  H   UNL     1       2.108   4.788  16.685  0.00  0.00    +0.000 HD
ENDROOT
BRANCH   1   8
ATOM      3  C   UNL     1       2.303   5.052  19.735  0.00  0.00    +0.000 A 
ATOM      4  C   UNL     1       1.923   4.703  21.053  0.00  0.00    +0.000 A 
ATOM      5  C   UNL     1       1.513   3.415  21.387  0.00  0.00    +0.000 A 
ATOM      6  C   UNL     1       1.471   2.434  20.417  0.00  0.00    +0.000 A 
ATOM      7  C   UNL     1       1.852   2.730  19.119  0.00  0.00    +0.000 A 
ATOM      8  C   UNL     1       2.279   4.021  18.715  0.00  0.00    +0.000 A 
BRANCH   3  10
ATOM      9  C   UNL     1       2.434   6.949  18.046  0.00  0.00    +0.000 C 
ATOM     10  C   UNL     1       2.709   6.522  19.512  0.00  0.00    +0.000 C 
ATOM     11  C   UNL     1       1.927   7.465  20.445  0.00  0.00    +0.000 C 
ENDBRANCH   3  10
ENDBRANCH   1   8
BRANCH   1  12
ATOM     12  C   UNL     1       3.903   3.579  16.861  0.00  0.00    +0.000 C 
BRANCH  12  13
ATOM     13  C   UNL     1       4.886   4.410  16.009  0.00  0.00    +0.000 C 
BRANCH  13  14
ATOM     14  N   UNL     1       5.960   5.021  16.864  0.00  0.00    +0.000 NA
ATOM     15  C   UNL     1       6.048   6.496  16.735  0.00  0.00    +0.000 C 
ATOM     16  C   UNL     1       7.476   7.023  16.945  0.00  0.00    +0.000 C 
ATOM     17  C   UNL     1       7.902   7.178  18.403  0.00  0.00    +0.000 C 
ATOM     18  C   UNL     1       7.892   5.901  19.236  0.00  0.00    +0.000 C 
ATOM     19  C   UNL     1       6.484   5.324  19.398  0.00  0.00    +0.000 C 
ATOM     20  C   UNL     1       5.998   4.436  18.233  0.00  0.00    +0.000 C 
ENDBRANCH  13  14
ENDBRANCH  12  13
ENDBRANCH   1  12
TORSDOF 5
ENDMDL
MODEL 8
REMARK VINA RESULT:      -6.3      0.664      1.508
REMARK  Name = 
REMARK  7 active torsions:
REMARK  status: ('A' for Active; 'I' for Inactive)
REMARK    1  A    between atoms: C_1  and  C_2
REMARK    2  A    between atoms: C_2  and  C_3
REMARK    3  A    between atoms: C_2  and  C_4
REMARK    4  A    between atoms: C_9  and  N_10
REMARK    5  A    between atoms: N_10  and  C_11
REMARK    6  A    between atoms: C_11  and  C_12
REMARK    7  A    between atoms: C_12  and  N_13
REMARK                            x       y       z     vdW  Elec       q    Type
REMARK                         _______ _______ _______ _____ _____    ______ ____
ROOT
ATOM      1  N   UNL     1       2.937   3.995  17.212  0.00  0.00    +0.000 N 
ATOM      2  H   UNL     1       2.326   3.901  16.387  0.00  0.00    +0.000 HD
ENDROOT
BRANCH   1   8
ATOM      3  C   UNL     1       2.023   4.391  19.588  0.00  0.00    +0.000 A 
ATOM      4  C   UNL     1       1.698   5.357  20.571  0.00  0.00    +0.000 A 
ATOM      5  C   UNL     1       1.915   6.718  20.370  0.00  0.00    +0.000 A 
ATOM      6  C   UNL     1       2.460   7.159  19.181  0.00  0.00    +0.000 A 
ATOM      7  C   UNL     1       2.775   6.248  18.186  0.00  0.00    +0.000 A 
ATOM      8  C   UNL     1       2.579   4.849  18.329  0.00  0.00    +0.000 A 
BRANCH   3  10
ATOM      9  C   UNL     1       1.369   2.802  21.463  0.00  0.00    +0.000 C 
ATOM     10  C   UNL     1       1.751   2.922  19.964  0.00  0.00    +0.000 C 
ATOM     11  C   UNL     1       0.601   2.335  19.124  0.00  0.00    +0.000 C 
ENDBRANCH   3  10
ENDBRANCH   1   8
BRANCH   1  12
ATOM     12  C   UNL     1       4.221   3.292  17.257  0.00  0.00    +0.000 C 
BRANCH  12  13
ATOM     13  C   UNL     1       5.396   3.828  16.412  0.00  0.00    +0.000 C 
BRANCH  13  14
ATOM     14  N   UNL     1       6.072   4.982  17.098  0.00  0.00    +0.000 NA
ATOM     15  C   UNL     1       7.295   4.592  17.840  0.00  0.00    +0.000 C 
ATOM     16  C   UNL     1       7.547   5.478  19.071  0.00  0.00    +0.000 C 
ATOM     17  C   UNL     1       8.215   6.819  18.778  0.00  0.00    +0.000 C 
ATOM     18  C   UNL     1       7.450   7.752  17.846  0.00  0.00    +0.000 C 
ATOM     19  C   UNL     1       7.310   7.176  16.436  0.00  0.00    +0.000 C 
ATOM     20  C   UNL     1       6.134   6.197  16.238  0.00  0.00    +0.000 C 
ENDBRANCH  13  14
ENDBRANCH  12  13
ENDBRANCH   1  12
TORSDOF 5
ENDMDL
MODEL 9
REMARK VINA RESULT:      -6.2      1.651      5.683
REMARK  Name = 
REMARK  7 active torsions:
REMARK  status: ('A' for Active; 'I' for Inactive)
REMARK    1  A    between atoms: C_1  and  C_2
REMARK    2  A    between atoms: C_2  and  C_3
REMARK    3  A    between atoms: C_2  and  C_4
REMARK    4  A    between atoms: C_9  and  N_10
REMARK    5  A    between atoms: N_10  and  C_11
REMARK    6  A    between atoms: C_11  and  C_12
REMARK    7  A    between atoms: C_12  and  N_13
REMARK                            x       y       z     vdW  Elec       q    Type
REMARK                         _______ _______ _______ _____ _____    ______ ____
ROOT
ATOM      1  N   UNL     1       4.914   7.216  17.580  0.00  0.00    +0.000 N 
ATOM      2  H   UNL     1       5.450   7.923  18.104  0.00  0.00    +0.000 HD
ENDROOT
BRANCH   1   8
ATOM      3  C   UNL     1       6.927   5.710  17.015  0.00  0.00    +0.000 A 
ATOM      4  C   UNL     1       7.438   4.718  16.144  0.00  0.00    +0.000 A 
ATOM      5  C   UNL     1       6.677   4.179  15.110  0.00  0.00    +0.000 A 
ATOM      6  C   UNL     1       5.383   4.614  14.910  0.00  0.00    +0.000 A 
ATOM      7  C   UNL     1       4.851   5.598  15.729  0.00  0.00    +0.000 A 
ATOM      8  C   UNL     1       5.574   6.186  16.799  0.00  0.00    +0.000 A 
BRANCH   3  10
ATOM      9  C   UNL     1       7.970   7.741  18.136  0.00  0.00    +0.000 C 
ATOM     10  C   UNL     1       7.878   6.192  18.127  0.00  0.00    +0.000 C 
ATOM     11  C   UNL     1       7.394   5.730  19.514  0.00  0.00    +0.000 C 
ENDBRANCH   3  10
ENDBRANCH   1   8
BRANCH   1  12
ATOM     12  C   UNL     1       3.450   7.260  17.576  0.00  0.00    +0.000 C 
BRANCH  12  13
ATOM     13  C   UNL     1       2.689   6.900  18.870  0.00  0.00    +0.000 C 
BRANCH  13  14
ATOM     14  N   UNL     1       2.602   5.411  19.050  0.00  0.00    +0.000 NA
ATOM     15  C   UNL     1       2.018   4.709  17.881  0.00  0.00    +0.000 C 
ATOM     16  C   UNL     1       1.255   3.435  18.278  0.00  0.00    +0.000 C 
ATOM     17  C   UNL     1       2.129   2.205  18.514  0.00  0.00    +0.000 C 
ATOM     18  C   UNL     1       3.168   2.331  19.623  0.00  0.00    +0.000 C 
ATOM     19  C   UNL     1       4.226   3.391  19.309  0.00  0.00    +0.000 C 
ATOM     20  C   UNL     1       3.833   4.840  19.664  0.00  0.00    +0.000 C 
ENDBRANCH  13  14
ENDBRANCH  12  13
ENDBRANCH   1  12
TORSDOF 5
ENDMDL
