MODEL 1
REMARK VINA RESULT:      -8.5      0.000      0.000
REMARK  Name = 
REMARK  7 active torsions:
REMARK  status: ('A' for Active; 'I' for Inactive)
REMARK    1  A    between atoms: C_2  and  C_13
REMARK    2  A    between atoms: N_3  and  C_4
REMARK    3  A    between atoms: C_4  and  C_5
REMARK    4  A    between atoms: C_5  and  C_6
REMARK    5  A    between atoms: C_6  and  C_7
REMARK    6  A    between atoms: C_16  and  C_17
REMARK    7  A    between atoms: C_17  and  N_18
REMARK                            x       y       z     vdW  Elec       q    Type
REMARK                         _______ _______ _______ _____ _____    ______ ____
ROOT
ATOM      1  C   UNL     1       2.473   7.583  18.954  0.00  0.00    +0.000 A 
ATOM      2  C   UNL     1       2.418   8.505  17.905  0.00  0.00    +0.000 A 
ATOM      3  C   UNL     1       1.712   9.698  18.064  0.00  0.00    +0.000 A 
ATOM      4  C   UNL     1       1.056   9.988  19.273  0.00  0.00    +0.000 A 
ATOM      5  C   UNL     1       1.097   9.048  20.312  0.00  0.00    +0.000 A 
ATOM      6  C   UNL     1       1.815   7.859  20.161  0.00  0.00    +0.000 A 
ENDROOT
BRANCH   1   8
ATOM      7  O   UNL     1       3.677   5.720  19.749  0.00  0.00    +0.000 OA
ATOM      8  C   UNL     1       3.271   6.344  18.773  0.00  0.00    +0.000 C 
ATOM      9  N   UNL     1       3.527   5.985  17.468  0.00  0.00    +0.000 N 
ATOM     10  H   UNL     1       3.272   6.613  16.720  0.00  0.00    +0.000 HD
BRANCH   9  11
ATOM     11  C   UNL     1       4.252   4.780  17.134  0.00  0.00    +0.000 C 
BRANCH  11  12
ATOM     12  C   UNL     1       3.311   3.614  16.838  0.00  0.00    +0.000 C 
BRANCH  12  13
ATOM     13  C   UNL     1       3.548   2.475  17.832  0.00  0.00    +0.000 C 
BRANCH  13  14
ATOM     14  C   UNL     1       2.769   2.659  19.109  0.00  0.00    +0.000 A 
ATOM     15  C   UNL     1       3.365   2.413  20.353  0.00  0.00    +0.000 A 
ATOM     16  C   UNL     1       2.632   2.569  21.530  0.00  0.00    +0.000 A 
ATOM     17  C   UNL     1       1.299   2.971  21.475  0.00  0.00    +0.000 A 
ATOM     18  C   UNL     1       0.697   3.219  20.242  0.00  0.00    +0.000 A 
ATOM     19  C   UNL     1       1.428   3.061  19.065  0.00  0.00    +0.000 A 
ENDBRANCH  13  14
ENDBRANCH  12  13
ENDBRANCH  11  12
ENDBRANCH   9  11
ENDBRANCH   1   8
BRANCH   4  20
ATOM     20  C   UNL     1       0.339  11.307  19.455  0.00  0.00    +0.000 C 
BRANCH  20  21
ATOM     21  N   UNL     1      -1.007  11.336  18.891  0.00  0.00    +0.000 N 
ATOM     22  C   UNL     1      -1.508  10.119  18.265  0.00  0.00    +0.000 C 
ATOM     23  C   UNL     1      -2.674  10.292  17.301  0.00  0.00    +0.000 C 
ATOM     24  O   UNL     1      -2.946   9.413  16.485  0.00  0.00    +0.000 OA
ATOM     25  N   UNL     1      -3.457  11.418  17.492  0.00  0.00    +0.000 N 
ATOM     26  C   UNL     1      -4.753  11.502  16.830  0.00  0.00    +0.000 C 
ATOM     27  C   UNL     1      -5.869  11.204  17.832  0.00  0.00    +0.000 C 
ATOM     28  C   UNL     1      -5.772  12.133  19.043  0.00  0.00    +0.000 C 
ATOM     29  C   UNL     1      -4.386  12.059  19.690  0.00  0.00    +0.000 C 
ATOM     30  C   UNL     1      -3.284  12.296  18.654  0.00  0.00    +0.000 C 
ATOM     31  C   UNL     1      -1.899  12.296  19.329  0.00  0.00    +0.000 C 
ATOM     32  O   UNL     1      -1.621  13.122  20.203  0.00  0.00    +0.000 OA
ENDBRANCH  20  21
ENDBRANCH   4  20
TORSDOF 7
ENDMDL
MODEL 2
REMARK VINA RESULT:      -8.4      2.892      4.412
REMARK  Name = 
REMARK  7 active torsions:
REMARK  status: ('A' for Active; 'I' for Inactive)
REMARK    1  A    between atoms: C_2  and  C_13
REMARK    2  A    between atoms: N_3  and  C_4
REMARK    3  A    between atoms: C_4  and  C_5
REMARK    4  A    between atoms: C_5  and  C_6
REMARK    5  A    between atoms: C_6  and  C_7
REMARK    6  A    between atoms: C_16  and  C_17
REMARK    7  A    between atoms: C_17  and  N_18
REMARK                            x       y       z     vdW  Elec       q    Type
REMARK                         _______ _______ _______ _____ _____    ______ ____
ROOT
ATOM      1  C   UNL     1       2.794   7.276  18.799  0.00  0.00    +0.000 A 
ATOM      2  C   UNL     1       2.055   7.500  19.964  0.00  0.00    +0.000 A 
ATOM      3  C   UNL     1       1.266   8.645  20.078  0.00  0.00    +0.000 A 
ATOM      4  C   UNL     1       1.201   9.578  19.029  0.00  0.00    +0.000 A 
ATOM      5  C   UNL     1       1.963   9.359  17.874  0.00  0.00    +0.000 A 
ATOM      6  C   UNL     1       2.743   8.206  17.751  0.00  0.00    +0.000 A 
ENDROOT
BRANCH   1   8
ATOM      7  O   UNL     1       4.118   5.538  19.680  0.00  0.00    +0.000 OA
ATOM      8  C   UNL     1       3.588   6.027  18.687  0.00  0.00    +0.000 C 
ATOM      9  N   UNL     1       3.692   5.499  17.419  0.00  0.00    +0.000 N 
ATOM     10  H   UNL     1       3.339   6.022  16.632  0.00  0.00    +0.000 HD
BRANCH   9  11
ATOM     11  C   UNL     1       4.395   4.262  17.160  0.00  0.00    +0.000 C 
BRANCH  11  12
ATOM     12  C   UNL     1       3.437   3.129  16.800  0.00  0.00    +0.000 C 
BRANCH  12  13
ATOM     13  C   UNL     1       3.463   2.048  17.883  0.00  0.00    +0.000 C 
BRANCH  13  14
ATOM     14  C   UNL     1       2.711   2.460  19.121  0.00  0.00    +0.000 A 
ATOM     15  C   UNL     1       1.424   3.007  19.029  0.00  0.00    +0.000 A 
ATOM     16  C   UNL     1       0.740   3.401  20.181  0.00  0.00    +0.000 A 
ATOM     17  C   UNL     1       1.336   3.255  21.432  0.00  0.00    +0.000 A 
ATOM     18  C   UNL     1       2.616   2.712  21.534  0.00  0.00    +0.000 A 
ATOM     19  C   UNL     1       3.301   2.318  20.384  0.00  0.00    +0.000 A 
ENDBRANCH  13  14
ENDBRANCH  12  13
ENDBRANCH  11  12
ENDBRANCH   9  11
ENDBRANCH   1   8
BRANCH   4  20
ATOM     20  C   UNL     1       0.300  10.789  19.140  0.00  0.00    +0.000 C 
BRANCH  20  21
ATOM     21  N   UNL     1       0.997  12.019  19.502  0.00  0.00    +0.000 N 
ATOM     22  C   UNL     1       1.202  13.016  18.459  0.00  0.00    +0.000 C 
ATOM     23  C   UNL     1       2.299  14.040  18.718  0.00  0.00    +0.000 C 
ATOM     24  O   UNL     1       2.774  14.695  17.790  0.00  0.00    +0.000 OA
ATOM     25  N   UNL     1       2.621  14.263  20.046  0.00  0.00    +0.000 N 
ATOM     26  C   UNL     1       3.422  15.428  20.397  0.00  0.00    +0.000 C 
ATOM     27  C   UNL     1       2.524  16.520  20.981  0.00  0.00    +0.000 C 
ATOM     28  C   UNL     1       1.723  15.985  22.168  0.00  0.00    +0.000 C 
ATOM     29  C   UNL     1       0.929  14.733  21.783  0.00  0.00    +0.000 C 
ATOM     30  C   UNL     1       1.838  13.683  21.142  0.00  0.00    +0.000 C 
ATOM     31  C   UNL     1       1.043  12.400  20.830  0.00  0.00    +0.000 C 
ATOM     32  O   UNL     1       0.496  11.759  21.731  0.00  0.00    +0.000 OA
ENDBRANCH  20  21
ENDBRANCH   4  20
TORSDOF 7
ENDMDL
MODEL 3
REMARK VINA RESULT:      -8.4      1.935      3.413
REMARK  Name = 
REMARK  7 active torsions:
REMARK  status: ('A' for Active; 'I' for Inactive)
REMARK    1  A    between atoms: C_2  and  C_13
REMARK    2  A    between atoms: N_3  and  C_4
REMARK    3  A    between atoms: C_4  and  C_5
REMARK    4  A    between atoms: C_5  and  C_6
REMARK    5  A    between atoms: C_6  and  C_7
REMARK    6  A    between atoms: C_16  and  C_17
REMARK    7  A    between atoms: C_17  and  N_18
REMARK                            x       y       z     vdW  Elec       q    Type
REMARK                         _______ _______ _______ _____ _____    ______ ____
ROOT
ATOM      1  C   UNL     1       1.904   6.530  19.848  0.00  0.00    +0.000 A 
ATOM      2  C   UNL     1       1.384   7.425  20.786  0.00  0.00    +0.000 A 
ATOM      3  C   UNL     1       1.236   8.773  20.453  0.00  0.00    +0.000 A 
ATOM      4  C   UNL     1       1.601   9.241  19.180  0.00  0.00    +0.000 A 
ATOM      5  C   UNL     1       2.144   8.341  18.253  0.00  0.00    +0.000 A 
ATOM      6  C   UNL     1       2.280   6.989  18.578  0.00  0.00    +0.000 A 
ENDROOT
BRANCH   1   8
ATOM      7  O   UNL     1       2.382   4.765  21.334  0.00  0.00    +0.000 OA
ATOM      8  C   UNL     1       2.006   5.094  20.213  0.00  0.00    +0.000 C 
ATOM      9  N   UNL     1       1.680   4.201  19.216  0.00  0.00    +0.000 N 
ATOM     10  H   UNL     1       1.504   4.540  18.283  0.00  0.00    +0.000 HD
BRANCH   9  11
ATOM     11  C   UNL     1       1.688   2.772  19.437  0.00  0.00    +0.000 C 
BRANCH  11  12
ATOM     12  C   UNL     1       3.071   2.169  19.205  0.00  0.00    +0.000 C 
BRANCH  12  13
ATOM     13  C   UNL     1       3.581   2.530  17.809  0.00  0.00    +0.000 C 
BRANCH  13  14
ATOM     14  C   UNL     1       4.446   3.764  17.817  0.00  0.00    +0.000 A 
ATOM     15  C   UNL     1       5.198   4.105  18.949  0.00  0.00    +0.000 A 
ATOM     16  C   UNL     1       5.983   5.259  18.954  0.00  0.00    +0.000 A 
ATOM     17  C   UNL     1       6.022   6.082  17.830  0.00  0.00    +0.000 A 
ATOM     18  C   UNL     1       5.278   5.752  16.699  0.00  0.00    +0.000 A 
ATOM     19  C   UNL     1       4.492   4.599  16.693  0.00  0.00    +0.000 A 
ENDBRANCH  13  14
ENDBRANCH  12  13
ENDBRANCH  11  12
ENDBRANCH   9  11
ENDBRANCH   1   8
BRANCH   4  20
ATOM     20  C   UNL     1       1.387  10.693  18.810  0.00  0.00    +0.000 C 
BRANCH  20  21
ATOM     21  N   UNL     1       0.187  11.284  19.392  0.00  0.00    +0.000 N 
ATOM     22  C   UNL     1      -1.105  10.768  18.958  0.00  0.00    +0.000 C 
ATOM     23  C   UNL     1      -2.305  11.673  19.200  0.00  0.00    +0.000 C 
ATOM     24  O   UNL     1      -3.357  11.494  18.588  0.00  0.00    +0.000 OA
ATOM     25  N   UNL     1      -2.169  12.600  20.220  0.00  0.00    +0.000 N 
ATOM     26  C   UNL     1      -3.355  13.284  20.720  0.00  0.00    +0.000 C 
ATOM     27  C   UNL     1      -3.786  12.669  22.053  0.00  0.00    +0.000 C 
ATOM     28  C   UNL     1      -2.633  12.691  23.057  0.00  0.00    +0.000 C 
ATOM     29  C   UNL     1      -1.386  12.008  22.487  0.00  0.00    +0.000 C 
ATOM     30  C   UNL     1      -1.015  12.596  21.123  0.00  0.00    +0.000 C 
ATOM     31  C   UNL     1       0.284  11.956  20.596  0.00  0.00    +0.000 C 
ATOM     32  O   UNL     1       1.341  12.059  21.224  0.00  0.00    +0.000 OA
ENDBRANCH  20  21
ENDBRANCH   4  20
TORSDOF 7
ENDMDL
MODEL 4
REMARK VINA RESULT:      -8.3      2.213      3.852
REMARK  Name = 
REMARK  7 active torsions:
REMARK  status: ('A' for Active; 'I' for Inactive)
REMARK    1  A    between atoms: C_2  and  C_13
REMARK    2  A    between atoms: N_3  and  C_4
REMARK    3  A    between atoms: C_4  and  C_5
REMARK    4  A    between atoms: C_5  and  C_6
REMARK    5  A    between atoms: C_6  and  C_7
REMARK    6  A    between atoms: C_16  and  C_17
REMARK    7  A    between atoms: C_17  and  N_18
REMARK                            x       y       z     vdW  Elec       q    Type
REMARK                         _______ _______ _______ _____ _____    ______ ____
ROOT
ATOM      1  C   UNL     1       2.124   7.422  19.102  0.00  0.00    +0.000 A 
ATOM      2  C   UNL     1       1.580   8.098  20.197  0.00  0.00    +0.000 A 
ATOM      3  C   UNL     1       1.289   9.460  20.100  0.00  0.00    +0.000 A 
ATOM      4  C   UNL     1       1.533  10.162  18.907  0.00  0.00    +0.000 A 
ATOM      5  C   UNL     1       2.099   9.482  17.821  0.00  0.00    +0.000 A 
ATOM      6  C   UNL     1       2.379   8.115  17.910  0.00  0.00    +0.000 A 
ENDROOT
BRANCH   1   8
ATOM      7  O   UNL     1       2.594   5.459  20.316  0.00  0.00    +0.000 OA
ATOM      8  C   UNL     1       2.380   5.965  19.218  0.00  0.00    +0.000 C 
ATOM      9  N   UNL     1       2.379   5.263  18.033  0.00  0.00    +0.000 N 
ATOM     10  H   UNL     1       2.322   5.763  17.158  0.00  0.00    +0.000 HD
BRANCH   9  11
ATOM     11  C   UNL     1       2.568   3.830  17.991  0.00  0.00    +0.000 C 
BRANCH  11  12
ATOM     12  C   UNL     1       4.015   3.457  17.677  0.00  0.00    +0.000 C 
BRANCH  12  13
ATOM     13  C   UNL     1       4.594   4.412  16.632  0.00  0.00    +0.000 C 
BRANCH  13  14
ATOM     14  C   UNL     1       5.717   5.251  17.185  0.00  0.00    +0.000 A 
ATOM     15  C   UNL     1       6.653   4.702  18.072  0.00  0.00    +0.000 A 
ATOM     16  C   UNL     1       7.680   5.490  18.592  0.00  0.00    +0.000 A 
ATOM     17  C   UNL     1       7.781   6.833  18.234  0.00  0.00    +0.000 A 
ATOM     18  C   UNL     1       6.855   7.389  17.353  0.00  0.00    +0.000 A 
ATOM     19  C   UNL     1       5.826   6.603  16.832  0.00  0.00    +0.000 A 
ENDBRANCH  13  14
ENDBRANCH  12  13
ENDBRANCH  11  12
ENDBRANCH   9  11
ENDBRANCH   1   8
BRANCH   4  20
ATOM     20  C   UNL     1       1.163  11.625  18.794  0.00  0.00    +0.000 C 
BRANCH  20  21
ATOM     21  N   UNL     1      -0.046  11.992  19.523  0.00  0.00    +0.000 N 
ATOM     22  C   UNL     1      -1.304  11.388  19.101  0.00  0.00    +0.000 C 
ATOM     23  C   UNL     1      -2.572  12.108  19.537  0.00  0.00    +0.000 C 
ATOM     24  O   UNL     1      -3.643  11.887  18.971  0.00  0.00    +0.000 OA
ATOM     25  N   UNL     1      -2.461  12.905  20.664  0.00  0.00    +0.000 N 
ATOM     26  C   UNL     1      -3.672  13.375  21.324  0.00  0.00    +0.000 C 
ATOM     27  C   UNL     1      -3.932  12.547  22.583  0.00  0.00    +0.000 C 
ATOM     28  C   UNL     1      -2.716  12.574  23.510  0.00  0.00    +0.000 C 
ATOM     29  C   UNL     1      -1.450  12.122  22.777  0.00  0.00    +0.000 C 
ATOM     30  C   UNL     1      -1.248  12.920  21.487  0.00  0.00    +0.000 C 
ATOM     31  C   UNL     1       0.069  12.510  20.799  0.00  0.00    +0.000 C 
ATOM     32  O   UNL     1       1.153  12.653  21.370  0.00  0.00    +0.000 OA
ENDBRANCH  20  21
ENDBRANCH   4  20
TORSDOF 7
ENDMDL
MODEL 5
REMARK VINA RESULT:      -8.3      2.186      4.138
REMARK  Name = 
REMARK  7 active torsions:
REMARK  status: ('A' for Active; 'I' for Inactive)
REMARK    1  A    between atoms: C_2  and  C_13
REMARK    2  A    between atoms: N_3  and  C_4
REMARK    3  A    between atoms: C_4  and  C_5
REMARK    4  A    between atoms: C_5  and  C_6
REMARK    5  A    between atoms: C_6  and  C_7
REMARK    6  A    between atoms: C_16  and  C_17
REMARK    7  A    between atoms: C_17  and  N_18
REMARK                            x       y       z     vdW  Elec       q    Type
REMARK                         _______ _______ _______ _____ _____    ______ ____
ROOT
ATOM      1  C   UNL     1       2.267   7.229  19.123  0.00  0.00    +0.000 A 
ATOM      2  C   UNL     1       1.663   7.833  20.230  0.00  0.00    +0.000 A 
ATOM      3  C   UNL     1       1.262   9.168  20.160  0.00  0.00    +0.000 A 
ATOM      4  C   UNL     1       1.453   9.914  18.985  0.00  0.00    +0.000 A 
ATOM      5  C   UNL     1       2.080   9.309  17.889  0.00  0.00    +0.000 A 
ATOM      6  C   UNL     1       2.471   7.968  17.950  0.00  0.00    +0.000 A 
ENDROOT
BRANCH   1   8
ATOM      7  O   UNL     1       3.104   5.337  20.249  0.00  0.00    +0.000 OA
ATOM      8  C   UNL     1       2.641   5.795  19.210  0.00  0.00    +0.000 C 
ATOM      9  N   UNL     1       2.452   5.060  18.059  0.00  0.00    +0.000 N 
ATOM     10  H   UNL     1       2.189   5.530  17.207  0.00  0.00    +0.000 HD
BRANCH   9  11
ATOM     11  C   UNL     1       2.729   3.642  18.004  0.00  0.00    +0.000 C 
BRANCH  11  12
ATOM     12  C   UNL     1       4.172   3.360  17.594  0.00  0.00    +0.000 C 
BRANCH  12  13
ATOM     13  C   UNL     1       4.657   4.413  16.597  0.00  0.00    +0.000 C 
BRANCH  13  14
ATOM     14  C   UNL     1       5.760   5.270  17.160  0.00  0.00    +0.000 A 
ATOM     15  C   UNL     1       6.701   4.734  18.050  0.00  0.00    +0.000 A 
ATOM     16  C   UNL     1       7.710   5.539  18.581  0.00  0.00    +0.000 A 
ATOM     17  C   UNL     1       7.788   6.885  18.230  0.00  0.00    +0.000 A 
ATOM     18  C   UNL     1       6.857   7.428  17.345  0.00  0.00    +0.000 A 
ATOM     19  C   UNL     1       5.847   6.625  16.814  0.00  0.00    +0.000 A 
ENDBRANCH  13  14
ENDBRANCH  12  13
ENDBRANCH  11  12
ENDBRANCH   9  11
ENDBRANCH   1   8
BRANCH   4  20
ATOM     20  C   UNL     1       0.966  11.344  18.902  0.00  0.00    +0.000 C 
BRANCH  20  21
ATOM     21  N   UNL     1      -0.074  11.677  19.869  0.00  0.00    +0.000 N 
ATOM     22  C   UNL     1       0.259  12.619  20.930  0.00  0.00    +0.000 C 
ATOM     23  C   UNL     1      -0.642  12.595  22.156  0.00  0.00    +0.000 C 
ATOM     24  O   UNL     1      -0.266  13.089  23.219  0.00  0.00    +0.000 OA
ATOM     25  N   UNL     1      -1.923  12.108  21.958  0.00  0.00    +0.000 N 
ATOM     26  C   UNL     1      -2.935  12.334  22.982  0.00  0.00    +0.000 C 
ATOM     27  C   UNL     1      -3.869  13.466  22.550  0.00  0.00    +0.000 C 
ATOM     28  C   UNL     1      -4.481  13.169  21.180  0.00  0.00    +0.000 C 
ATOM     29  C   UNL     1      -3.397  12.888  20.136  0.00  0.00    +0.000 C 
ATOM     30  C   UNL     1      -2.438  11.799  20.621  0.00  0.00    +0.000 C 
ATOM     31  C   UNL     1      -1.399  11.470  19.531  0.00  0.00    +0.000 C 
ATOM     32  O   UNL     1      -1.751  11.040  18.430  0.00  0.00    +0.000 OA
ENDBRANCH  20  21
ENDBRANCH   4  20
TORSDOF 7
ENDMDL
MODEL 6
REMARK VINA RESULT:      -8.2      2.992      4.194
REMARK  Name = 
REMARK  7 active torsions:
REMARK  status: ('A' for Active; 'I' for Inactive)
REMARK    1  A    between atoms: C_2  and  C_13
REMARK    2  A    between atoms: N_3  and  C_4
REMARK    3  A    between atoms: C_4  and  C_5
REMARK    4  A    between atoms: C_5  and  C_6
REMARK    5  A    between atoms: C_6  and  C_7
REMARK    6  A    between atoms: C_16  and  C_17
REMARK    7  A    between atoms: C_17  and  N_18
REMARK                            x       y       z     vdW  Elec       q    Type
REMARK                         _______ _______ _______ _____ _____    ______ ____
ROOT
ATOM      1  C   UNL     1       3.050   7.120  18.606  0.00  0.00    +0.000 A 
ATOM      2  C   UNL     1       2.840   8.069  17.601  0.00  0.00    +0.000 A 
ATOM      3  C   UNL     1       1.944   9.119  17.812  0.00  0.00    +0.000 A 
ATOM      4  C   UNL     1       1.252   9.237  19.029  0.00  0.00    +0.000 A 
ATOM      5  C   UNL     1       1.450   8.269  20.022  0.00  0.00    +0.000 A 
ATOM      6  C   UNL     1       2.357   7.224  19.820  0.00  0.00    +0.000 A 
ENDROOT
BRANCH   1   8
ATOM      7  O   UNL     1       4.826   5.717  19.259  0.00  0.00    +0.000 OA
ATOM      8  C   UNL     1       4.043   6.042  18.372  0.00  0.00    +0.000 C 
ATOM      9  N   UNL     1       4.025   5.478  17.114  0.00  0.00    +0.000 N 
ATOM     10  H   UNL     1       3.442   5.882  16.397  0.00  0.00    +0.000 HD
BRANCH   9  11
ATOM     11  C   UNL     1       4.903   4.388  16.753  0.00  0.00    +0.000 C 
BRANCH  11  12
ATOM     12  C   UNL     1       4.317   3.033  17.145  0.00  0.00    +0.000 C 
BRANCH  12  13
ATOM     13  C   UNL     1       2.799   3.138  17.308  0.00  0.00    +0.000 C 
BRANCH  13  14
ATOM     14  C   UNL     1       2.380   3.175  18.754  0.00  0.00    +0.000 A 
ATOM     15  C   UNL     1       3.182   2.596  19.748  0.00  0.00    +0.000 A 
ATOM     16  C   UNL     1       2.778   2.619  21.084  0.00  0.00    +0.000 A 
ATOM     17  C   UNL     1       1.570   3.218  21.439  0.00  0.00    +0.000 A 
ATOM     18  C   UNL     1       0.766   3.796  20.458  0.00  0.00    +0.000 A 
ATOM     19  C   UNL     1       1.168   3.773  19.122  0.00  0.00    +0.000 A 
ENDBRANCH  13  14
ENDBRANCH  12  13
ENDBRANCH  11  12
ENDBRANCH   9  11
ENDBRANCH   1   8
BRANCH   4  20
ATOM     20  C   UNL     1       0.324  10.408  19.268  0.00  0.00    +0.000 C 
BRANCH  20  21
ATOM     21  N   UNL     1       1.010  11.654  19.592  0.00  0.00    +0.000 N 
ATOM     22  C   UNL     1       1.224  12.612  18.514  0.00  0.00    +0.000 C 
ATOM     23  C   UNL     1       2.312  13.651  18.747  0.00  0.00    +0.000 C 
ATOM     24  O   UNL     1       2.796  14.272  17.801  0.00  0.00    +0.000 OA
ATOM     25  N   UNL     1       2.614  13.927  20.070  0.00  0.00    +0.000 N 
ATOM     26  C   UNL     1       3.405  15.110  20.386  0.00  0.00    +0.000 C 
ATOM     27  C   UNL     1       2.494  16.218  20.914  0.00  0.00    +0.000 C 
ATOM     28  C   UNL     1       1.679  15.725  22.111  0.00  0.00    +0.000 C 
ATOM     29  C   UNL     1       0.897  14.455  21.765  0.00  0.00    +0.000 C 
ATOM     30  C   UNL     1       1.820  13.386  21.176  0.00  0.00    +0.000 C 
ATOM     31  C   UNL     1       1.036  12.087  20.904  0.00  0.00    +0.000 C 
ATOM     32  O   UNL     1       0.480  11.479  21.822  0.00  0.00    +0.000 OA
ENDBRANCH  20  21
ENDBRANCH   4  20
TORSDOF 7
ENDMDL
MODEL 7
REMARK VINA RESULT:      -8.1      2.649      4.478
REMARK  Name = 
REMARK  7 active torsions:
REMARK  status: ('A' for Active; 'I' for Inactive)
REMARK    1  A    between atoms: C_2  and  C_13
REMARK    2  A    between atoms: N_3  and  C_4
REMARK    3  A    between atoms: C_4  and  C_5
REMARK    4  A    between atoms: C_5  and  C_6
REMARK    5  A    between atoms: C_6  and  C_7
REMARK    6  A    between atoms: C_16  and  C_17
REMARK    7  A    between atoms: C_17  and  N_18
REMARK                            x       y       z     vdW  Elec       q    Type
REMARK                         _______ _______ _______ _____ _____    ______ ____
ROOT
ATOM      1  C   UNL     1       2.239   7.656  19.196  0.00  0.00    +0.000 A 
ATOM      2  C   UNL     1       2.039   8.544  18.135  0.00  0.00    +0.000 A 
ATOM      3  C   UNL     1       1.251   9.680  18.319  0.00  0.00    +0.000 A 
ATOM      4  C   UNL     1       0.656   9.947  19.563  0.00  0.00    +0.000 A 
ATOM      5  C   UNL     1       0.841   9.040  20.615  0.00  0.00    +0.000 A 
ATOM      6  C   UNL     1       1.642   7.908  20.439  0.00  0.00    +0.000 A 
ENDROOT
BRANCH   1   8
ATOM      7  O   UNL     1       3.581   5.871  19.947  0.00  0.00    +0.000 OA
ATOM      8  C   UNL     1       3.121   6.480  18.986  0.00  0.00    +0.000 C 
ATOM      9  N   UNL     1       3.385   6.161  17.672  0.00  0.00    +0.000 N 
ATOM     10  H   UNL     1       3.078   6.781  16.938  0.00  0.00    +0.000 HD
BRANCH   9  11
ATOM     11  C   UNL     1       4.191   5.016  17.310  0.00  0.00    +0.000 C 
BRANCH  11  12
ATOM     12  C   UNL     1       3.333   3.845  16.837  0.00  0.00    +0.000 C 
BRANCH  12  13
ATOM     13  C   UNL     1       3.531   2.637  17.755  0.00  0.00    +0.000 C 
BRANCH  13  14
ATOM     14  C   UNL     1       2.776   2.774  19.051  0.00  0.00    +0.000 A 
ATOM     15  C   UNL     1       3.398   2.494  20.276  0.00  0.00    +0.000 A 
ATOM     16  C   UNL     1       2.687   2.607  21.471  0.00  0.00    +0.000 A 
ATOM     17  C   UNL     1       1.349   2.998  21.454  0.00  0.00    +0.000 A 
ATOM     18  C   UNL     1       0.722   3.279  20.242  0.00  0.00    +0.000 A 
ATOM     19  C   UNL     1       1.431   3.166  19.046  0.00  0.00    +0.000 A 
ENDBRANCH  13  14
ENDBRANCH  12  13
ENDBRANCH  11  12
ENDBRANCH   9  11
ENDBRANCH   1   8
BRANCH   4  20
ATOM     20  C   UNL     1      -0.153  11.210  19.768  0.00  0.00    +0.000 C 
BRANCH  20  21
ATOM     21  N   UNL     1       0.646  12.429  19.807  0.00  0.00    +0.000 N 
ATOM     22  C   UNL     1       1.860  12.421  20.615  0.00  0.00    +0.000 C 
ATOM     23  C   UNL     1       2.408  13.784  21.015  0.00  0.00    +0.000 C 
ATOM     24  O   UNL     1       3.204  13.888  21.948  0.00  0.00    +0.000 OA
ATOM     25  N   UNL     1       2.057  14.844  20.195  0.00  0.00    +0.000 N 
ATOM     26  C   UNL     1       2.776  16.105  20.319  0.00  0.00    +0.000 C 
ATOM     27  C   UNL     1       3.782  16.244  19.175  0.00  0.00    +0.000 C 
ATOM     28  C   UNL     1       3.086  16.099  17.821  0.00  0.00    +0.000 C 
ATOM     29  C   UNL     1       2.300  14.788  17.738  0.00  0.00    +0.000 C 
ATOM     30  C   UNL     1       1.348  14.642  18.928  0.00  0.00    +0.000 C 
ATOM     31  C   UNL     1       0.508  13.358  18.793  0.00  0.00    +0.000 C 
ATOM     32  O   UNL     1      -0.247  13.193  17.831  0.00  0.00    +0.000 OA
ENDBRANCH  20  21
ENDBRANCH   4  20
TORSDOF 7
ENDMDL
MODEL 8
REMARK VINA RESULT:      -8.1      1.990      3.686
REMARK  Name = 
REMARK  7 active torsions:
REMARK  status: ('A' for Active; 'I' for Inactive)
REMARK    1  A    between atoms: C_2  and  C_13
REMARK    2  A    between atoms: N_3  and  C_4
REMARK    3  A    between atoms: C_4  and  C_5
REMARK    4  A    between atoms: C_5  and  C_6
REMARK    5  A    between atoms: C_6  and  C_7
REMARK    6  A    between atoms: C_16  and  C_17
REMARK    7  A    between atoms: C_17  and  N_18
REMARK                            x       y       z     vdW  Elec       q    Type
REMARK                         _______ _______ _______ _____ _____    ______ ____
ROOT
ATOM      1  C   UNL     1       1.924   6.729  19.874  0.00  0.00    +0.000 A 
ATOM      2  C   UNL     1       2.236   7.229  18.607  0.00  0.00    +0.000 A 
ATOM      3  C   UNL     1       1.994   8.572  18.311  0.00  0.00    +0.000 A 
ATOM      4  C   UNL     1       1.444   9.431  19.277  0.00  0.00    +0.000 A 
ATOM      5  C   UNL     1       1.113   8.916  20.537  0.00  0.00    +0.000 A 
ATOM      6  C   UNL     1       1.366   7.576  20.841  0.00  0.00    +0.000 A 
ENDROOT
BRANCH   1   8
ATOM      7  O   UNL     1       2.281   4.918  21.338  0.00  0.00    +0.000 OA
ATOM      8  C   UNL     1       2.235   5.309  20.176  0.00  0.00    +0.000 C 
ATOM      9  N   UNL     1       2.481   4.507  19.083  0.00  0.00    +0.000 N 
ATOM     10  H   UNL     1       2.552   4.924  18.166  0.00  0.00    +0.000 HD
BRANCH   9  11
ATOM     11  C   UNL     1       2.754   3.093  19.216  0.00  0.00    +0.000 C 
BRANCH  11  12
ATOM     12  C   UNL     1       3.455   2.531  17.982  0.00  0.00    +0.000 C 
BRANCH  12  13
ATOM     13  C   UNL     1       3.485   3.577  16.865  0.00  0.00    +0.000 C 
BRANCH  13  14
ATOM     14  C   UNL     1       4.885   4.036  16.549  0.00  0.00    +0.000 A 
ATOM     15  C   UNL     1       5.342   4.081  15.225  0.00  0.00    +0.000 A 
ATOM     16  C   UNL     1       6.646   4.491  14.942  0.00  0.00    +0.000 A 
ATOM     17  C   UNL     1       7.504   4.858  15.977  0.00  0.00    +0.000 A 
ATOM     18  C   UNL     1       7.058   4.816  17.297  0.00  0.00    +0.000 A 
ATOM     19  C   UNL     1       5.756   4.405  17.582  0.00  0.00    +0.000 A 
ENDBRANCH  13  14
ENDBRANCH  12  13
ENDBRANCH  11  12
ENDBRANCH   9  11
ENDBRANCH   1   8
BRANCH   4  20
ATOM     20  C   UNL     1       1.237  10.897  18.964  0.00  0.00    +0.000 C 
BRANCH  20  21
ATOM     21  N   UNL     1      -0.015  11.444  19.475  0.00  0.00    +0.000 N 
ATOM     22  C   UNL     1      -1.261  10.903  18.943  0.00  0.00    +0.000 C 
ATOM     23  C   UNL     1      -2.499  11.771  19.123  0.00  0.00    +0.000 C 
ATOM     24  O   UNL     1      -3.502  11.578  18.437  0.00  0.00    +0.000 OA
ATOM     25  N   UNL     1      -2.458  12.678  20.168  0.00  0.00    +0.000 N 
ATOM     26  C   UNL     1      -3.693  13.319  20.601  0.00  0.00    +0.000 C 
ATOM     27  C   UNL     1      -4.196  12.663  21.888  0.00  0.00    +0.000 C 
ATOM     28  C   UNL     1      -3.114  12.692  22.969  0.00  0.00    +0.000 C 
ATOM     29  C   UNL     1      -1.813  12.056  22.470  0.00  0.00    +0.000 C 
ATOM     30  C   UNL     1      -1.367  12.684  21.148  0.00  0.00    +0.000 C 
ATOM     31  C   UNL     1      -0.018  12.091  20.697  0.00  0.00    +0.000 C 
ATOM     32  O   UNL     1       0.990  12.207  21.397  0.00  0.00    +0.000 OA
ENDBRANCH  20  21
ENDBRANCH   4  20
TORSDOF 7
ENDMDL
MODEL 9
REMARK VINA RESULT:      -8.1      1.613      3.125
REMARK  Name = 
REMARK  7 active torsions:
REMARK  status: ('A' for Active; 'I' for Inactive)
REMARK    1  A    between atoms: C_2  and  C_13
REMARK    2  A    between atoms: N_3  and  C_4
REMARK    3  A    between atoms: C_4  and  C_5
REMARK    4  A    between atoms: C_5  and  C_6
REMARK    5  A    between atoms: C_6  and  C_7
REMARK    6  A    between atoms: C_16  and  C_17
REMARK    7  A    between atoms: C_17  and  N_18
REMARK                            x       y       z     vdW  Elec       q    Type
REMARK                         _______ _______ _______ _____ _____    ______ ____
ROOT
ATOM      1  C   UNL     1       2.194   7.487  19.161  0.00  0.00    +0.000 A 
ATOM      2  C   UNL     1       1.579   7.873  20.354  0.00  0.00    +0.000 A 
ATOM      3  C   UNL     1       0.998   9.138  20.460  0.00  0.00    +0.000 A 
ATOM      4  C   UNL     1       1.020  10.030  19.374  0.00  0.00    +0.000 A 
ATOM      5  C   UNL     1       1.659   9.644  18.189  0.00  0.00    +0.000 A 
ATOM      6  C   UNL     1       2.230   8.373  18.075  0.00  0.00    +0.000 A 
ENDROOT
BRANCH   1   8
ATOM      7  O   UNL     1       3.466   5.673  19.962  0.00  0.00    +0.000 OA
ATOM      8  C   UNL     1       2.762   6.119  19.061  0.00  0.00    +0.000 C 
ATOM      9  N   UNL     1       2.461   5.431  17.906  0.00  0.00    +0.000 N 
ATOM     10  H   UNL     1       1.984   5.906  17.154  0.00  0.00    +0.000 HD
BRANCH   9  11
ATOM     11  C   UNL     1       2.905   4.073  17.686  0.00  0.00    +0.000 C 
BRANCH  11  12
ATOM     12  C   UNL     1       4.169   4.019  16.831  0.00  0.00    +0.000 C 
BRANCH  12  13
ATOM     13  C   UNL     1       5.402   3.838  17.718  0.00  0.00    +0.000 C 
BRANCH  13  14
ATOM     14  C   UNL     1       6.231   5.093  17.807  0.00  0.00    +0.000 A 
ATOM     15  C   UNL     1       7.267   5.203  18.746  0.00  0.00    +0.000 A 
ATOM     16  C   UNL     1       8.019   6.376  18.833  0.00  0.00    +0.000 A 
ATOM     17  C   UNL     1       7.743   7.448  17.987  0.00  0.00    +0.000 A 
ATOM     18  C   UNL     1       6.716   7.349  17.050  0.00  0.00    +0.000 A 
ATOM     19  C   UNL     1       5.962   6.178  16.962  0.00  0.00    +0.000 A 
ENDBRANCH  13  14
ENDBRANCH  12  13
ENDBRANCH  11  12
ENDBRANCH   9  11
ENDBRANCH   1   8
BRANCH   4  20
ATOM     20  C   UNL     1       0.341  11.378  19.480  0.00  0.00    +0.000 C 
BRANCH  20  21
ATOM     21  N   UNL     1      -1.016  11.405  18.945  0.00  0.00    +0.000 N 
ATOM     22  C   UNL     1      -1.518  10.196  18.303  0.00  0.00    +0.000 C 
ATOM     23  C   UNL     1      -2.705  10.377  17.367  0.00  0.00    +0.000 C 
ATOM     24  O   UNL     1      -2.985   9.513  16.537  0.00  0.00    +0.000 OA
ATOM     25  N   UNL     1      -3.496  11.490  17.599  0.00  0.00    +0.000 N 
ATOM     26  C   UNL     1      -4.805  11.575  16.965  0.00  0.00    +0.000 C 
ATOM     27  C   UNL     1      -5.898  11.243  17.983  0.00  0.00    +0.000 C 
ATOM     28  C   UNL     1      -5.785  12.147  19.212  0.00  0.00    +0.000 C 
ATOM     29  C   UNL     1      -4.385  12.074  19.828  0.00  0.00    +0.000 C 
ATOM     30  C   UNL     1      -3.308  12.345  18.775  0.00  0.00    +0.000 C 
ATOM     31  C   UNL     1      -1.909  12.346  19.422  0.00  0.00    +0.000 C 
ATOM     32  O   UNL     1      -1.621  13.155  20.307  0.00  0.00    +0.000 OA
ENDBRANCH  20  21
ENDBRANCH   4  20
TORSDOF 7
ENDMDL
