MODEL 1
REMARK VINA RESULT:      -8.1      0.000      0.000
REMARK  Name = 
REMARK  10 active torsions:
REMARK  status: ('A' for Active; 'I' for Inactive)
REMARK    1  A    between atoms: C_1  and  O_2
REMARK    2  A    between atoms: O_2  and  C_3
REMARK    3  A    between atoms: C_6  and  C_7
REMARK    4  A    between atoms: C_7  and  N_8
REMARK    5  A    between atoms: N_8  and  C_9
REMARK    6  A    between atoms: C_11  and  S_12
REMARK    7  A    between atoms: S_12  and  C_13
REMARK    8  A    between atoms: N_19  and  C_20
REMARK    9  A    between atoms: C_20  and  C_21
REMARK   10  A    between atoms: C_21  and  C_23
REMARK                            x       y       z     vdW  Elec       q    Type
REMARK                         _______ _______ _______ _____ _____    ______ ____
ROOT
ATOM      1  C   UNL     1       2.074   7.041  19.820  0.00  0.00    +0.000 A 
ATOM      2  N   UNL     1       1.849   5.927  20.568  0.00  0.00    +0.000 NA
ATOM      3  C   UNL     1       2.504   4.779  20.281  0.00  0.00    +0.000 A 
ATOM      4  N   UNL     1       3.348   4.576  19.251  0.00  0.00    +0.000 NA
ATOM      5  C   UNL     1       3.506   5.678  18.507  0.00  0.00    +0.000 A 
ATOM      6  C   UNL     1       2.938   6.916  18.722  0.00  0.00    +0.000 A 
ATOM      7  C   UNL     1       3.430   7.711  17.664  0.00  0.00    +0.000 A 
ATOM      8  N   UNL     1       4.248   7.046  16.843  0.00  0.00    +0.000 NA
ATOM      9  N   UNL     1       4.239   5.796  17.355  0.00  0.00    +0.000 N 
ENDROOT
BRANCH   1  10
ATOM     10  N   UNL     1       1.421   8.200  20.211  0.00  0.00    +0.000 N 
ATOM     11  H   UNL     1       1.680   8.971  19.599  0.00  0.00    +0.000 HD
BRANCH  10  12
ATOM     12  C   UNL     1       1.359   8.545  21.619  0.00  0.00    +0.000 C 
BRANCH  12  16
ATOM     13  C   UNL     1      -1.250  11.903  22.357  0.00  0.00    +0.000 A 
ATOM     14  C   UNL     1      -1.247  10.806  23.218  0.00  0.00    +0.000 A 
ATOM     15  C   UNL     1      -0.410   9.719  22.976  0.00  0.00    +0.000 A 
ATOM     16  C   UNL     1       0.418   9.698  21.848  0.00  0.00    +0.000 A 
ATOM     17  C   UNL     1       0.413  10.797  20.983  0.00  0.00    +0.000 A 
ATOM     18  C   UNL     1      -0.422  11.892  21.229  0.00  0.00    +0.000 A 
BRANCH  13  20
ATOM     19  C   UNL     1      -3.343  12.484  23.289  0.00  0.00    +0.000 C 
ATOM     20  O   UNL     1      -2.121  12.901  22.695  0.00  0.00    +0.000 OA
ENDBRANCH  13  20
ENDBRANCH  12  16
ENDBRANCH  10  12
ENDBRANCH   1  10
BRANCH   3  21
ATOM     21  S   UNL     1       2.277   3.351  21.326  0.00  0.00    +0.000 S 
ATOM     22  C   UNL     1       1.346   2.247  20.238  0.00  0.00    +0.000 C 
ENDBRANCH   3  21
BRANCH   9  23
ATOM     23  C   UNL     1       4.957   4.753  16.664  0.00  0.00    +0.000 C 
BRANCH  23  24
ATOM     24  C   UNL     1       6.352   5.161  16.180  0.00  0.00    +0.000 C 
ATOM     25 CL   UNL     1       7.665   4.393  17.136  0.00  0.00    +0.000 Cl
BRANCH  24  26
ATOM     26  C   UNL     1       6.526   4.798  14.718  0.00  0.00    +0.000 A 
ATOM     27  C   UNL     1       5.667   3.865  14.120  0.00  0.00    +0.000 A 
ATOM     28  C   UNL     1       5.869   3.467  12.796  0.00  0.00    +0.000 A 
ATOM     29  C   UNL     1       6.924   4.001  12.055  0.00  0.00    +0.000 A 
ATOM     30  C   UNL     1       7.769   4.946  12.632  0.00  0.00    +0.000 A 
ATOM     31  C   UNL     1       7.568   5.349  13.951  0.00  0.00    +0.000 A 
ENDBRANCH  24  26
ENDBRANCH  23  24
ENDBRANCH   9  23
TORSDOF 8
ENDMDL
MODEL 2
REMARK VINA RESULT:      -8.0      0.580      1.354
REMARK  Name = 
REMARK  10 active torsions:
REMARK  status: ('A' for Active; 'I' for Inactive)
REMARK    1  A    between atoms: C_1  and  O_2
REMARK    2  A    between atoms: O_2  and  C_3
REMARK    3  A    between atoms: C_6  and  C_7
REMARK    4  A    between atoms: C_7  and  N_8
REMARK    5  A    between atoms: N_8  and  C_9
REMARK    6  A    between atoms: C_11  and  S_12
REMARK    7  A    between atoms: S_12  and  C_13
REMARK    8  A    between atoms: N_19  and  C_20
REMARK    9  A    between atoms: C_20  and  C_21
REMARK   10  A    between atoms: C_21  and  C_23
REMARK                            x       y       z     vdW  Elec       q    Type
REMARK                         _______ _______ _______ _____ _____    ______ ____
ROOT
ATOM      1  C   UNL     1       2.201   7.006  19.775  0.00  0.00    +0.000 A 
ATOM      2  N   UNL     1       1.960   5.861  20.469  0.00  0.00    +0.000 NA
ATOM      3  C   UNL     1       2.570   4.711  20.103  0.00  0.00    +0.000 A 
ATOM      4  N   UNL     1       3.379   4.538  19.039  0.00  0.00    +0.000 NA
ATOM      5  C   UNL     1       3.551   5.673  18.350  0.00  0.00    +0.000 A 
ATOM      6  C   UNL     1       3.030   6.914  18.648  0.00  0.00    +0.000 A 
ATOM      7  C   UNL     1       3.519   7.750  17.620  0.00  0.00    +0.000 A 
ATOM      8  N   UNL     1       4.293   7.106  16.741  0.00  0.00    +0.000 NA
ATOM      9  N   UNL     1       4.257   5.830  17.186  0.00  0.00    +0.000 N 
ENDROOT
BRANCH   1  10
ATOM     10  N   UNL     1       1.597   8.162  20.246  0.00  0.00    +0.000 N 
ATOM     11  H   UNL     1       2.234   8.951  20.159  0.00  0.00    +0.000 HD
BRANCH  10  12
ATOM     12  C   UNL     1       0.854   8.123  21.492  0.00  0.00    +0.000 C 
BRANCH  12  16
ATOM     13  C   UNL     1      -1.476  11.716  22.034  0.00  0.00    +0.000 A 
ATOM     14  C   UNL     1      -0.971  11.382  20.778  0.00  0.00    +0.000 A 
ATOM     15  C   UNL     1      -0.212  10.226  20.604  0.00  0.00    +0.000 A 
ATOM     16  C   UNL     1       0.079   9.399  21.695  0.00  0.00    +0.000 A 
ATOM     17  C   UNL     1      -0.425   9.735  22.955  0.00  0.00    +0.000 A 
ATOM     18  C   UNL     1      -1.192  10.892  23.129  0.00  0.00    +0.000 A 
BRANCH  13  20
ATOM     19  C   UNL     1      -3.338  12.870  22.922  0.00  0.00    +0.000 C 
ATOM     20  O   UNL     1      -2.194  12.878  22.078  0.00  0.00    +0.000 OA
ENDBRANCH  13  20
ENDBRANCH  12  16
ENDBRANCH  10  12
ENDBRANCH   1  10
BRANCH   3  21
ATOM     21  S   UNL     1       2.325   3.235  21.077  0.00  0.00    +0.000 S 
ATOM     22  C   UNL     1       3.802   2.277  20.664  0.00  0.00    +0.000 C 
ENDBRANCH   3  21
BRANCH   9  23
ATOM     23  C   UNL     1       4.922   4.805  16.421  0.00  0.00    +0.000 C 
BRANCH  23  24
ATOM     24  C   UNL     1       6.341   5.170  15.974  0.00  0.00    +0.000 C 
ATOM     25 CL   UNL     1       7.603   4.451  17.032  0.00  0.00    +0.000 Cl
BRANCH  24  26
ATOM     26  C   UNL     1       6.574   4.715  14.546  0.00  0.00    +0.000 A 
ATOM     27  C   UNL     1       7.608   5.283  13.789  0.00  0.00    +0.000 A 
ATOM     28  C   UNL     1       7.781   4.925  12.449  0.00  0.00    +0.000 A 
ATOM     29  C   UNL     1       6.928   3.994  11.856  0.00  0.00    +0.000 A 
ATOM     30  C   UNL     1       5.911   3.406  12.606  0.00  0.00    +0.000 A 
ATOM     31  C   UNL     1       5.740   3.757  13.944  0.00  0.00    +0.000 A 
ENDBRANCH  24  26
ENDBRANCH  23  24
ENDBRANCH   9  23
TORSDOF 8
ENDMDL
MODEL 3
REMARK VINA RESULT:      -8.0      1.912      2.956
REMARK  Name = 
REMARK  10 active torsions:
REMARK  status: ('A' for Active; 'I' for Inactive)
REMARK    1  A    between atoms: C_1  and  O_2
REMARK    2  A    between atoms: O_2  and  C_3
REMARK    3  A    between atoms: C_6  and  C_7
REMARK    4  A    between atoms: C_7  and  N_8
REMARK    5  A    between atoms: N_8  and  C_9
REMARK    6  A    between atoms: C_11  and  S_12
REMARK    7  A    between atoms: S_12  and  C_13
REMARK    8  A    between atoms: N_19  and  C_20
REMARK    9  A    between atoms: C_20  and  C_21
REMARK   10  A    between atoms: C_21  and  C_23
REMARK                            x       y       z     vdW  Elec       q    Type
REMARK                         _______ _______ _______ _____ _____    ______ ____
ROOT
ATOM      1  C   UNL     1       3.558   5.837  18.255  0.00  0.00    +0.000 A 
ATOM      2  N   UNL     1       2.990   4.606  18.376  0.00  0.00    +0.000 NA
ATOM      3  C   UNL     1       3.537   3.548  17.735  0.00  0.00    +0.000 A 
ATOM      4  N   UNL     1       4.591   3.577  16.897  0.00  0.00    +0.000 NA
ATOM      5  C   UNL     1       5.090   4.812  16.762  0.00  0.00    +0.000 A 
ATOM      6  C   UNL     1       4.659   5.958  17.396  0.00  0.00    +0.000 A 
ATOM      7  C   UNL     1       5.521   6.967  16.911  0.00  0.00    +0.000 A 
ATOM      8  N   UNL     1       6.431   6.510  16.046  0.00  0.00    +0.000 NA
ATOM      9  N   UNL     1       6.115   5.200  15.939  0.00  0.00    +0.000 N 
ENDROOT
BRANCH   1  10
ATOM     10  N   UNL     1       2.987   6.864  18.992  0.00  0.00    +0.000 N 
ATOM     11  H   UNL     1       2.496   6.485  19.800  0.00  0.00    +0.000 HD
BRANCH  10  12
ATOM     12  C   UNL     1       2.282   7.931  18.306  0.00  0.00    +0.000 C 
BRANCH  12  16
ATOM     13  C   UNL     1      -0.065  10.285  21.058  0.00  0.00    +0.000 A 
ATOM     14  C   UNL     1       0.090  10.691  19.733  0.00  0.00    +0.000 A 
ATOM     15  C   UNL     1       0.855   9.935  18.847  0.00  0.00    +0.000 A 
ATOM     16  C   UNL     1       1.502   8.773  19.281  0.00  0.00    +0.000 A 
ATOM     17  C   UNL     1       1.349   8.367  20.611  0.00  0.00    +0.000 A 
ATOM     18  C   UNL     1       0.577   9.122  21.500  0.00  0.00    +0.000 A 
BRANCH  13  20
ATOM     19  C   UNL     1      -1.107  10.656  23.147  0.00  0.00    +0.000 C 
ATOM     20  O   UNL     1      -0.826  11.115  21.832  0.00  0.00    +0.000 OA
ENDBRANCH  13  20
ENDBRANCH  12  16
ENDBRANCH  10  12
ENDBRANCH   1  10
BRANCH   3  21
ATOM     21  S   UNL     1       2.845   1.920  17.976  0.00  0.00    +0.000 S 
ATOM     22  C   UNL     1       1.239   2.311  18.708  0.00  0.00    +0.000 C 
ENDBRANCH   3  21
BRANCH   9  23
ATOM     23  C   UNL     1       6.844   4.381  15.002  0.00  0.00    +0.000 C 
BRANCH  23  24
ATOM     24  C   UNL     1       6.759   4.856  13.548  0.00  0.00    +0.000 C 
ATOM     25 CL   UNL     1       8.291   5.598  12.975  0.00  0.00    +0.000 Cl
BRANCH  24  26
ATOM     26  C   UNL     1       6.400   3.696  12.639  0.00  0.00    +0.000 A 
ATOM     27  C   UNL     1       7.414   2.924  12.053  0.00  0.00    +0.000 A 
ATOM     28  C   UNL     1       7.094   1.903  11.154  0.00  0.00    +0.000 A 
ATOM     29  C   UNL     1       5.761   1.640  10.837  0.00  0.00    +0.000 A 
ATOM     30  C   UNL     1       4.745   2.386  11.431  0.00  0.00    +0.000 A 
ATOM     31  C   UNL     1       5.060   3.401  12.332  0.00  0.00    +0.000 A 
ENDBRANCH  24  26
ENDBRANCH  23  24
ENDBRANCH   9  23
TORSDOF 8
ENDMDL
MODEL 4
REMARK VINA RESULT:      -7.9      0.830      1.238
REMARK  Name = 
REMARK  10 active torsions:
REMARK  status: ('A' for Active; 'I' for Inactive)
REMARK    1  A    between atoms: C_1  and  O_2
REMARK    2  A    between atoms: O_2  and  C_3
REMARK    3  A    between atoms: C_6  and  C_7
REMARK    4  A    between atoms: C_7  and  N_8
REMARK    5  A    between atoms: N_8  and  C_9
REMARK    6  A    between atoms: C_11  and  S_12
REMARK    7  A    between atoms: S_12  and  C_13
REMARK    8  A    between atoms: N_19  and  C_20
REMARK    9  A    between atoms: C_20  and  C_21
REMARK   10  A    between atoms: C_21  and  C_23
REMARK                            x       y       z     vdW  Elec       q    Type
REMARK                         _______ _______ _______ _____ _____    ______ ____
ROOT
ATOM      1  C   UNL     1       2.097   6.210  20.007  0.00  0.00    +0.000 A 
ATOM      2  N   UNL     1       1.706   4.947  20.325  0.00  0.00    +0.000 NA
ATOM      3  C   UNL     1       2.225   3.893  19.654  0.00  0.00    +0.000 A 
ATOM      4  N   UNL     1       3.076   3.949  18.611  0.00  0.00    +0.000 NA
ATOM      5  C   UNL     1       3.397   5.209  18.293  0.00  0.00    +0.000 A 
ATOM      6  C   UNL     1       2.980   6.360  18.928  0.00  0.00    +0.000 A 
ATOM      7  C   UNL     1       3.607   7.400  18.207  0.00  0.00    +0.000 A 
ATOM      8  N   UNL     1       4.367   6.958  17.200  0.00  0.00    +0.000 NA
ATOM      9  N   UNL     1       4.183   5.620  17.248  0.00  0.00    +0.000 N 
ENDROOT
BRANCH   1  10
ATOM     10  N   UNL     1       1.578   7.239  20.779  0.00  0.00    +0.000 N 
ATOM     11  H   UNL     1       0.736   6.927  21.259  0.00  0.00    +0.000 HD
BRANCH  10  12
ATOM     12  C   UNL     1       1.494   8.577  20.224  0.00  0.00    +0.000 C 
BRANCH  12  16
ATOM     13  C   UNL     1      -1.096  11.107  22.574  0.00  0.00    +0.000 A 
ATOM     14  C   UNL     1      -0.415  10.045  23.168  0.00  0.00    +0.000 A 
ATOM     15  C   UNL     1       0.415   9.223  22.407  0.00  0.00    +0.000 A 
ATOM     16  C   UNL     1       0.554   9.434  21.031  0.00  0.00    +0.000 A 
ATOM     17  C   UNL     1      -0.131  10.498  20.435  0.00  0.00    +0.000 A 
ATOM     18  C   UNL     1      -0.960  11.326  21.198  0.00  0.00    +0.000 A 
BRANCH  13  20
ATOM     19  C   UNL     1      -2.810  12.719  22.802  0.00  0.00    +0.000 C 
ATOM     20  O   UNL     1      -1.887  11.832  23.420  0.00  0.00    +0.000 OA
ENDBRANCH  13  20
ENDBRANCH  12  16
ENDBRANCH  10  12
ENDBRANCH   1  10
BRANCH   3  21
ATOM     21  S   UNL     1       1.782   2.234  20.142  0.00  0.00    +0.000 S 
ATOM     22  C   UNL     1       1.516   2.435  21.919  0.00  0.00    +0.000 C 
ENDBRANCH   3  21
BRANCH   9  23
ATOM     23  C   UNL     1       4.792   4.795  16.234  0.00  0.00    +0.000 C 
BRANCH  23  24
ATOM     24  C   UNL     1       6.222   5.202  15.864  0.00  0.00    +0.000 C 
ATOM     25 CL   UNL     1       7.446   4.516  16.986  0.00  0.00    +0.000 Cl
BRANCH  24  26
ATOM     26  C   UNL     1       6.543   4.757  14.450  0.00  0.00    +0.000 A 
ATOM     27  C   UNL     1       7.574   5.382  13.735  0.00  0.00    +0.000 A 
ATOM     28  C   UNL     1       7.825   5.031  12.406  0.00  0.00    +0.000 A 
ATOM     29  C   UNL     1       7.055   4.049  11.781  0.00  0.00    +0.000 A 
ATOM     30  C   UNL     1       6.043   3.406  12.490  0.00  0.00    +0.000 A 
ATOM     31  C   UNL     1       5.793   3.750  13.817  0.00  0.00    +0.000 A 
ENDBRANCH  24  26
ENDBRANCH  23  24
ENDBRANCH   9  23
TORSDOF 8
ENDMDL
MODEL 5
REMARK VINA RESULT:      -7.8      3.428      4.870
REMARK  Name = 
REMARK  10 active torsions:
REMARK  status: ('A' for Active; 'I' for Inactive)
REMARK    1  A    between atoms: C_1  and  O_2
REMARK    2  A    between atoms: O_2  and  C_3
REMARK    3  A    between atoms: C_6  and  C_7
REMARK    4  A    between atoms: C_7  and  N_8
REMARK    5  A    between atoms: N_8  and  C_9
REMARK    6  A    between atoms: C_11  and  S_12
REMARK    7  A    between atoms: S_12  and  C_13
REMARK    8  A    between atoms: N_19  and  C_20
REMARK    9  A    between atoms: C_20  and  C_21
REMARK   10  A    between atoms: C_21  and  C_23
REMARK                            x       y       z     vdW  Elec       q    Type
REMARK                         _______ _______ _______ _____ _____    ______ ____
ROOT
ATOM      1  C   UNL     1       0.624   9.990  18.966  0.00  0.00    +0.000 A 
ATOM      2  N   UNL     1       0.055   9.981  20.202  0.00  0.00    +0.000 NA
ATOM      3  C   UNL     1       0.449   9.067  21.118  0.00  0.00    +0.000 A 
ATOM      4  N   UNL     1       1.335   8.071  20.924  0.00  0.00    +0.000 NA
ATOM      5  C   UNL     1       1.834   8.078  19.682  0.00  0.00    +0.000 A 
ATOM      6  C   UNL     1       1.555   8.981  18.678  0.00  0.00    +0.000 A 
ATOM      7  C   UNL     1       2.341   8.543  17.590  0.00  0.00    +0.000 A 
ATOM      8  N   UNL     1       3.068   7.457  17.869  0.00  0.00    +0.000 NA
ATOM      9  N   UNL     1       2.703   7.169  19.138  0.00  0.00    +0.000 N 
ENDROOT
BRANCH   1  10
ATOM     10  N   UNL     1       0.223  10.996  18.100  0.00  0.00    +0.000 N 
ATOM     11  H   UNL     1       1.010  11.305  17.534  0.00  0.00    +0.000 HD
BRANCH  10  12
ATOM     12  C   UNL     1      -0.621  12.069  18.593  0.00  0.00    +0.000 C 
BRANCH  12  16
ATOM     13  C   UNL     1      -4.801  11.336  17.801  0.00  0.00    +0.000 A 
ATOM     14  C   UNL     1      -4.402  11.952  18.987  0.00  0.00    +0.000 A 
ATOM     15  C   UNL     1      -3.052  12.181  19.246  0.00  0.00    +0.000 A 
ATOM     16  C   UNL     1      -2.075  11.770  18.333  0.00  0.00    +0.000 A 
ATOM     17  C   UNL     1      -2.474  11.150  17.144  0.00  0.00    +0.000 A 
ATOM     18  C   UNL     1      -3.829  10.925  16.881  0.00  0.00    +0.000 A 
BRANCH  13  20
ATOM     19  C   UNL     1      -6.959  12.290  17.950  0.00  0.00    +0.000 C 
ATOM     20  O   UNL     1      -6.149  11.156  17.668  0.00  0.00    +0.000 OA
ENDBRANCH  13  20
ENDBRANCH  12  16
ENDBRANCH  10  12
ENDBRANCH   1  10
BRANCH   3  21
ATOM     21  S   UNL     1      -0.230   9.124  22.768  0.00  0.00    +0.000 S 
ATOM     22  C   UNL     1      -0.862  10.816  22.843  0.00  0.00    +0.000 C 
ENDBRANCH   3  21
BRANCH   9  23
ATOM     23  C   UNL     1       3.229   5.980  19.762  0.00  0.00    +0.000 C 
BRANCH  23  24
ATOM     24  C   UNL     1       3.150   4.722  18.891  0.00  0.00    +0.000 C 
ATOM     25 CL   UNL     1       1.744   4.746  17.772  0.00  0.00    +0.000 Cl
BRANCH  24  26
ATOM     26  C   UNL     1       4.423   4.563  18.083  0.00  0.00    +0.000 A 
ATOM     27  C   UNL     1       5.666   4.836  18.672  0.00  0.00    +0.000 A 
ATOM     28  C   UNL     1       6.837   4.767  17.912  0.00  0.00    +0.000 A 
ATOM     29  C   UNL     1       6.780   4.418  16.563  0.00  0.00    +0.000 A 
ATOM     30  C   UNL     1       5.552   4.123  15.974  0.00  0.00    +0.000 A 
ATOM     31  C   UNL     1       4.383   4.185  16.729  0.00  0.00    +0.000 A 
ENDBRANCH  24  26
ENDBRANCH  23  24
ENDBRANCH   9  23
TORSDOF 8
ENDMDL
MODEL 6
REMARK VINA RESULT:      -7.8      3.368      4.831
REMARK  Name = 
REMARK  10 active torsions:
REMARK  status: ('A' for Active; 'I' for Inactive)
REMARK    1  A    between atoms: C_1  and  O_2
REMARK    2  A    between atoms: O_2  and  C_3
REMARK    3  A    between atoms: C_6  and  C_7
REMARK    4  A    between atoms: C_7  and  N_8
REMARK    5  A    between atoms: N_8  and  C_9
REMARK    6  A    between atoms: C_11  and  S_12
REMARK    7  A    between atoms: S_12  and  C_13
REMARK    8  A    between atoms: N_19  and  C_20
REMARK    9  A    between atoms: C_20  and  C_21
REMARK   10  A    between atoms: C_21  and  C_23
REMARK                            x       y       z     vdW  Elec       q    Type
REMARK                         _______ _______ _______ _____ _____    ______ ____
ROOT
ATOM      1  C   UNL     1       0.645   9.990  19.003  0.00  0.00    +0.000 A 
ATOM      2  N   UNL     1       0.089   9.990  20.244  0.00  0.00    +0.000 NA
ATOM      3  C   UNL     1       0.479   9.069  21.156  0.00  0.00    +0.000 A 
ATOM      4  N   UNL     1       1.347   8.060  20.953  0.00  0.00    +0.000 NA
ATOM      5  C   UNL     1       1.834   8.060  19.706  0.00  0.00    +0.000 A 
ATOM      6  C   UNL     1       1.558   8.968  18.705  0.00  0.00    +0.000 A 
ATOM      7  C   UNL     1       2.326   8.518  17.609  0.00  0.00    +0.000 A 
ATOM      8  N   UNL     1       3.040   7.421  17.881  0.00  0.00    +0.000 NA
ATOM      9  N   UNL     1       2.683   7.137  19.153  0.00  0.00    +0.000 N 
ENDROOT
BRANCH   1  10
ATOM     10  N   UNL     1       0.251  11.002  18.141  0.00  0.00    +0.000 N 
ATOM     11  H   UNL     1       1.025  11.267  17.534  0.00  0.00    +0.000 HD
BRANCH  10  12
ATOM     12  C   UNL     1      -0.520  12.119  18.655  0.00  0.00    +0.000 C 
BRANCH  12  16
ATOM     13  C   UNL     1      -4.720  11.433  17.938  0.00  0.00    +0.000 A 
ATOM     14  C   UNL     1      -3.775  11.124  16.960  0.00  0.00    +0.000 A 
ATOM     15  C   UNL     1      -2.420  11.353  17.189  0.00  0.00    +0.000 A 
ATOM     16  C   UNL     1      -1.990  11.924  18.392  0.00  0.00    +0.000 A 
ATOM     17  C   UNL     1      -2.938  12.236  19.372  0.00  0.00    +0.000 A 
ATOM     18  C   UNL     1      -4.298  12.001  19.145  0.00  0.00    +0.000 A 
BRANCH  13  20
ATOM     19  C   UNL     1      -7.010  11.849  18.353  0.00  0.00    +0.000 C 
ATOM     20  O   UNL     1      -6.016  11.174  17.592  0.00  0.00    +0.000 OA
ENDBRANCH  13  20
ENDBRANCH  12  16
ENDBRANCH  10  12
ENDBRANCH   1  10
BRANCH   3  21
ATOM     21  S   UNL     1      -0.183   9.137  22.812  0.00  0.00    +0.000 S 
ATOM     22  C   UNL     1      -0.908  10.793  22.849  0.00  0.00    +0.000 C 
ENDBRANCH   3  21
BRANCH   9  23
ATOM     23  C   UNL     1       3.197   5.941  19.772  0.00  0.00    +0.000 C 
BRANCH  23  24
ATOM     24  C   UNL     1       3.181   4.705  18.866  0.00  0.00    +0.000 C 
ATOM     25 CL   UNL     1       1.769   4.683  17.755  0.00  0.00    +0.000 Cl
BRANCH  24  26
ATOM     26  C   UNL     1       4.456   4.639  18.048  0.00  0.00    +0.000 A 
ATOM     27  C   UNL     1       4.409   4.233  16.707  0.00  0.00    +0.000 A 
ATOM     28  C   UNL     1       5.588   4.096  15.969  0.00  0.00    +0.000 A 
ATOM     29  C   UNL     1       6.822   4.368  16.559  0.00  0.00    +0.000 A 
ATOM     30  C   UNL     1       6.878   4.794  17.885  0.00  0.00    +0.000 A 
ATOM     31  C   UNL     1       5.705   4.937  18.622  0.00  0.00    +0.000 A 
ENDBRANCH  24  26
ENDBRANCH  23  24
ENDBRANCH   9  23
TORSDOF 8
ENDMDL
MODEL 7
REMARK VINA RESULT:      -7.8      3.853      8.372
REMARK  Name = 
REMARK  10 active torsions:
REMARK  status: ('A' for Active; 'I' for Inactive)
REMARK    1  A    between atoms: C_1  and  O_2
REMARK    2  A    between atoms: O_2  and  C_3
REMARK    3  A    between atoms: C_6  and  C_7
REMARK    4  A    between atoms: C_7  and  N_8
REMARK    5  A    between atoms: N_8  and  C_9
REMARK    6  A    between atoms: C_11  and  S_12
REMARK    7  A    between atoms: S_12  and  C_13
REMARK    8  A    between atoms: N_19  and  C_20
REMARK    9  A    between atoms: C_20  and  C_21
REMARK   10  A    between atoms: C_21  and  C_23
REMARK                            x       y       z     vdW  Elec       q    Type
REMARK                         _______ _______ _______ _____ _____    ______ ____
ROOT
ATOM      1  C   UNL     1       3.031   4.995  18.219  0.00  0.00    +0.000 A 
ATOM      2  N   UNL     1       2.806   4.068  19.189  0.00  0.00    +0.000 NA
ATOM      3  C   UNL     1       2.215   4.437  20.348  0.00  0.00    +0.000 A 
ATOM      4  N   UNL     1       1.864   5.688  20.704  0.00  0.00    +0.000 NA
ATOM      5  C   UNL     1       2.149   6.581  19.748  0.00  0.00    +0.000 A 
ATOM      6  C   UNL     1       2.699   6.326  18.510  0.00  0.00    +0.000 A 
ATOM      7  C   UNL     1       2.781   7.597  17.900  0.00  0.00    +0.000 A 
ATOM      8  N   UNL     1       2.318   8.583  18.674  0.00  0.00    +0.000 NA
ATOM      9  N   UNL     1       1.982   7.939  19.814  0.00  0.00    +0.000 N 
ENDROOT
BRANCH   1  10
ATOM     10  N   UNL     1       3.577   4.536  17.030  0.00  0.00    +0.000 N 
ATOM     11  H   UNL     1       2.920   3.920  16.557  0.00  0.00    +0.000 HD
BRANCH  10  12
ATOM     12  C   UNL     1       4.955   4.079  17.006  0.00  0.00    +0.000 C 
BRANCH  12  16
ATOM     13  C   UNL     1       7.741   7.161  18.173  0.00  0.00    +0.000 A 
ATOM     14  C   UNL     1       7.607   6.002  18.937  0.00  0.00    +0.000 A 
ATOM     15  C   UNL     1       6.701   5.010  18.564  0.00  0.00    +0.000 A 
ATOM     16  C   UNL     1       5.893   5.176  17.434  0.00  0.00    +0.000 A 
ATOM     17  C   UNL     1       6.026   6.340  16.670  0.00  0.00    +0.000 A 
ATOM     18  C   UNL     1       6.938   7.333  17.040  0.00  0.00    +0.000 A 
BRANCH  13  20
ATOM     19  C   UNL     1       8.470   9.409  18.227  0.00  0.00    +0.000 C 
ATOM     20  O   UNL     1       8.652   8.063  18.647  0.00  0.00    +0.000 OA
ENDBRANCH  13  20
ENDBRANCH  12  16
ENDBRANCH  10  12
ENDBRANCH   1  10
BRANCH   3  21
ATOM     21  S   UNL     1       1.833   3.199  21.575  0.00  0.00    +0.000 S 
ATOM     22  C   UNL     1       3.206   2.041  21.364  0.00  0.00    +0.000 C 
ENDBRANCH   3  21
BRANCH   9  23
ATOM     23  C   UNL     1       1.515   8.710  20.939  0.00  0.00    +0.000 C 
BRANCH  23  24
ATOM     24  C   UNL     1       0.024   9.063  20.889  0.00  0.00    +0.000 C 
ATOM     25 CL   UNL     1      -0.693   9.257  22.525  0.00  0.00    +0.000 Cl
BRANCH  24  26
ATOM     26  C   UNL     1      -0.185  10.342  20.101  0.00  0.00    +0.000 A 
ATOM     27  C   UNL     1      -1.223  10.426  19.163  0.00  0.00    +0.000 A 
ATOM     28  C   UNL     1      -1.375  11.573  18.379  0.00  0.00    +0.000 A 
ATOM     29  C   UNL     1      -0.497  12.647  18.529  0.00  0.00    +0.000 A 
ATOM     30  C   UNL     1       0.524  12.582  19.475  0.00  0.00    +0.000 A 
ATOM     31  C   UNL     1       0.675  11.443  20.262  0.00  0.00    +0.000 A 
ENDBRANCH  24  26
ENDBRANCH  23  24
ENDBRANCH   9  23
TORSDOF 8
ENDMDL
MODEL 8
REMARK VINA RESULT:      -7.8      2.043      2.811
REMARK  Name = 
REMARK  10 active torsions:
REMARK  status: ('A' for Active; 'I' for Inactive)
REMARK    1  A    between atoms: C_1  and  O_2
REMARK    2  A    between atoms: O_2  and  C_3
REMARK    3  A    between atoms: C_6  and  C_7
REMARK    4  A    between atoms: C_7  and  N_8
REMARK    5  A    between atoms: N_8  and  C_9
REMARK    6  A    between atoms: C_11  and  S_12
REMARK    7  A    between atoms: S_12  and  C_13
REMARK    8  A    between atoms: N_19  and  C_20
REMARK    9  A    between atoms: C_20  and  C_21
REMARK   10  A    between atoms: C_21  and  C_23
REMARK                            x       y       z     vdW  Elec       q    Type
REMARK                         _______ _______ _______ _____ _____    ______ ____
ROOT
ATOM      1  C   UNL     1       3.365   6.085  18.063  0.00  0.00    +0.000 A 
ATOM      2  N   UNL     1       2.700   4.905  18.186  0.00  0.00    +0.000 NA
ATOM      3  C   UNL     1       3.180   3.796  17.578  0.00  0.00    +0.000 A 
ATOM      4  N   UNL     1       4.257   3.728  16.771  0.00  0.00    +0.000 NA
ATOM      5  C   UNL     1       4.855   4.918  16.631  0.00  0.00    +0.000 A 
ATOM      6  C   UNL     1       4.497   6.105  17.235  0.00  0.00    +0.000 A 
ATOM      7  C   UNL     1       5.448   7.034  16.760  0.00  0.00    +0.000 A 
ATOM      8  N   UNL     1       6.345   6.493  15.929  0.00  0.00    +0.000 NA
ATOM      9  N   UNL     1       5.930   5.210  15.833  0.00  0.00    +0.000 N 
ENDROOT
BRANCH   1  10
ATOM     10  N   UNL     1       2.857   7.166  18.766  0.00  0.00    +0.000 N 
ATOM     11  H   UNL     1       2.303   6.841  19.556  0.00  0.00    +0.000 HD
BRANCH  10  12
ATOM     12  C   UNL     1       2.274   8.281  18.042  0.00  0.00    +0.000 C 
BRANCH  12  16
ATOM     13  C   UNL     1      -0.367  10.563  20.581  0.00  0.00    +0.000 A 
ATOM     14  C   UNL     1       0.432   9.553  21.116  0.00  0.00    +0.000 A 
ATOM     15  C   UNL     1       1.278   8.811  20.294  0.00  0.00    +0.000 A 
ATOM     16  C   UNL     1       1.318   9.049  18.916  0.00  0.00    +0.000 A 
ATOM     17  C   UNL     1       0.514  10.060  18.379  0.00  0.00    +0.000 A 
ATOM     18  C   UNL     1      -0.332  10.809  19.203  0.00  0.00    +0.000 A 
BRANCH  13  20
ATOM     19  C   UNL     1      -1.206  12.627  21.371  0.00  0.00    +0.000 C 
ATOM     20  O   UNL     1      -1.163  11.211  21.484  0.00  0.00    +0.000 OA
ENDBRANCH  13  20
ENDBRANCH  12  16
ENDBRANCH  10  12
ENDBRANCH   1  10
BRANCH   3  21
ATOM     21  S   UNL     1       2.357   2.232  17.824  0.00  0.00    +0.000 S 
ATOM     22  C   UNL     1       3.664   1.248  18.595  0.00  0.00    +0.000 C 
ENDBRANCH   3  21
BRANCH   9  23
ATOM     23  C   UNL     1       6.618   4.320  14.932  0.00  0.00    +0.000 C 
BRANCH  23  24
ATOM     24  C   UNL     1       6.695   4.820  13.486  0.00  0.00    +0.000 C 
ATOM     25 CL   UNL     1       8.282   5.567  13.098  0.00  0.00    +0.000 Cl
BRANCH  24  26
ATOM     26  C   UNL     1       6.436   3.678  12.522  0.00  0.00    +0.000 A 
ATOM     27  C   UNL     1       5.121   3.298  12.222  0.00  0.00    +0.000 A 
ATOM     28  C   UNL     1       4.875   2.197  11.396  0.00  0.00    +0.000 A 
ATOM     29  C   UNL     1       5.939   1.472  10.858  0.00  0.00    +0.000 A 
ATOM     30  C   UNL     1       7.250   1.855  11.132  0.00  0.00    +0.000 A 
ATOM     31  C   UNL     1       7.498   2.955  11.951  0.00  0.00    +0.000 A 
ENDBRANCH  24  26
ENDBRANCH  23  24
ENDBRANCH   9  23
TORSDOF 8
ENDMDL
MODEL 9
REMARK VINA RESULT:      -7.8      3.810      8.486
REMARK  Name = 
REMARK  10 active torsions:
REMARK  status: ('A' for Active; 'I' for Inactive)
REMARK    1  A    between atoms: C_1  and  O_2
REMARK    2  A    between atoms: O_2  and  C_3
REMARK    3  A    between atoms: C_6  and  C_7
REMARK    4  A    between atoms: C_7  and  N_8
REMARK    5  A    between atoms: N_8  and  C_9
REMARK    6  A    between atoms: C_11  and  S_12
REMARK    7  A    between atoms: S_12  and  C_13
REMARK    8  A    between atoms: N_19  and  C_20
REMARK    9  A    between atoms: C_20  and  C_21
REMARK   10  A    between atoms: C_21  and  C_23
REMARK                            x       y       z     vdW  Elec       q    Type
REMARK                         _______ _______ _______ _____ _____    ______ ____
ROOT
ATOM      1  C   UNL     1       3.195   5.183  18.176  0.00  0.00    +0.000 A 
ATOM      2  N   UNL     1       3.076   4.290  19.196  0.00  0.00    +0.000 NA
ATOM      3  C   UNL     1       2.507   4.672  20.362  0.00  0.00    +0.000 A 
ATOM      4  N   UNL     1       2.081   5.911  20.676  0.00  0.00    +0.000 NA
ATOM      5  C   UNL     1       2.262   6.774  19.669  0.00  0.00    +0.000 A 
ATOM      6  C   UNL     1       2.780   6.500  18.421  0.00  0.00    +0.000 A 
ATOM      7  C   UNL     1       2.746   7.742  17.751  0.00  0.00    +0.000 A 
ATOM      8  N   UNL     1       2.244   8.730  18.499  0.00  0.00    +0.000 NA
ATOM      9  N   UNL     1       2.001   8.119  19.680  0.00  0.00    +0.000 N 
ENDROOT
BRANCH   1  10
ATOM     10  N   UNL     1       3.725   4.707  16.987  0.00  0.00    +0.000 N 
ATOM     11  H   UNL     1       3.031   4.149  16.492  0.00  0.00    +0.000 HD
BRANCH  10  12
ATOM     12  C   UNL     1       5.065   4.149  16.974  0.00  0.00    +0.000 C 
BRANCH  12  16
ATOM     13  C   UNL     1       7.860   7.131  18.360  0.00  0.00    +0.000 A 
ATOM     14  C   UNL     1       7.147   7.325  17.177  0.00  0.00    +0.000 A 
ATOM     15  C   UNL     1       6.250   6.358  16.726  0.00  0.00    +0.000 A 
ATOM     16  C   UNL     1       6.074   5.166  17.437  0.00  0.00    +0.000 A 
ATOM     17  C   UNL     1       6.792   4.971  18.622  0.00  0.00    +0.000 A 
ATOM     18  C   UNL     1       7.688   5.943  19.078  0.00  0.00    +0.000 A 
BRANCH  13  20
ATOM     19  C   UNL     1       8.390   9.428  18.175  0.00  0.00    +0.000 C 
ATOM     20  O   UNL     1       8.716   8.143  18.691  0.00  0.00    +0.000 OA
ENDBRANCH  13  20
ENDBRANCH  12  16
ENDBRANCH  10  12
ENDBRANCH   1  10
BRANCH   3  21
ATOM     21  S   UNL     1       2.264   3.470  21.659  0.00  0.00    +0.000 S 
ATOM     22  C   UNL     1       1.174   2.276  20.851  0.00  0.00    +0.000 C 
ENDBRANCH   3  21
BRANCH   9  23
ATOM     23  C   UNL     1       1.525   8.909  20.789  0.00  0.00    +0.000 C 
BRANCH  23  24
ATOM     24  C   UNL     1       0.016   9.176  20.773  0.00  0.00    +0.000 C 
ATOM     25 CL   UNL     1      -0.655   9.437  22.419  0.00  0.00    +0.000 Cl
BRANCH  24  26
ATOM     26  C   UNL     1      -0.292  10.388  19.915  0.00  0.00    +0.000 A 
ATOM     27  C   UNL     1       0.303  11.623  20.205  0.00  0.00    +0.000 A 
ATOM     28  C   UNL     1      -0.034  12.761  19.467  0.00  0.00    +0.000 A 
ATOM     29  C   UNL     1      -0.963  12.674  18.430  0.00  0.00    +0.000 A 
ATOM     30  C   UNL     1      -1.544  11.447  18.118  0.00  0.00    +0.000 A 
ATOM     31  C   UNL     1      -1.205  10.309  18.848  0.00  0.00    +0.000 A 
ENDBRANCH  24  26
ENDBRANCH  23  24
ENDBRANCH   9  23
TORSDOF 8
ENDMDL
