MODEL 1
REMARK VINA RESULT:      -9.1      0.000      0.000
REMARK  Name = 
REMARK  6 active torsions:
REMARK  status: ('A' for Active; 'I' for Inactive)
REMARK    1  A    between atoms: C_1  and  S_2
REMARK    2  A    between atoms: S_2  and  N_5
REMARK    3  A    between atoms: N_5  and  C_6
REMARK    4  A    between atoms: C_9  and  N_10
REMARK    5  A    between atoms: N_10  and  C_11
REMARK    6  A    between atoms: C_22  and  C_23
REMARK                            x       y       z     vdW  Elec       q    Type
REMARK                         _______ _______ _______ _____ _____    ______ ____
ROOT
ATOM      1  C   UNL     1       3.633   5.637  19.429  0.00  0.00    +0.000 A 
ATOM      2  C   UNL     1       4.493   5.593  18.262  0.00  0.00    +0.000 A 
ATOM      3  C   UNL     1       4.248   6.065  16.945  0.00  0.00    +0.000 A 
ATOM      4  C   UNL     1       5.136   5.776  15.893  0.00  0.00    +0.000 A 
ATOM      5  C   UNL     1       6.334   5.120  16.150  0.00  0.00    +0.000 A 
ATOM      6 CL   UNL     1       7.424   4.747  14.872  0.00  0.00    +0.000 Cl
ATOM      7  C   UNL     1       6.599   4.648  17.420  0.00  0.00    +0.000 A 
ATOM      8  C   UNL     1       5.633   4.763  18.393  0.00  0.00    +0.000 A 
ATOM      9  N   UNL     1       5.679   3.822  19.321  0.00  0.00    +0.000 NA
ATOM     10  C   UNL     1       4.499   3.560  19.861  0.00  0.00    +0.000 A 
ATOM     11  C   UNL     1       3.660   2.645  19.224  0.00  0.00    +0.000 A 
ATOM     12  C   UNL     1       2.275   2.751  19.436  0.00  0.00    +0.000 A 
ATOM     13  C   UNL     1       1.893   3.244  20.681  0.00  0.00    +0.000 A 
ATOM     14  C   UNL     1       2.767   4.162  21.249  0.00  0.00    +0.000 A 
ATOM     15  C   UNL     1       3.802   4.592  20.406  0.00  0.00    +0.000 A 
ENDROOT
BRANCH  12  16
ATOM     16  C   UNL     1       1.378   3.082  18.237  0.00  0.00    +0.000 C 
ATOM     17  F   UNL     1       0.242   2.326  18.192  0.00  0.00    +0.000 F 
ATOM     18  F   UNL     1       0.990   4.374  18.154  0.00  0.00    +0.000 F 
ATOM     19  F   UNL     1       2.017   2.802  17.055  0.00  0.00    +0.000 F 
ENDBRANCH  12  16
BRANCH   1  20
ATOM     20  N   UNL     1       2.370   6.332  19.497  0.00  0.00    +0.000 N 
ATOM     21  H   UNL     1       1.715   5.820  18.902  0.00  0.00    +0.000 HD
BRANCH  20  25
ATOM     22  C   UNL     1       0.974  10.335  19.369  0.00  0.00    +0.000 A 
ATOM     23  C   UNL     1       1.497   9.720  18.236  0.00  0.00    +0.000 A 
ATOM     24  C   UNL     1       1.957   8.400  18.317  0.00  0.00    +0.000 A 
ATOM     25  C   UNL     1       1.921   7.670  19.529  0.00  0.00    +0.000 A 
ATOM     26  C   UNL     1       1.317   8.272  20.625  0.00  0.00    +0.000 A 
ATOM     27  C   UNL     1       0.853   9.603  20.546  0.00  0.00    +0.000 A 
BRANCH  22  28
ATOM     28  N   UNL     1       0.539  11.704  19.306  0.00  0.00    +0.000 N 
ATOM     29  H   UNL     1      -0.280  11.897  19.894  0.00  0.00    +0.000 HD
BRANCH  28  31
ATOM     30  C   UNL     1       0.691  14.361  19.375  0.00  0.00    +0.000 C 
ATOM     31  S   UNL     1       1.692  12.913  19.606  0.00  0.00    +0.000 S 
ATOM     32  O   UNL     1       2.727  12.884  18.593  0.00  0.00    +0.000 OA
ATOM     33  O   UNL     1       2.014  12.805  21.012  0.00  0.00    +0.000 OA
ENDBRANCH  28  31
ENDBRANCH  22  28
ENDBRANCH  20  25
ENDBRANCH   1  20
TORSDOF 5
ENDMDL
MODEL 2
REMARK VINA RESULT:      -9.1      1.325      1.554
REMARK  Name = 
REMARK  6 active torsions:
REMARK  status: ('A' for Active; 'I' for Inactive)
REMARK    1  A    between atoms: C_1  and  S_2
REMARK    2  A    between atoms: S_2  and  N_5
REMARK    3  A    between atoms: N_5  and  C_6
REMARK    4  A    between atoms: C_9  and  N_10
REMARK    5  A    between atoms: N_10  and  C_11
REMARK    6  A    between atoms: C_22  and  C_23
REMARK                            x       y       z     vdW  Elec       q    Type
REMARK                         _______ _______ _______ _____ _____    ______ ____
ROOT
ATOM      1  C   UNL     1       3.705   5.706  19.294  0.00  0.00    +0.000 A 
ATOM      2  C   UNL     1       4.563   5.659  18.125  0.00  0.00    +0.000 A 
ATOM      3  C   UNL     1       4.306   6.105  16.801  0.00  0.00    +0.000 A 
ATOM      4  C   UNL     1       5.198   5.814  15.752  0.00  0.00    +0.000 A 
ATOM      5  C   UNL     1       6.409   5.185  16.017  0.00  0.00    +0.000 A 
ATOM      6 CL   UNL     1       7.503   4.812  14.743  0.00  0.00    +0.000 Cl
ATOM      7  C   UNL     1       6.685   4.740  17.295  0.00  0.00    +0.000 A 
ATOM      8  C   UNL     1       5.719   4.853  18.267  0.00  0.00    +0.000 A 
ATOM      9  N   UNL     1       5.785   3.928  19.211  0.00  0.00    +0.000 NA
ATOM     10  C   UNL     1       4.612   3.653  19.758  0.00  0.00    +0.000 A 
ATOM     11  C   UNL     1       3.789   2.712  19.138  0.00  0.00    +0.000 A 
ATOM     12  C   UNL     1       2.402   2.795  19.352  0.00  0.00    +0.000 A 
ATOM     13  C   UNL     1       2.014   3.302  20.589  0.00  0.00    +0.000 A 
ATOM     14  C   UNL     1       2.871   4.245  21.140  0.00  0.00    +0.000 A 
ATOM     15  C   UNL     1       3.896   4.681  20.287  0.00  0.00    +0.000 A 
ENDROOT
BRANCH  12  16
ATOM     16  C   UNL     1       1.496   3.089  18.150  0.00  0.00    +0.000 C 
ATOM     17  F   UNL     1       1.046   4.378  18.121  0.00  0.00    +0.000 F 
ATOM     18  F   UNL     1       2.050   2.842  16.943  0.00  0.00    +0.000 F 
ATOM     19  F   UNL     1       0.351   2.333  18.203  0.00  0.00    +0.000 F 
ENDBRANCH  12  16
BRANCH   1  20
ATOM     20  N   UNL     1       2.429   6.378  19.353  0.00  0.00    +0.000 N 
ATOM     21  H   UNL     1       1.821   5.925  18.668  0.00  0.00    +0.000 HD
BRANCH  20  25
ATOM     22  C   UNL     1       0.963  10.353  19.559  0.00  0.00    +0.000 A 
ATOM     23  C   UNL     1       1.488   9.841  18.377  0.00  0.00    +0.000 A 
ATOM     24  C   UNL     1       1.971   8.527  18.347  0.00  0.00    +0.000 A 
ATOM     25  C   UNL     1       1.958   7.701  19.496  0.00  0.00    +0.000 A 
ATOM     26  C   UNL     1       1.353   8.202  20.642  0.00  0.00    +0.000 A 
ATOM     27  C   UNL     1       0.865   9.526  20.674  0.00  0.00    +0.000 A 
BRANCH  22  28
ATOM     28  N   UNL     1       0.505  11.715  19.610  0.00  0.00    +0.000 N 
ATOM     29  H   UNL     1       1.159  12.378  19.179  0.00  0.00    +0.000 HD
BRANCH  28  31
ATOM     30  C   UNL     1      -1.713  12.971  20.373  0.00  0.00    +0.000 C 
ATOM     31  S   UNL     1      -1.047  12.049  19.011  0.00  0.00    +0.000 S 
ATOM     32  O   UNL     1      -1.800  10.823  18.853  0.00  0.00    +0.000 OA
ATOM     33  O   UNL     1      -0.849  12.958  17.903  0.00  0.00    +0.000 OA
ENDBRANCH  28  31
ENDBRANCH  22  28
ENDBRANCH  20  25
ENDBRANCH   1  20
TORSDOF 5
ENDMDL
MODEL 3
REMARK VINA RESULT:      -9.0      0.172      1.105
REMARK  Name = 
REMARK  6 active torsions:
REMARK  status: ('A' for Active; 'I' for Inactive)
REMARK    1  A    between atoms: C_1  and  S_2
REMARK    2  A    between atoms: S_2  and  N_5
REMARK    3  A    between atoms: N_5  and  C_6
REMARK    4  A    between atoms: C_9  and  N_10
REMARK    5  A    between atoms: N_10  and  C_11
REMARK    6  A    between atoms: C_22  and  C_23
REMARK                            x       y       z     vdW  Elec       q    Type
REMARK                         _______ _______ _______ _____ _____    ______ ____
ROOT
ATOM      1  C   UNL     1       3.675   5.707  19.280  0.00  0.00    +0.000 A 
ATOM      2  C   UNL     1       4.546   5.650  18.121  0.00  0.00    +0.000 A 
ATOM      3  C   UNL     1       4.301   6.082  16.790  0.00  0.00    +0.000 A 
ATOM      4  C   UNL     1       5.204   5.784  15.753  0.00  0.00    +0.000 A 
ATOM      5  C   UNL     1       6.415   5.162  16.037  0.00  0.00    +0.000 A 
ATOM      6 CL   UNL     1       7.523   4.780  14.779  0.00  0.00    +0.000 Cl
ATOM      7  C   UNL     1       6.679   4.731  17.322  0.00  0.00    +0.000 A 
ATOM      8  C   UNL     1       5.703   4.850  18.284  0.00  0.00    +0.000 A 
ATOM      9  N   UNL     1       5.762   3.936  19.238  0.00  0.00    +0.000 NA
ATOM     10  C   UNL     1       4.584   3.662  19.775  0.00  0.00    +0.000 A 
ATOM     11  C   UNL     1       3.771   2.712  19.156  0.00  0.00    +0.000 A 
ATOM     12  C   UNL     1       2.382   2.792  19.355  0.00  0.00    +0.000 A 
ATOM     13  C   UNL     1       1.979   3.310  20.583  0.00  0.00    +0.000 A 
ATOM     14  C   UNL     1       2.827   4.262  21.133  0.00  0.00    +0.000 A 
ATOM     15  C   UNL     1       3.859   4.692  20.286  0.00  0.00    +0.000 A 
ENDROOT
BRANCH  12  16
ATOM     16  C   UNL     1       1.488   3.070  18.141  0.00  0.00    +0.000 C 
ATOM     17  F   UNL     1       1.012   4.349  18.107  0.00  0.00    +0.000 F 
ATOM     18  F   UNL     1       2.064   2.837  16.941  0.00  0.00    +0.000 F 
ATOM     19  F   UNL     1       0.357   2.291  18.175  0.00  0.00    +0.000 F 
ENDBRANCH  12  16
BRANCH   1  20
ATOM     20  N   UNL     1       2.396   6.374  19.320  0.00  0.00    +0.000 N 
ATOM     21  H   UNL     1       1.742   5.799  18.786  0.00  0.00    +0.000 HD
BRANCH  20  25
ATOM     22  C   UNL     1       0.990  10.376  19.332  0.00  0.00    +0.000 A 
ATOM     23  C   UNL     1       0.936   9.592  20.481  0.00  0.00    +0.000 A 
ATOM     24  C   UNL     1       1.401   8.272  20.438  0.00  0.00    +0.000 A 
ATOM     25  C   UNL     1       1.914   7.699  19.249  0.00  0.00    +0.000 A 
ATOM     26  C   UNL     1       2.037   8.524  18.139  0.00  0.00    +0.000 A 
ATOM     27  C   UNL     1       1.569   9.855  18.179  0.00  0.00    +0.000 A 
BRANCH  22  28
ATOM     28  N   UNL     1       0.475  11.718  19.356  0.00  0.00    +0.000 N 
ATOM     29  H   UNL     1      -0.359  11.821  19.946  0.00  0.00    +0.000 HD
BRANCH  28  31
ATOM     30  C   UNL     1       0.518  14.378  19.427  0.00  0.00    +0.000 C 
ATOM     31  S   UNL     1       1.550  12.971  19.749  0.00  0.00    +0.000 S 
ATOM     32  O   UNL     1       2.668  12.981  18.830  0.00  0.00    +0.000 OA
ATOM     33  O   UNL     1       1.753  12.876  21.179  0.00  0.00    +0.000 OA
ENDBRANCH  28  31
ENDBRANCH  22  28
ENDBRANCH  20  25
ENDBRANCH   1  20
TORSDOF 5
ENDMDL
MODEL 4
REMARK VINA RESULT:      -8.9      1.423      1.842
REMARK  Name = 
REMARK  6 active torsions:
REMARK  status: ('A' for Active; 'I' for Inactive)
REMARK    1  A    between atoms: C_1  and  S_2
REMARK    2  A    between atoms: S_2  and  N_5
REMARK    3  A    between atoms: N_5  and  C_6
REMARK    4  A    between atoms: C_9  and  N_10
REMARK    5  A    between atoms: N_10  and  C_11
REMARK    6  A    between atoms: C_22  and  C_23
REMARK                            x       y       z     vdW  Elec       q    Type
REMARK                         _______ _______ _______ _____ _____    ______ ____
ROOT
ATOM      1  C   UNL     1       3.597   5.452  19.608  0.00  0.00    +0.000 A 
ATOM      2  C   UNL     1       4.432   5.436  18.421  0.00  0.00    +0.000 A 
ATOM      3  C   UNL     1       4.170   5.967  17.130  0.00  0.00    +0.000 A 
ATOM      4  C   UNL     1       5.029   5.700  16.048  0.00  0.00    +0.000 A 
ATOM      5  C   UNL     1       6.218   5.008  16.253  0.00  0.00    +0.000 A 
ATOM      6 CL   UNL     1       7.272   4.663  14.938  0.00  0.00    +0.000 Cl
ATOM      7  C   UNL     1       6.498   4.481  17.498  0.00  0.00    +0.000 A 
ATOM      8  C   UNL     1       5.555   4.577  18.495  0.00  0.00    +0.000 A 
ATOM      9  N   UNL     1       5.600   3.599  19.384  0.00  0.00    +0.000 NA
ATOM     10  C   UNL     1       4.426   3.341  19.938  0.00  0.00    +0.000 A 
ATOM     11  C   UNL     1       3.553   2.471  19.284  0.00  0.00    +0.000 A 
ATOM     12  C   UNL     1       2.175   2.598  19.530  0.00  0.00    +0.000 A 
ATOM     13  C   UNL     1       1.831   3.050  20.801  0.00  0.00    +0.000 A 
ATOM     14  C   UNL     1       2.737   3.924  21.387  0.00  0.00    +0.000 A 
ATOM     15  C   UNL     1       3.763   4.365  20.539  0.00  0.00    +0.000 A 
ENDROOT
BRANCH  12  16
ATOM     16  C   UNL     1       1.261   2.997  18.365  0.00  0.00    +0.000 C 
ATOM     17  F   UNL     1       1.906   3.028  17.163  0.00  0.00    +0.000 F 
ATOM     18  F   UNL     1       0.170   2.216  18.202  0.00  0.00    +0.000 F 
ATOM     19  F   UNL     1       0.789   4.276  18.528  0.00  0.00    +0.000 F 
ENDBRANCH  12  16
BRANCH   1  20
ATOM     20  N   UNL     1       2.352   6.171  19.731  0.00  0.00    +0.000 N 
ATOM     21  H   UNL     1       1.617   5.559  19.371  0.00  0.00    +0.000 HD
BRANCH  20  25
ATOM     22  C   UNL     1       1.010  10.183  19.418  0.00  0.00    +0.000 A 
ATOM     23  C   UNL     1       0.882   9.473  20.608  0.00  0.00    +0.000 A 
ATOM     24  C   UNL     1       1.328   8.147  20.672  0.00  0.00    +0.000 A 
ATOM     25  C   UNL     1       1.895   7.495  19.552  0.00  0.00    +0.000 A 
ATOM     26  C   UNL     1       2.091   8.247  18.401  0.00  0.00    +0.000 A 
ATOM     27  C   UNL     1       1.642   9.583  18.332  0.00  0.00    +0.000 A 
BRANCH  22  28
ATOM     28  N   UNL     1       0.515  11.530  19.330  0.00  0.00    +0.000 N 
ATOM     29  H   UNL     1       1.107  12.142  18.757  0.00  0.00    +0.000 HD
BRANCH  28  31
ATOM     30  C   UNL     1      -1.819  12.277  20.367  0.00  0.00    +0.000 C 
ATOM     31  S   UNL     1      -1.094  11.750  18.836  0.00  0.00    +0.000 S 
ATOM     32  O   UNL     1      -1.678  10.484  18.444  0.00  0.00    +0.000 OA
ATOM     33  O   UNL     1      -1.073  12.880  17.932  0.00  0.00    +0.000 OA
ENDBRANCH  28  31
ENDBRANCH  22  28
ENDBRANCH  20  25
ENDBRANCH   1  20
TORSDOF 5
ENDMDL
MODEL 5
REMARK VINA RESULT:      -8.9      1.324      1.689
REMARK  Name = 
REMARK  6 active torsions:
REMARK  status: ('A' for Active; 'I' for Inactive)
REMARK    1  A    between atoms: C_1  and  S_2
REMARK    2  A    between atoms: S_2  and  N_5
REMARK    3  A    between atoms: N_5  and  C_6
REMARK    4  A    between atoms: C_9  and  N_10
REMARK    5  A    between atoms: N_10  and  C_11
REMARK    6  A    between atoms: C_22  and  C_23
REMARK                            x       y       z     vdW  Elec       q    Type
REMARK                         _______ _______ _______ _____ _____    ______ ____
ROOT
ATOM      1  C   UNL     1       3.582   5.586  19.473  0.00  0.00    +0.000 A 
ATOM      2  C   UNL     1       4.446   5.554  18.308  0.00  0.00    +0.000 A 
ATOM      3  C   UNL     1       4.199   6.028  16.991  0.00  0.00    +0.000 A 
ATOM      4  C   UNL     1       5.093   5.750  15.941  0.00  0.00    +0.000 A 
ATOM      5  C   UNL     1       6.297   5.104  16.199  0.00  0.00    +0.000 A 
ATOM      6 CL   UNL     1       7.394   4.746  14.923  0.00  0.00    +0.000 Cl
ATOM      7  C   UNL     1       6.563   4.631  17.469  0.00  0.00    +0.000 A 
ATOM      8  C   UNL     1       5.593   4.734  18.439  0.00  0.00    +0.000 A 
ATOM      9  N   UNL     1       5.646   3.790  19.365  0.00  0.00    +0.000 NA
ATOM     10  C   UNL     1       4.467   3.516  19.901  0.00  0.00    +0.000 A 
ATOM     11  C   UNL     1       3.638   2.595  19.259  0.00  0.00    +0.000 A 
ATOM     12  C   UNL     1       2.252   2.687  19.468  0.00  0.00    +0.000 A 
ATOM     13  C   UNL     1       1.862   3.173  20.713  0.00  0.00    +0.000 A 
ATOM     14  C   UNL     1       2.726   4.097  21.286  0.00  0.00    +0.000 A 
ATOM     15  C   UNL     1       3.759   4.539  20.447  0.00  0.00    +0.000 A 
ENDROOT
BRANCH  12  16
ATOM     16  C   UNL     1       1.354   3.014  18.268  0.00  0.00    +0.000 C 
ATOM     17  F   UNL     1       0.229   2.243  18.214  0.00  0.00    +0.000 F 
ATOM     18  F   UNL     1       0.950   4.301  18.190  0.00  0.00    +0.000 F 
ATOM     19  F   UNL     1       2.001   2.748  17.086  0.00  0.00    +0.000 F 
ENDBRANCH  12  16
BRANCH   1  20
ATOM     20  N   UNL     1       2.313   6.269  19.540  0.00  0.00    +0.000 N 
ATOM     21  H   UNL     1       1.664   5.751  18.944  0.00  0.00    +0.000 HD
BRANCH  20  25
ATOM     22  C   UNL     1       0.982  10.284  19.859  0.00  0.00    +0.000 A 
ATOM     23  C   UNL     1       0.980   9.436  20.963  0.00  0.00    +0.000 A 
ATOM     24  C   UNL     1       1.418   8.114  20.819  0.00  0.00    +0.000 A 
ATOM     25  C   UNL     1       1.851   7.602  19.572  0.00  0.00    +0.000 A 
ATOM     26  C   UNL     1       1.925   8.488  18.505  0.00  0.00    +0.000 A 
ATOM     27  C   UNL     1       1.485   9.821  18.647  0.00  0.00    +0.000 A 
BRANCH  22  28
ATOM     28  N   UNL     1       0.493  11.629  19.988  0.00  0.00    +0.000 N 
ATOM     29  H   UNL     1       0.798  12.245  19.226  0.00  0.00    +0.000 HD
BRANCH  28  31
ATOM     30  C   UNL     1      -1.322  13.565  19.778  0.00  0.00    +0.000 C 
ATOM     31  S   UNL     1      -1.177  11.847  20.200  0.00  0.00    +0.000 S 
ATOM     32  O   UNL     1      -1.536  11.666  21.590  0.00  0.00    +0.000 OA
ATOM     33  O   UNL     1      -1.806  11.070  19.153  0.00  0.00    +0.000 OA
ENDBRANCH  28  31
ENDBRANCH  22  28
ENDBRANCH  20  25
ENDBRANCH   1  20
TORSDOF 5
ENDMDL
MODEL 6
REMARK VINA RESULT:      -8.8      1.398      1.652
REMARK  Name = 
REMARK  6 active torsions:
REMARK  status: ('A' for Active; 'I' for Inactive)
REMARK    1  A    between atoms: C_1  and  S_2
REMARK    2  A    between atoms: S_2  and  N_5
REMARK    3  A    between atoms: N_5  and  C_6
REMARK    4  A    between atoms: C_9  and  N_10
REMARK    5  A    between atoms: N_10  and  C_11
REMARK    6  A    between atoms: C_22  and  C_23
REMARK                            x       y       z     vdW  Elec       q    Type
REMARK                         _______ _______ _______ _____ _____    ______ ____
ROOT
ATOM      1  C   UNL     1       3.463   5.290  19.808  0.00  0.00    +0.000 A 
ATOM      2  C   UNL     1       4.305   5.302  18.627  0.00  0.00    +0.000 A 
ATOM      3  C   UNL     1       4.055   5.869  17.349  0.00  0.00    +0.000 A 
ATOM      4  C   UNL     1       4.920   5.628  16.266  0.00  0.00    +0.000 A 
ATOM      5  C   UNL     1       6.104   4.925  16.460  0.00  0.00    +0.000 A 
ATOM      6 CL   UNL     1       7.166   4.611  15.144  0.00  0.00    +0.000 Cl
ATOM      7  C   UNL     1       6.373   4.362  17.692  0.00  0.00    +0.000 A 
ATOM      8  C   UNL     1       5.424   4.436  18.685  0.00  0.00    +0.000 A 
ATOM      9  N   UNL     1       5.457   3.433  19.547  0.00  0.00    +0.000 NA
ATOM     10  C   UNL     1       4.278   3.166  20.086  0.00  0.00    +0.000 A 
ATOM     11  C   UNL     1       3.406   2.319  19.402  0.00  0.00    +0.000 A 
ATOM     12  C   UNL     1       2.027   2.446  19.642  0.00  0.00    +0.000 A 
ATOM     13  C   UNL     1       1.676   2.864  20.923  0.00  0.00    +0.000 A 
ATOM     14  C   UNL     1       2.582   3.718  21.538  0.00  0.00    +0.000 A 
ATOM     15  C   UNL     1       3.617   4.177  20.710  0.00  0.00    +0.000 A 
ENDROOT
BRANCH  12  16
ATOM     16  C   UNL     1       1.123   2.881  18.482  0.00  0.00    +0.000 C 
ATOM     17  F   UNL     1       1.802   3.065  17.313  0.00  0.00    +0.000 F 
ATOM     18  F   UNL     1       0.098   2.043  18.211  0.00  0.00    +0.000 F 
ATOM     19  F   UNL     1       0.554   4.104  18.737  0.00  0.00    +0.000 F 
ENDBRANCH  12  16
BRANCH   1  20
ATOM     20  N   UNL     1       2.220   6.011  19.942  0.00  0.00    +0.000 N 
ATOM     21  H   UNL     1       1.530   5.528  19.363  0.00  0.00    +0.000 HD
BRANCH  20  25
ATOM     22  C   UNL     1       0.931  10.052  19.958  0.00  0.00    +0.000 A 
ATOM     23  C   UNL     1       1.480   9.477  18.816  0.00  0.00    +0.000 A 
ATOM     24  C   UNL     1       1.903   8.143  18.849  0.00  0.00    +0.000 A 
ATOM     25  C   UNL     1       1.804   7.358  20.022  0.00  0.00    +0.000 A 
ATOM     26  C   UNL     1       1.177   7.924  21.124  0.00  0.00    +0.000 A 
ATOM     27  C   UNL     1       0.749   9.269  21.094  0.00  0.00    +0.000 A 
BRANCH  22  28
ATOM     28  N   UNL     1       0.534  11.434  19.945  0.00  0.00    +0.000 N 
ATOM     29  H   UNL     1       1.145  12.025  19.370  0.00  0.00    +0.000 HD
BRANCH  28  31
ATOM     30  C   UNL     1      -0.808  12.982  18.246  0.00  0.00    +0.000 C 
ATOM     31  S   UNL     1      -1.074  11.791  19.535  0.00  0.00    +0.000 S 
ATOM     32  O   UNL     1      -1.746  12.433  20.644  0.00  0.00    +0.000 OA
ATOM     33  O   UNL     1      -1.599  10.584  18.934  0.00  0.00    +0.000 OA
ENDBRANCH  28  31
ENDBRANCH  22  28
ENDBRANCH  20  25
ENDBRANCH   1  20
TORSDOF 5
ENDMDL
MODEL 7
REMARK VINA RESULT:      -8.7      1.360      1.663
REMARK  Name = 
REMARK  6 active torsions:
REMARK  status: ('A' for Active; 'I' for Inactive)
REMARK    1  A    between atoms: C_1  and  S_2
REMARK    2  A    between atoms: S_2  and  N_5
REMARK    3  A    between atoms: N_5  and  C_6
REMARK    4  A    between atoms: C_9  and  N_10
REMARK    5  A    between atoms: N_10  and  C_11
REMARK    6  A    between atoms: C_22  and  C_23
REMARK                            x       y       z     vdW  Elec       q    Type
REMARK                         _______ _______ _______ _____ _____    ______ ____
ROOT
ATOM      1  C   UNL     1       3.593   5.553  19.510  0.00  0.00    +0.000 A 
ATOM      2  C   UNL     1       4.451   5.519  18.340  0.00  0.00    +0.000 A 
ATOM      3  C   UNL     1       4.206   6.011  17.030  0.00  0.00    +0.000 A 
ATOM      4  C   UNL     1       5.091   5.730  15.972  0.00  0.00    +0.000 A 
ATOM      5  C   UNL     1       6.286   5.063  16.218  0.00  0.00    +0.000 A 
ATOM      6 CL   UNL     1       7.371   4.700  14.934  0.00  0.00    +0.000 Cl
ATOM      7  C   UNL     1       6.549   4.572  17.482  0.00  0.00    +0.000 A 
ATOM      8  C   UNL     1       5.586   4.680  18.458  0.00  0.00    +0.000 A 
ATOM      9  N   UNL     1       5.628   3.726  19.373  0.00  0.00    +0.000 NA
ATOM     10  C   UNL     1       4.447   3.465  19.912  0.00  0.00    +0.000 A 
ATOM     11  C   UNL     1       3.601   2.564  19.264  0.00  0.00    +0.000 A 
ATOM     12  C   UNL     1       2.217   2.675  19.480  0.00  0.00    +0.000 A 
ATOM     13  C   UNL     1       1.841   3.155  20.732  0.00  0.00    +0.000 A 
ATOM     14  C   UNL     1       2.721   4.059  21.311  0.00  0.00    +0.000 A 
ATOM     15  C   UNL     1       3.757   4.494  20.472  0.00  0.00    +0.000 A 
ENDROOT
BRANCH  12  16
ATOM     16  C   UNL     1       1.320   3.028  18.288  0.00  0.00    +0.000 C 
ATOM     17  F   UNL     1       0.195   2.258  18.216  0.00  0.00    +0.000 F 
ATOM     18  F   UNL     1       0.914   4.316  18.239  0.00  0.00    +0.000 F 
ATOM     19  F   UNL     1       1.967   2.791  17.100  0.00  0.00    +0.000 F 
ENDBRANCH  12  16
BRANCH   1  20
ATOM     20  N   UNL     1       2.334   6.255  19.589  0.00  0.00    +0.000 N 
ATOM     21  H   UNL     1       1.640   5.677  19.112  0.00  0.00    +0.000 HD
BRANCH  20  25
ATOM     22  C   UNL     1       1.010  10.284  19.526  0.00  0.00    +0.000 A 
ATOM     23  C   UNL     1       0.909   9.512  20.680  0.00  0.00    +0.000 A 
ATOM     24  C   UNL     1       1.348   8.182  20.662  0.00  0.00    +0.000 A 
ATOM     25  C   UNL     1       1.881   7.588  19.493  0.00  0.00    +0.000 A 
ATOM     26  C   UNL     1       2.051   8.400  18.379  0.00  0.00    +0.000 A 
ATOM     27  C   UNL     1       1.609   9.740  18.394  0.00  0.00    +0.000 A 
BRANCH  22  28
ATOM     28  N   UNL     1       0.521  11.636  19.523  0.00  0.00    +0.000 N 
ATOM     29  H   UNL     1       1.133  12.286  19.017  0.00  0.00    +0.000 HD
BRANCH  28  31
ATOM     30  C   UNL     1      -1.450  10.296  18.340  0.00  0.00    +0.000 C 
ATOM     31  S   UNL     1      -1.071  11.900  18.998  0.00  0.00    +0.000 S 
ATOM     32  O   UNL     1      -1.092  12.871  17.924  0.00  0.00    +0.000 OA
ATOM     33  O   UNL     1      -1.852  12.092  20.201  0.00  0.00    +0.000 OA
ENDBRANCH  28  31
ENDBRANCH  22  28
ENDBRANCH  20  25
ENDBRANCH   1  20
TORSDOF 5
ENDMDL
