MODEL 1
REMARK VINA RESULT:      -8.5      0.000      0.000
REMARK  Name = 
REMARK  9 active torsions:
REMARK  status: ('A' for Active; 'I' for Inactive)
REMARK    1  A    between atoms: O_1  and  C_2
REMARK    2  A    between atoms: C_3  and  O_4
REMARK    3  A    between atoms: O_4  and  C_5
REMARK    4  A    between atoms: C_5  and  C_6
REMARK    5  A    between atoms: C_12  and  C_13
REMARK    6  A    between atoms: C_13  and  C_14
REMARK    7  A    between atoms: N_16  and  C_17
REMARK    8  A    between atoms: C_17  and  C_18
REMARK    9  A    between atoms: C_28  and  O_29
REMARK                            x       y       z     vdW  Elec       q    Type
REMARK                         _______ _______ _______ _____ _____    ______ ____
ROOT
ATOM      1  C   UNL     1       5.514   5.240  15.909  0.00  0.00    +0.000 C 
ATOM      2  C   UNL     1       4.442   4.961  17.002  0.00  0.00    +0.000 C 
ATOM      3  C   UNL     1       4.550   6.080  18.093  0.00  0.00    +0.000 C 
ATOM      4  N   UNL     1       5.904   6.133  18.697  0.00  0.00    +0.000 NA
ATOM      5  C   UNL     1       6.921   6.404  17.667  0.00  0.00    +0.000 C 
ATOM      6  C   UNL     1       6.918   5.363  16.536  0.00  0.00    +0.000 C 
ATOM      7  H   UNL     1       6.117   5.230  19.126  0.00  0.00    +0.000 HD
ENDROOT
BRANCH   1   8
ATOM      8  O   UNL     1       5.210   6.442  15.188  0.00  0.00    +0.000 OA
ATOM      9  H   UNL     1       5.175   6.217  14.241  0.00  0.00    +0.000 HD
ENDBRANCH   1   8
BRANCH   6  10
ATOM     10  O   UNL     1       7.369   4.100  17.043  0.00  0.00    +0.000 OA
ATOM     11  H   UNL     1       7.246   3.446  16.326  0.00  0.00    +0.000 HD
ENDBRANCH   6  10
BRANCH   2  12
ATOM     12  O   UNL     1       4.678   3.628  17.513  0.00  0.00    +0.000 OA
BRANCH  12  13
ATOM     13  C   UNL     1       3.502   2.811  17.532  0.00  0.00    +0.000 C 
BRANCH  13  14
ATOM     14  C   UNL     1       2.716   2.881  18.812  0.00  0.00    +0.000 A 
ATOM     15  C   UNL     1       1.361   3.223  18.859  0.00  0.00    +0.000 A 
ATOM     16  C   UNL     1       0.685   3.221  20.080  0.00  0.00    +0.000 A 
ATOM     17  C   UNL     1       1.354   2.894  21.262  0.00  0.00    +0.000 A 
ATOM     18  C   UNL     1       2.709   2.584  21.230  0.00  0.00    +0.000 A 
ATOM     19  C   UNL     1       3.388   2.588  20.014  0.00  0.00    +0.000 A 
ENDBRANCH  13  14
ENDBRANCH  12  13
ENDBRANCH   2  12
BRANCH   3  20
ATOM     20  C   UNL     1       3.533   6.025  19.251  0.00  0.00    +0.000 C 
BRANCH  20  21
ATOM     21  C   UNL     1       2.604   7.186  19.287  0.00  0.00    +0.000 A 
ATOM     22  C   UNL     1       2.305   8.081  18.286  0.00  0.00    +0.000 A 
ATOM     23  N   UNL     1       1.468   8.977  18.877  0.00  0.00    +0.000 N 
ATOM     24  N   UNL     1       1.223   8.640  20.161  0.00  0.00    +0.000 NA
ATOM     25  N   UNL     1       1.924   7.546  20.423  0.00  0.00    +0.000 NA
BRANCH  23  26
ATOM     26  C   UNL     1       1.089  10.278  18.367  0.00  0.00    +0.000 C 
BRANCH  26  27
ATOM     27  C   UNL     1      -0.397  10.529  18.384  0.00  0.00    +0.000 A 
ATOM     28  C   UNL     1      -0.950  11.529  19.197  0.00  0.00    +0.000 A 
ATOM     29  C   UNL     1      -2.301  11.865  19.088  0.00  0.00    +0.000 A 
ATOM     30  C   UNL     1      -3.115  11.204  18.171  0.00  0.00    +0.000 A 
ATOM     31  C   UNL     1      -2.588  10.181  17.385  0.00  0.00    +0.000 A 
ATOM     32  C   UNL     1      -1.238   9.843  17.493  0.00  0.00    +0.000 A 
ENDBRANCH  26  27
ENDBRANCH  23  26
ENDBRANCH  20  21
ENDBRANCH   3  20
TORSDOF 9
ENDMDL
MODEL 2
REMARK VINA RESULT:      -8.3      0.855      1.614
REMARK  Name = 
REMARK  9 active torsions:
REMARK  status: ('A' for Active; 'I' for Inactive)
REMARK    1  A    between atoms: O_1  and  C_2
REMARK    2  A    between atoms: C_3  and  O_4
REMARK    3  A    between atoms: O_4  and  C_5
REMARK    4  A    between atoms: C_5  and  C_6
REMARK    5  A    between atoms: C_12  and  C_13
REMARK    6  A    between atoms: C_13  and  C_14
REMARK    7  A    between atoms: N_16  and  C_17
REMARK    8  A    between atoms: C_17  and  C_18
REMARK    9  A    between atoms: C_28  and  O_29
REMARK                            x       y       z     vdW  Elec       q    Type
REMARK                         _______ _______ _______ _____ _____    ______ ____
ROOT
ATOM      1  C   UNL     1       6.057   4.623  15.890  0.00  0.00    +0.000 C 
ATOM      2  C   UNL     1       4.705   4.485  16.649  0.00  0.00    +0.000 C 
ATOM      3  C   UNL     1       4.349   5.876  17.275  0.00  0.00    +0.000 C 
ATOM      4  N   UNL     1       5.411   6.356  18.192  0.00  0.00    +0.000 NA
ATOM      5  C   UNL     1       6.691   6.495  17.477  0.00  0.00    +0.000 C 
ATOM      6  C   UNL     1       7.152   5.184  16.819  0.00  0.00    +0.000 C 
ATOM      7  H   UNL     1       5.538   5.676  18.945  0.00  0.00    +0.000 HD
ENDROOT
BRANCH   1   8
ATOM      8  O   UNL     1       5.919   5.479  14.748  0.00  0.00    +0.000 OA
ATOM      9  H   UNL     1       5.747   6.381  15.074  0.00  0.00    +0.000 HD
ENDBRANCH   1   8
BRANCH   6  10
ATOM     10  O   UNL     1       7.506   4.235  17.834  0.00  0.00    +0.000 OA
ATOM     11  H   UNL     1       7.345   3.345  17.459  0.00  0.00    +0.000 HD
ENDBRANCH   6  10
BRANCH   2  12
ATOM     12  O   UNL     1       4.861   3.431  17.627  0.00  0.00    +0.000 OA
BRANCH  12  13
ATOM     13  C   UNL     1       3.744   2.535  17.680  0.00  0.00    +0.000 C 
BRANCH  13  14
ATOM     14  C   UNL     1       2.888   2.680  18.908  0.00  0.00    +0.000 A 
ATOM     15  C   UNL     1       3.411   2.712  20.204  0.00  0.00    +0.000 A 
ATOM     16  C   UNL     1       2.558   2.897  21.294  0.00  0.00    +0.000 A 
ATOM     17  C   UNL     1       1.182   3.036  21.102  0.00  0.00    +0.000 A 
ATOM     18  C   UNL     1       0.649   2.974  19.820  0.00  0.00    +0.000 A 
ATOM     19  C   UNL     1       1.495   2.786  18.731  0.00  0.00    +0.000 A 
ENDBRANCH  13  14
ENDBRANCH  12  13
ENDBRANCH   2  12
BRANCH   3  20
ATOM     20  C   UNL     1       3.009   5.978  18.031  0.00  0.00    +0.000 C 
BRANCH  20  21
ATOM     21  C   UNL     1       2.565   7.376  18.277  0.00  0.00    +0.000 A 
ATOM     22  C   UNL     1       1.960   7.904  19.395  0.00  0.00    +0.000 A 
ATOM     23  N   UNL     1       1.700   9.196  19.055  0.00  0.00    +0.000 N 
ATOM     24  N   UNL     1       2.152   9.473  17.814  0.00  0.00    +0.000 NA
ATOM     25  N   UNL     1       2.677   8.359  17.326  0.00  0.00    +0.000 NA
BRANCH  23  26
ATOM     26  C   UNL     1       0.817  10.113  19.745  0.00  0.00    +0.000 C 
BRANCH  26  27
ATOM     27  C   UNL     1      -0.343  10.587  18.908  0.00  0.00    +0.000 A 
ATOM     28  C   UNL     1      -1.222   9.672  18.311  0.00  0.00    +0.000 A 
ATOM     29  C   UNL     1      -2.383  10.117  17.674  0.00  0.00    +0.000 A 
ATOM     30  C   UNL     1      -2.675  11.477  17.621  0.00  0.00    +0.000 A 
ATOM     31  C   UNL     1      -1.790  12.400  18.175  0.00  0.00    +0.000 A 
ATOM     32  C   UNL     1      -0.629  11.959  18.812  0.00  0.00    +0.000 A 
ENDBRANCH  26  27
ENDBRANCH  23  26
ENDBRANCH  20  21
ENDBRANCH   3  20
TORSDOF 9
ENDMDL
MODEL 3
REMARK VINA RESULT:      -8.3      1.717      4.434
REMARK  Name = 
REMARK  9 active torsions:
REMARK  status: ('A' for Active; 'I' for Inactive)
REMARK    1  A    between atoms: O_1  and  C_2
REMARK    2  A    between atoms: C_3  and  O_4
REMARK    3  A    between atoms: O_4  and  C_5
REMARK    4  A    between atoms: C_5  and  C_6
REMARK    5  A    between atoms: C_12  and  C_13
REMARK    6  A    between atoms: C_13  and  C_14
REMARK    7  A    between atoms: N_16  and  C_17
REMARK    8  A    between atoms: C_17  and  C_18
REMARK    9  A    between atoms: C_28  and  O_29
REMARK                            x       y       z     vdW  Elec       q    Type
REMARK                         _______ _______ _______ _____ _____    ______ ____
ROOT
ATOM      1  C   UNL     1       2.911   2.789  20.722  0.00  0.00    +0.000 C 
ATOM      2  C   UNL     1       3.653   3.991  20.068  0.00  0.00    +0.000 C 
ATOM      3  C   UNL     1       2.582   5.031  19.593  0.00  0.00    +0.000 C 
ATOM      4  N   UNL     1       1.621   4.433  18.635  0.00  0.00    +0.000 NA
ATOM      5  C   UNL     1       0.910   3.299  19.251  0.00  0.00    +0.000 C 
ATOM      6  C   UNL     1       1.862   2.202  19.756  0.00  0.00    +0.000 C 
ATOM      7  H   UNL     1       2.130   4.085  17.820  0.00  0.00    +0.000 HD
ENDROOT
BRANCH   1   8
ATOM      8  O   UNL     1       2.266   3.186  21.939  0.00  0.00    +0.000 OA
ATOM      9  H   UNL     1       2.913   3.690  22.466  0.00  0.00    +0.000 HD
ENDBRANCH   1   8
BRANCH   6  10
ATOM     10  O   UNL     1       2.490   1.559  18.640  0.00  0.00    +0.000 OA
ATOM     11  H   UNL     1       1.774   1.270  18.038  0.00  0.00    +0.000 HD
ENDBRANCH   6  10
BRANCH   2  12
ATOM     12  O   UNL     1       4.469   3.467  18.995  0.00  0.00    +0.000 OA
BRANCH  12  13
ATOM     13  C   UNL     1       5.627   4.264  18.720  0.00  0.00    +0.000 C 
BRANCH  13  14
ATOM     14  C   UNL     1       5.925   4.446  17.257  0.00  0.00    +0.000 A 
ATOM     15  C   UNL     1       7.191   4.787  16.772  0.00  0.00    +0.000 A 
ATOM     16  C   UNL     1       7.405   4.892  15.397  0.00  0.00    +0.000 A 
ATOM     17  C   UNL     1       6.359   4.672  14.498  0.00  0.00    +0.000 A 
ATOM     18  C   UNL     1       5.089   4.363  14.971  0.00  0.00    +0.000 A 
ATOM     19  C   UNL     1       4.871   4.261  16.343  0.00  0.00    +0.000 A 
ENDBRANCH  13  14
ENDBRANCH  12  13
ENDBRANCH   2  12
BRANCH   3  20
ATOM     20  C   UNL     1       3.108   6.335  18.961  0.00  0.00    +0.000 C 
BRANCH  20  21
ATOM     21  C   UNL     1       2.236   7.514  19.206  0.00  0.00    +0.000 A 
ATOM     22  C   UNL     1       1.834   8.488  18.321  0.00  0.00    +0.000 A 
ATOM     23  N   UNL     1       1.120   9.360  19.084  0.00  0.00    +0.000 N 
ATOM     24  N   UNL     1       1.043   8.936  20.363  0.00  0.00    +0.000 NA
ATOM     25  N   UNL     1       1.732   7.808  20.449  0.00  0.00    +0.000 NA
BRANCH  23  26
ATOM     26  C   UNL     1       0.722  10.704  18.723  0.00  0.00    +0.000 C 
BRANCH  26  27
ATOM     27  C   UNL     1      -0.739  10.833  18.373  0.00  0.00    +0.000 A 
ATOM     28  C   UNL     1      -1.343   9.949  17.467  0.00  0.00    +0.000 A 
ATOM     29  C   UNL     1      -2.726   9.971  17.272  0.00  0.00    +0.000 A 
ATOM     30  C   UNL     1      -3.518  10.878  17.973  0.00  0.00    +0.000 A 
ATOM     31  C   UNL     1      -2.926  11.788  18.845  0.00  0.00    +0.000 A 
ATOM     32  C   UNL     1      -1.544  11.769  19.042  0.00  0.00    +0.000 A 
ENDBRANCH  26  27
ENDBRANCH  23  26
ENDBRANCH  20  21
ENDBRANCH   3  20
TORSDOF 9
ENDMDL
MODEL 4
REMARK VINA RESULT:      -8.3      1.152      1.550
REMARK  Name = 
REMARK  9 active torsions:
REMARK  status: ('A' for Active; 'I' for Inactive)
REMARK    1  A    between atoms: O_1  and  C_2
REMARK    2  A    between atoms: C_3  and  O_4
REMARK    3  A    between atoms: O_4  and  C_5
REMARK    4  A    between atoms: C_5  and  C_6
REMARK    5  A    between atoms: C_12  and  C_13
REMARK    6  A    between atoms: C_13  and  C_14
REMARK    7  A    between atoms: N_16  and  C_17
REMARK    8  A    between atoms: C_17  and  C_18
REMARK    9  A    between atoms: C_28  and  O_29
REMARK                            x       y       z     vdW  Elec       q    Type
REMARK                         _______ _______ _______ _____ _____    ______ ____
ROOT
ATOM      1  C   UNL     1       7.080   4.422  17.636  0.00  0.00    +0.000 C 
ATOM      2  C   UNL     1       5.566   4.188  17.908  0.00  0.00    +0.000 C 
ATOM      3  C   UNL     1       4.780   5.460  17.439  0.00  0.00    +0.000 C 
ATOM      4  N   UNL     1       5.248   6.684  18.133  0.00  0.00    +0.000 NA
ATOM      5  C   UNL     1       6.680   6.914  17.873  0.00  0.00    +0.000 C 
ATOM      6  C   UNL     1       7.561   5.729  18.299  0.00  0.00    +0.000 C 
ATOM      7  H   UNL     1       5.122   6.569  19.141  0.00  0.00    +0.000 HD
ENDROOT
BRANCH   1   8
ATOM      8  O   UNL     1       7.345   4.479  16.228  0.00  0.00    +0.000 OA
ATOM      9  H   UNL     1       7.208   5.399  15.939  0.00  0.00    +0.000 HD
ENDBRANCH   1   8
BRANCH   6  10
ATOM     10  O   UNL     1       7.557   5.616  19.728  0.00  0.00    +0.000 OA
ATOM     11  H   UNL     1       6.793   5.052  19.966  0.00  0.00    +0.000 HD
ENDBRANCH   6  10
BRANCH   2  12
ATOM     12  O   UNL     1       5.416   3.902  19.319  0.00  0.00    +0.000 OA
BRANCH  12  13
ATOM     13  C   UNL     1       4.747   2.662  19.578  0.00  0.00    +0.000 C 
BRANCH  13  14
ATOM     14  C   UNL     1       3.248   2.760  19.615  0.00  0.00    +0.000 A 
ATOM     15  C   UNL     1       2.421   2.201  18.635  0.00  0.00    +0.000 A 
ATOM     16  C   UNL     1       1.034   2.291  18.761  0.00  0.00    +0.000 A 
ATOM     17  C   UNL     1       0.461   2.949  19.852  0.00  0.00    +0.000 A 
ATOM     18  C   UNL     1       1.275   3.536  20.815  0.00  0.00    +0.000 A 
ATOM     19  C   UNL     1       2.659   3.451  20.691  0.00  0.00    +0.000 A 
ENDBRANCH  13  14
ENDBRANCH  12  13
ENDBRANCH   2  12
BRANCH   3  20
ATOM     20  C   UNL     1       3.245   5.418  17.568  0.00  0.00    +0.000 C 
BRANCH  20  21
ATOM     21  C   UNL     1       2.661   6.643  18.177  0.00  0.00    +0.000 A 
ATOM     22  C   UNL     1       2.239   7.797  17.557  0.00  0.00    +0.000 A 
ATOM     23  N   UNL     1       1.874   8.613  18.582  0.00  0.00    +0.000 N 
ATOM     24  N   UNL     1       2.018   7.994  19.773  0.00  0.00    +0.000 NA
ATOM     25  N   UNL     1       2.509   6.787  19.534  0.00  0.00    +0.000 NA
BRANCH  23  26
ATOM     26  C   UNL     1       1.636  10.040  18.512  0.00  0.00    +0.000 C 
BRANCH  26  27
ATOM     27  C   UNL     1       0.186  10.423  18.659  0.00  0.00    +0.000 A 
ATOM     28  C   UNL     1      -0.223  11.331  19.647  0.00  0.00    +0.000 A 
ATOM     29  C   UNL     1      -1.537  11.805  19.674  0.00  0.00    +0.000 A 
ATOM     30  C   UNL     1      -2.456  11.374  18.721  0.00  0.00    +0.000 A 
ATOM     31  C   UNL     1      -2.074  10.442  17.759  0.00  0.00    +0.000 A 
ATOM     32  C   UNL     1      -0.762   9.966  17.730  0.00  0.00    +0.000 A 
ENDBRANCH  26  27
ENDBRANCH  23  26
ENDBRANCH  20  21
ENDBRANCH   3  20
TORSDOF 9
ENDMDL
MODEL 5
REMARK VINA RESULT:      -8.2      1.625      2.393
REMARK  Name = 
REMARK  9 active torsions:
REMARK  status: ('A' for Active; 'I' for Inactive)
REMARK    1  A    between atoms: O_1  and  C_2
REMARK    2  A    between atoms: C_3  and  O_4
REMARK    3  A    between atoms: O_4  and  C_5
REMARK    4  A    between atoms: C_5  and  C_6
REMARK    5  A    between atoms: C_12  and  C_13
REMARK    6  A    between atoms: C_13  and  C_14
REMARK    7  A    between atoms: N_16  and  C_17
REMARK    8  A    between atoms: C_17  and  C_18
REMARK    9  A    between atoms: C_28  and  O_29
REMARK                            x       y       z     vdW  Elec       q    Type
REMARK                         _______ _______ _______ _____ _____    ______ ____
ROOT
ATOM      1  C   UNL     1       6.045   4.845  15.976  0.00  0.00    +0.000 C 
ATOM      2  C   UNL     1       4.715   4.717  16.775  0.00  0.00    +0.000 C 
ATOM      3  C   UNL     1       4.451   6.074  17.511  0.00  0.00    +0.000 C 
ATOM      4  N   UNL     1       5.567   6.435  18.418  0.00  0.00    +0.000 NA
ATOM      5  C   UNL     1       6.827   6.565  17.667  0.00  0.00    +0.000 C 
ATOM      6  C   UNL     1       7.198   5.285  16.900  0.00  0.00    +0.000 C 
ATOM      7  H   UNL     1       5.686   5.697  19.116  0.00  0.00    +0.000 HD
ENDROOT
BRANCH   1   8
ATOM      8  O   UNL     1       5.910   5.787  14.904  0.00  0.00    +0.000 OA
ATOM      9  H   UNL     1       6.591   5.578  14.240  0.00  0.00    +0.000 HD
ENDBRANCH   1   8
BRANCH   6  10
ATOM     10  O   UNL     1       7.539   4.249  17.830  0.00  0.00    +0.000 OA
ATOM     11  H   UNL     1       6.762   3.658  17.895  0.00  0.00    +0.000 HD
ENDBRANCH   6  10
BRANCH   2  12
ATOM     12  O   UNL     1       4.851   3.588  17.669  0.00  0.00    +0.000 OA
BRANCH  12  13
ATOM     13  C   UNL     1       3.721   2.709  17.651  0.00  0.00    +0.000 C 
BRANCH  13  14
ATOM     14  C   UNL     1       2.882   2.747  18.898  0.00  0.00    +0.000 A 
ATOM     15  C   UNL     1       3.426   2.720  20.186  0.00  0.00    +0.000 A 
ATOM     16  C   UNL     1       2.586   2.807  21.297  0.00  0.00    +0.000 A 
ATOM     17  C   UNL     1       1.203   2.905  21.136  0.00  0.00    +0.000 A 
ATOM     18  C   UNL     1       0.650   2.900  19.860  0.00  0.00    +0.000 A 
ATOM     19  C   UNL     1       1.484   2.810  18.749  0.00  0.00    +0.000 A 
ENDBRANCH  13  14
ENDBRANCH  12  13
ENDBRANCH   2  12
BRANCH   3  20
ATOM     20  C   UNL     1       3.145   6.185  18.323  0.00  0.00    +0.000 C 
BRANCH  20  21
ATOM     21  C   UNL     1       2.551   7.548  18.320  0.00  0.00    +0.000 A 
ATOM     22  C   UNL     1       1.551   8.055  19.118  0.00  0.00    +0.000 A 
ATOM     23  N   UNL     1       1.346   9.313  18.640  0.00  0.00    +0.000 N 
ATOM     24  N   UNL     1       2.195   9.593  17.629  0.00  0.00    +0.000 NA
ATOM     25  N   UNL     1       2.933   8.512  17.420  0.00  0.00    +0.000 NA
BRANCH  23  26
ATOM     26  C   UNL     1       0.215  10.173  18.919  0.00  0.00    +0.000 C 
BRANCH  26  27
ATOM     27  C   UNL     1      -0.185  10.199  20.373  0.00  0.00    +0.000 A 
ATOM     28  C   UNL     1      -0.225   9.019  21.130  0.00  0.00    +0.000 A 
ATOM     29  C   UNL     1      -0.437   9.069  22.509  0.00  0.00    +0.000 A 
ATOM     30  C   UNL     1      -0.617  10.295  23.146  0.00  0.00    +0.000 A 
ATOM     31  C   UNL     1      -0.619  11.472  22.400  0.00  0.00    +0.000 A 
ATOM     32  C   UNL     1      -0.407  11.424  21.021  0.00  0.00    +0.000 A 
ENDBRANCH  26  27
ENDBRANCH  23  26
ENDBRANCH  20  21
ENDBRANCH   3  20
TORSDOF 9
ENDMDL
MODEL 6
REMARK VINA RESULT:      -8.2      1.519      2.325
REMARK  Name = 
REMARK  9 active torsions:
REMARK  status: ('A' for Active; 'I' for Inactive)
REMARK    1  A    between atoms: O_1  and  C_2
REMARK    2  A    between atoms: C_3  and  O_4
REMARK    3  A    between atoms: O_4  and  C_5
REMARK    4  A    between atoms: C_5  and  C_6
REMARK    5  A    between atoms: C_12  and  C_13
REMARK    6  A    between atoms: C_13  and  C_14
REMARK    7  A    between atoms: N_16  and  C_17
REMARK    8  A    between atoms: C_17  and  C_18
REMARK    9  A    between atoms: C_28  and  O_29
REMARK                            x       y       z     vdW  Elec       q    Type
REMARK                         _______ _______ _______ _____ _____    ______ ____
ROOT
ATOM      1  C   UNL     1       7.383   4.452  17.891  0.00  0.00    +0.000 C 
ATOM      2  C   UNL     1       5.833   4.330  17.950  0.00  0.00    +0.000 C 
ATOM      3  C   UNL     1       5.213   5.634  17.342  0.00  0.00    +0.000 C 
ATOM      4  N   UNL     1       5.665   6.848  18.064  0.00  0.00    +0.000 NA
ATOM      5  C   UNL     1       7.132   6.972  18.004  0.00  0.00    +0.000 C 
ATOM      6  C   UNL     1       7.858   5.747  18.582  0.00  0.00    +0.000 C 
ATOM      7  H   UNL     1       5.391   6.777  19.046  0.00  0.00    +0.000 HD
ENDROOT
BRANCH   1   8
ATOM      8  O   UNL     1       7.847   4.442  16.534  0.00  0.00    +0.000 OA
ATOM      9  H   UNL     1       8.073   3.522  16.306  0.00  0.00    +0.000 HD
ENDBRANCH   1   8
BRANCH   6  10
ATOM     10  O   UNL     1       7.645   5.685  19.998  0.00  0.00    +0.000 OA
ATOM     11  H   UNL     1       8.502   5.442  20.404  0.00  0.00    +0.000 HD
ENDBRANCH   6  10
BRANCH   2  12
ATOM     12  O   UNL     1       5.467   4.104  19.332  0.00  0.00    +0.000 OA
BRANCH  12  13
ATOM     13  C   UNL     1       4.833   2.838  19.551  0.00  0.00    +0.000 C 
BRANCH  13  14
ATOM     14  C   UNL     1       3.338   2.908  19.694  0.00  0.00    +0.000 A 
ATOM     15  C   UNL     1       2.696   3.136  20.915  0.00  0.00    +0.000 A 
ATOM     16  C   UNL     1       1.305   3.235  20.962  0.00  0.00    +0.000 A 
ATOM     17  C   UNL     1       0.544   3.094  19.800  0.00  0.00    +0.000 A 
ATOM     18  C   UNL     1       1.170   2.835  18.586  0.00  0.00    +0.000 A 
ATOM     19  C   UNL     1       2.557   2.732  18.536  0.00  0.00    +0.000 A 
ENDBRANCH  13  14
ENDBRANCH  12  13
ENDBRANCH   2  12
BRANCH   3  20
ATOM     20  C   UNL     1       3.676   5.699  17.252  0.00  0.00    +0.000 C 
BRANCH  20  21
ATOM     21  C   UNL     1       3.070   6.757  18.103  0.00  0.00    +0.000 A 
ATOM     22  C   UNL     1       2.571   6.654  19.382  0.00  0.00    +0.000 A 
ATOM     23  N   UNL     1       2.072   7.893  19.646  0.00  0.00    +0.000 N 
ATOM     24  N   UNL     1       2.283   8.734  18.612  0.00  0.00    +0.000 NA
ATOM     25  N   UNL     1       2.888   8.043  17.657  0.00  0.00    +0.000 NA
BRANCH  23  26
ATOM     26  C   UNL     1       1.177   8.255  20.726  0.00  0.00    +0.000 C 
BRANCH  26  27
ATOM     27  C   UNL     1       0.491   9.583  20.529  0.00  0.00    +0.000 A 
ATOM     28  C   UNL     1       0.991  10.747  21.130  0.00  0.00    +0.000 A 
ATOM     29  C   UNL     1       0.449  11.995  20.815  0.00  0.00    +0.000 A 
ATOM     30  C   UNL     1      -0.598  12.094  19.902  0.00  0.00    +0.000 A 
ATOM     31  C   UNL     1      -1.130  10.941  19.328  0.00  0.00    +0.000 A 
ATOM     32  C   UNL     1      -0.591   9.692  19.642  0.00  0.00    +0.000 A 
ENDBRANCH  26  27
ENDBRANCH  23  26
ENDBRANCH  20  21
ENDBRANCH   3  20
TORSDOF 9
ENDMDL
MODEL 7
REMARK VINA RESULT:      -8.1      1.186      1.598
REMARK  Name = 
REMARK  9 active torsions:
REMARK  status: ('A' for Active; 'I' for Inactive)
REMARK    1  A    between atoms: O_1  and  C_2
REMARK    2  A    between atoms: C_3  and  O_4
REMARK    3  A    between atoms: O_4  and  C_5
REMARK    4  A    between atoms: C_5  and  C_6
REMARK    5  A    between atoms: C_12  and  C_13
REMARK    6  A    between atoms: C_13  and  C_14
REMARK    7  A    between atoms: N_16  and  C_17
REMARK    8  A    between atoms: C_17  and  C_18
REMARK    9  A    between atoms: C_28  and  O_29
REMARK                            x       y       z     vdW  Elec       q    Type
REMARK                         _______ _______ _______ _____ _____    ______ ____
ROOT
ATOM      1  C   UNL     1       6.211   4.402  16.862  0.00  0.00    +0.000 C 
ATOM      2  C   UNL     1       4.886   4.429  17.679  0.00  0.00    +0.000 C 
ATOM      3  C   UNL     1       4.194   5.815  17.448  0.00  0.00    +0.000 C 
ATOM      4  N   UNL     1       5.071   6.943  17.846  0.00  0.00    +0.000 NA
ATOM      5  C   UNL     1       6.324   6.926  17.070  0.00  0.00    +0.000 C 
ATOM      6  C   UNL     1       7.101   5.609  17.222  0.00  0.00    +0.000 C 
ATOM      7  H   UNL     1       5.308   6.851  18.836  0.00  0.00    +0.000 HD
ENDROOT
BRANCH   1   8
ATOM      8  O   UNL     1       5.944   4.413  15.453  0.00  0.00    +0.000 OA
ATOM      9  H   UNL     1       6.796   4.314  14.991  0.00  0.00    +0.000 HD
ENDBRANCH   1   8
BRANCH   6  10
ATOM     10  O   UNL     1       7.605   5.498  18.559  0.00  0.00    +0.000 OA
ATOM     11  H   UNL     1       8.571   5.651  18.513  0.00  0.00    +0.000 HD
ENDBRANCH   6  10
BRANCH   2  12
ATOM     12  O   UNL     1       5.223   4.172  19.062  0.00  0.00    +0.000 OA
BRANCH  12  13
ATOM     13  C   UNL     1       4.693   2.936  19.556  0.00  0.00    +0.000 C 
BRANCH  13  14
ATOM     14  C   UNL     1       3.198   2.920  19.715  0.00  0.00    +0.000 A 
ATOM     15  C   UNL     1       2.540   3.492  20.808  0.00  0.00    +0.000 A 
ATOM     16  C   UNL     1       1.145   3.480  20.864  0.00  0.00    +0.000 A 
ATOM     17  C   UNL     1       0.399   2.887  19.843  0.00  0.00    +0.000 A 
ATOM     18  C   UNL     1       1.045   2.287  18.769  0.00  0.00    +0.000 A 
ATOM     19  C   UNL     1       2.436   2.294  18.711  0.00  0.00    +0.000 A 
ENDBRANCH  13  14
ENDBRANCH  12  13
ENDBRANCH   2  12
BRANCH   3  20
ATOM     20  C   UNL     1       2.828   6.035  18.127  0.00  0.00    +0.000 C 
BRANCH  20  21
ATOM     21  C   UNL     1       2.442   7.466  18.248  0.00  0.00    +0.000 A 
ATOM     22  C   UNL     1       1.863   8.115  19.315  0.00  0.00    +0.000 A 
ATOM     23  N   UNL     1       1.655   9.382  18.862  0.00  0.00    +0.000 N 
ATOM     24  N   UNL     1       2.114   9.529  17.601  0.00  0.00    +0.000 NA
ATOM     25  N   UNL     1       2.591   8.356  17.213  0.00  0.00    +0.000 NA
BRANCH  23  26
ATOM     26  C   UNL     1       0.812  10.392  19.468  0.00  0.00    +0.000 C 
BRANCH  26  27
ATOM     27  C   UNL     1      -0.548  10.513  18.829  0.00  0.00    +0.000 A 
ATOM     28  C   UNL     1      -1.464  11.481  19.263  0.00  0.00    +0.000 A 
ATOM     29  C   UNL     1      -2.654  11.695  18.564  0.00  0.00    +0.000 A 
ATOM     30  C   UNL     1      -2.944  10.942  17.429  0.00  0.00    +0.000 A 
ATOM     31  C   UNL     1      -2.061   9.949  17.009  0.00  0.00    +0.000 A 
ATOM     32  C   UNL     1      -0.871   9.733  17.707  0.00  0.00    +0.000 A 
ENDBRANCH  26  27
ENDBRANCH  23  26
ENDBRANCH  20  21
ENDBRANCH   3  20
TORSDOF 9
ENDMDL
MODEL 8
REMARK VINA RESULT:      -8.1      1.322      2.221
REMARK  Name = 
REMARK  9 active torsions:
REMARK  status: ('A' for Active; 'I' for Inactive)
REMARK    1  A    between atoms: O_1  and  C_2
REMARK    2  A    between atoms: C_3  and  O_4
REMARK    3  A    between atoms: O_4  and  C_5
REMARK    4  A    between atoms: C_5  and  C_6
REMARK    5  A    between atoms: C_12  and  C_13
REMARK    6  A    between atoms: C_13  and  C_14
REMARK    7  A    between atoms: N_16  and  C_17
REMARK    8  A    between atoms: C_17  and  C_18
REMARK    9  A    between atoms: C_28  and  O_29
REMARK                            x       y       z     vdW  Elec       q    Type
REMARK                         _______ _______ _______ _____ _____    ______ ____
ROOT
ATOM      1  C   UNL     1       5.746   4.905  15.828  0.00  0.00    +0.000 C 
ATOM      2  C   UNL     1       4.576   4.815  16.850  0.00  0.00    +0.000 C 
ATOM      3  C   UNL     1       4.501   6.171  17.631  0.00  0.00    +0.000 C 
ATOM      4  N   UNL     1       5.774   6.477  18.328  0.00  0.00    +0.000 NA
ATOM      5  C   UNL     1       6.884   6.570  17.364  0.00  0.00    +0.000 C 
ATOM      6  C   UNL     1       7.063   5.289  16.534  0.00  0.00    +0.000 C 
ATOM      7  H   UNL     1       5.986   5.725  18.987  0.00  0.00    +0.000 HD
ENDROOT
BRANCH   1   8
ATOM      8  O   UNL     1       5.460   5.867  14.804  0.00  0.00    +0.000 OA
ATOM      9  H   UNL     1       5.140   6.677  15.240  0.00  0.00    +0.000 HD
ENDBRANCH   1   8
BRANCH   6  10
ATOM     10  O   UNL     1       7.523   4.227  17.381  0.00  0.00    +0.000 OA
ATOM     11  H   UNL     1       6.808   3.560  17.415  0.00  0.00    +0.000 HD
ENDBRANCH   6  10
BRANCH   2  12
ATOM     12  O   UNL     1       4.825   3.670  17.697  0.00  0.00    +0.000 OA
BRANCH  12  13
ATOM     13  C   UNL     1       3.736   2.740  17.730  0.00  0.00    +0.000 C 
BRANCH  13  14
ATOM     14  C   UNL     1       2.907   2.796  18.983  0.00  0.00    +0.000 A 
ATOM     15  C   UNL     1       3.442   2.614  20.262  0.00  0.00    +0.000 A 
ATOM     16  C   UNL     1       2.618   2.728  21.383  0.00  0.00    +0.000 A 
ATOM     17  C   UNL     1       1.258   3.009  21.239  0.00  0.00    +0.000 A 
ATOM     18  C   UNL     1       0.710   3.161  19.970  0.00  0.00    +0.000 A 
ATOM     19  C   UNL     1       1.528   3.044  18.849  0.00  0.00    +0.000 A 
ENDBRANCH  13  14
ENDBRANCH  12  13
ENDBRANCH   2  12
BRANCH   3  20
ATOM     20  C   UNL     1       3.366   6.318  18.664  0.00  0.00    +0.000 C 
BRANCH  20  21
ATOM     21  C   UNL     1       2.614   7.596  18.549  0.00  0.00    +0.000 A 
ATOM     22  C   UNL     1       1.776   8.188  19.466  0.00  0.00    +0.000 A 
ATOM     23  N   UNL     1       1.298   9.288  18.821  0.00  0.00    +0.000 N 
ATOM     24  N   UNL     1       1.836   9.401  17.588  0.00  0.00    +0.000 NA
ATOM     25  N   UNL     1       2.638   8.362  17.410  0.00  0.00    +0.000 NA
BRANCH  23  26
ATOM     26  C   UNL     1       0.163  10.098  19.213  0.00  0.00    +0.000 C 
BRANCH  26  27
ATOM     27  C   UNL     1       0.451  11.578  19.234  0.00  0.00    +0.000 A 
ATOM     28  C   UNL     1      -0.331  12.474  18.492  0.00  0.00    +0.000 A 
ATOM     29  C   UNL     1      -0.163  13.853  18.642  0.00  0.00    +0.000 A 
ATOM     30  C   UNL     1       0.788  14.350  19.530  0.00  0.00    +0.000 A 
ATOM     31  C   UNL     1       1.598  13.470  20.244  0.00  0.00    +0.000 A 
ATOM     32  C   UNL     1       1.434  12.092  20.095  0.00  0.00    +0.000 A 
ENDBRANCH  26  27
ENDBRANCH  23  26
ENDBRANCH  20  21
ENDBRANCH   3  20
TORSDOF 9
ENDMDL
MODEL 9
REMARK VINA RESULT:      -8.1      1.748      2.358
REMARK  Name = 
REMARK  9 active torsions:
REMARK  status: ('A' for Active; 'I' for Inactive)
REMARK    1  A    between atoms: O_1  and  C_2
REMARK    2  A    between atoms: C_3  and  O_4
REMARK    3  A    between atoms: O_4  and  C_5
REMARK    4  A    between atoms: C_5  and  C_6
REMARK    5  A    between atoms: C_12  and  C_13
REMARK    6  A    between atoms: C_13  and  C_14
REMARK    7  A    between atoms: N_16  and  C_17
REMARK    8  A    between atoms: C_17  and  C_18
REMARK    9  A    between atoms: C_28  and  O_29
REMARK                            x       y       z     vdW  Elec       q    Type
REMARK                         _______ _______ _______ _____ _____    ______ ____
ROOT
ATOM      1  C   UNL     1       5.987   4.026  16.585  0.00  0.00    +0.000 C 
ATOM      2  C   UNL     1       4.862   4.143  17.654  0.00  0.00    +0.000 C 
ATOM      3  C   UNL     1       4.533   5.661  17.859  0.00  0.00    +0.000 C 
ATOM      4  N   UNL     1       5.728   6.432  18.279  0.00  0.00    +0.000 NA
ATOM      5  C   UNL     1       6.794   6.331  17.268  0.00  0.00    +0.000 C 
ATOM      6  C   UNL     1       7.210   4.879  16.982  0.00  0.00    +0.000 C 
ATOM      7  H   UNL     1       6.084   6.048  19.157  0.00  0.00    +0.000 HD
ENDROOT
BRANCH   1   8
ATOM      8  O   UNL     1       5.516   4.444  15.297  0.00  0.00    +0.000 OA
ATOM      9  H   UNL     1       6.214   4.988  14.889  0.00  0.00    +0.000 HD
ENDBRANCH   1   8
BRANCH   6  10
ATOM     10  O   UNL     1       7.870   4.332  18.131  0.00  0.00    +0.000 OA
ATOM     11  H   UNL     1       7.291   4.507  18.901  0.00  0.00    +0.000 HD
ENDBRANCH   6  10
BRANCH   2  12
ATOM     12  O   UNL     1       5.331   3.483  18.853  0.00  0.00    +0.000 OA
BRANCH  12  13
ATOM     13  C   UNL     1       4.573   2.316  19.193  0.00  0.00    +0.000 C 
BRANCH  13  14
ATOM     14  C   UNL     1       3.127   2.582  19.506  0.00  0.00    +0.000 A 
ATOM     15  C   UNL     1       2.096   2.385  18.582  0.00  0.00    +0.000 A 
ATOM     16  C   UNL     1       0.771   2.607  18.960  0.00  0.00    +0.000 A 
ATOM     17  C   UNL     1       0.465   3.042  20.252  0.00  0.00    +0.000 A 
ATOM     18  C   UNL     1       1.485   3.272  21.168  0.00  0.00    +0.000 A 
ATOM     19  C   UNL     1       2.808   3.054  20.794  0.00  0.00    +0.000 A 
ENDBRANCH  13  14
ENDBRANCH  12  13
ENDBRANCH   2  12
BRANCH   3  20
ATOM     20  C   UNL     1       3.397   6.002  18.843  0.00  0.00    +0.000 C 
BRANCH  20  21
ATOM     21  C   UNL     1       2.771   7.328  18.599  0.00  0.00    +0.000 A 
ATOM     22  C   UNL     1       1.866   8.011  19.380  0.00  0.00    +0.000 A 
ATOM     23  N   UNL     1       1.569   9.123  18.652  0.00  0.00    +0.000 N 
ATOM     24  N   UNL     1       2.275   9.155  17.503  0.00  0.00    +0.000 NA
ATOM     25  N   UNL     1       3.010   8.053  17.458  0.00  0.00    +0.000 NA
BRANCH  23  26
ATOM     26  C   UNL     1       0.460  10.028  18.867  0.00  0.00    +0.000 C 
BRANCH  26  27
ATOM     27  C   UNL     1       0.003  10.101  20.302  0.00  0.00    +0.000 A 
ATOM     28  C   UNL     1      -0.084   8.943  21.090  0.00  0.00    +0.000 A 
ATOM     29  C   UNL     1      -0.350   9.036  22.458  0.00  0.00    +0.000 A 
ATOM     30  C   UNL     1      -0.537  10.281  23.052  0.00  0.00    +0.000 A 
ATOM     31  C   UNL     1      -0.493  11.436  22.274  0.00  0.00    +0.000 A 
ATOM     32  C   UNL     1      -0.228  11.347  20.906  0.00  0.00    +0.000 A 
ENDBRANCH  26  27
ENDBRANCH  23  26
ENDBRANCH  20  21
ENDBRANCH   3  20
TORSDOF 9
ENDMDL
