MODEL 1
REMARK VINA RESULT:      -7.5      0.000      0.000
REMARK  Name = 
REMARK  4 active torsions:
REMARK  status: ('A' for Active; 'I' for Inactive)
REMARK    1  A    between atoms: C_4  and  O_5
REMARK    2  A    between atoms: O_5  and  C_6
REMARK    3  A    between atoms: C_6  and  C_7
REMARK    4  A    between atoms: C_12  and  N_13
REMARK                            x       y       z     vdW  Elec       q    Type
REMARK                         _______ _______ _______ _____ _____    ______ ____
ROOT
ATOM      1  C   UNL     1       2.768   4.720  18.033  0.00  0.00    +0.000 A 
ATOM      2  C   UNL     1       1.557   4.119  18.437  0.00  0.00    +0.000 A 
ATOM      3  C   UNL     1       1.420   2.733  18.475  0.00  0.00    +0.000 A 
ATOM      4  C   UNL     1       2.504   1.932  18.155  0.00  0.00    +0.000 A 
ATOM      5  C   UNL     1       3.712   2.514  17.760  0.00  0.00    +0.000 A 
ATOM      6  C   UNL     1       3.863   3.911  17.653  0.00  0.00    +0.000 A 
ENDROOT
BRANCH   6   7
ATOM      7  N   UNL     1       5.006   4.473  17.085  0.00  0.00    +0.000 N 
ATOM      8  C   UNL     1       5.372   4.083  15.710  0.00  0.00    +0.000 C 
ATOM      9  C   UNL     1       6.263   5.185  15.101  0.00  0.00    +0.000 C 
ATOM     10  N   UNL     1       7.475   5.472  15.898  0.00  0.00    +0.000 NA
ATOM     11  C   UNL     1       7.097   5.743  17.305  0.00  0.00    +0.000 C 
ATOM     12  C   UNL     1       6.199   4.646  17.937  0.00  0.00    +0.000 C 
ATOM     13  H   UNL     1       7.930   6.299  15.514  0.00  0.00    +0.000 HD
ENDBRANCH   6   7
BRANCH   1  14
ATOM     14  C   UNL     1       2.813   6.232  17.966  0.00  0.00    +0.000 C 
BRANCH  14  15
ATOM     15  O   UNL     1       2.862   6.752  19.300  0.00  0.00    +0.000 OA
BRANCH  15  19
ATOM     16  C   UNL     1       0.381  10.060  19.845  0.00  0.00    +0.000 A 
ATOM     17  C   UNL     1       0.983   9.792  18.619  0.00  0.00    +0.000 A 
ATOM     18  C   UNL     1       1.804   8.668  18.474  0.00  0.00    +0.000 A 
ATOM     19  C   UNL     1       2.042   7.819  19.561  0.00  0.00    +0.000 A 
ATOM     20  C   UNL     1       1.415   8.080  20.779  0.00  0.00    +0.000 A 
ATOM     21  C   UNL     1       0.591   9.198  20.923  0.00  0.00    +0.000 A 
ENDBRANCH  15  19
ENDBRANCH  14  15
ENDBRANCH   1  14
TORSDOF 4
ENDMDL
MODEL 2
REMARK VINA RESULT:      -7.4      0.554      1.218
REMARK  Name = 
REMARK  4 active torsions:
REMARK  status: ('A' for Active; 'I' for Inactive)
REMARK    1  A    between atoms: C_4  and  O_5
REMARK    2  A    between atoms: O_5  and  C_6
REMARK    3  A    between atoms: C_6  and  C_7
REMARK    4  A    between atoms: C_12  and  N_13
REMARK                            x       y       z     vdW  Elec       q    Type
REMARK                         _______ _______ _______ _____ _____    ______ ____
ROOT
ATOM      1  C   UNL     1       2.851   4.503  18.080  0.00  0.00    +0.000 A 
ATOM      2  C   UNL     1       1.565   4.076  18.474  0.00  0.00    +0.000 A 
ATOM      3  C   UNL     1       1.268   2.723  18.618  0.00  0.00    +0.000 A 
ATOM      4  C   UNL     1       2.265   1.782  18.415  0.00  0.00    +0.000 A 
ATOM      5  C   UNL     1       3.546   2.190  18.032  0.00  0.00    +0.000 A 
ATOM      6  C   UNL     1       3.860   3.546  17.820  0.00  0.00    +0.000 A 
ENDROOT
BRANCH   6   7
ATOM      7  N   UNL     1       5.081   3.927  17.262  0.00  0.00    +0.000 N 
ATOM      8  C   UNL     1       6.012   4.721  18.085  0.00  0.00    +0.000 C 
ATOM      9  C   UNL     1       7.441   4.542  17.532  0.00  0.00    +0.000 C 
ATOM     10  N   UNL     1       7.571   4.905  16.105  0.00  0.00    +0.000 NA
ATOM     11  C   UNL     1       6.547   4.189  15.309  0.00  0.00    +0.000 C 
ATOM     12  C   UNL     1       5.102   4.356  15.849  0.00  0.00    +0.000 C 
ATOM     13  H   UNL     1       8.496   4.626  15.780  0.00  0.00    +0.000 HD
ENDBRANCH   6   7
BRANCH   1  14
ATOM     14  C   UNL     1       3.072   5.988  17.894  0.00  0.00    +0.000 C 
BRANCH  14  15
ATOM     15  O   UNL     1       3.027   6.627  19.175  0.00  0.00    +0.000 OA
BRANCH  15  19
ATOM     16  C   UNL     1       0.545   9.979  19.221  0.00  0.00    +0.000 A 
ATOM     17  C   UNL     1       1.152   9.535  18.050  0.00  0.00    +0.000 A 
ATOM     18  C   UNL     1       1.973   8.402  18.074  0.00  0.00    +0.000 A 
ATOM     19  C   UNL     1       2.206   7.721  19.274  0.00  0.00    +0.000 A 
ATOM     20  C   UNL     1       1.573   8.156  20.438  0.00  0.00    +0.000 A 
ATOM     21  C   UNL     1       0.749   9.283  20.414  0.00  0.00    +0.000 A 
ENDBRANCH  15  19
ENDBRANCH  14  15
ENDBRANCH   1  14
TORSDOF 4
ENDMDL
MODEL 3
REMARK VINA RESULT:      -7.4      0.210      1.092
REMARK  Name = 
REMARK  4 active torsions:
REMARK  status: ('A' for Active; 'I' for Inactive)
REMARK    1  A    between atoms: C_4  and  O_5
REMARK    2  A    between atoms: O_5  and  C_6
REMARK    3  A    between atoms: C_6  and  C_7
REMARK    4  A    between atoms: C_12  and  N_13
REMARK                            x       y       z     vdW  Elec       q    Type
REMARK                         _______ _______ _______ _____ _____    ______ ____
ROOT
ATOM      1  C   UNL     1       2.833   4.854  17.978  0.00  0.00    +0.000 A 
ATOM      2  C   UNL     1       1.615   4.291  18.411  0.00  0.00    +0.000 A 
ATOM      3  C   UNL     1       1.425   2.911  18.428  0.00  0.00    +0.000 A 
ATOM      4  C   UNL     1       2.467   2.076  18.055  0.00  0.00    +0.000 A 
ATOM      5  C   UNL     1       3.682   2.620  17.631  0.00  0.00    +0.000 A 
ATOM      6  C   UNL     1       3.884   4.011  17.546  0.00  0.00    +0.000 A 
ENDROOT
BRANCH   6   7
ATOM      7  N   UNL     1       5.028   4.541  16.950  0.00  0.00    +0.000 N 
ATOM      8  C   UNL     1       5.411   4.058  15.611  0.00  0.00    +0.000 C 
ATOM      9  C   UNL     1       6.300   5.122  14.933  0.00  0.00    +0.000 C 
ATOM     10  N   UNL     1       7.501   5.475  15.719  0.00  0.00    +0.000 NA
ATOM     11  C   UNL     1       7.107   5.842  17.099  0.00  0.00    +0.000 C 
ATOM     12  C   UNL     1       6.211   4.785  17.800  0.00  0.00    +0.000 C 
ATOM     13  H   UNL     1       7.953   6.276  15.282  0.00  0.00    +0.000 HD
ENDBRANCH   6   7
BRANCH   1  14
ATOM     14  C   UNL     1       2.935   6.364  17.939  0.00  0.00    +0.000 C 
BRANCH  14  15
ATOM     15  O   UNL     1       2.860   6.867  19.278  0.00  0.00    +0.000 OA
BRANCH  15  19
ATOM     16  C   UNL     1       0.179   9.940  20.154  0.00  0.00    +0.000 A 
ATOM     17  C   UNL     1       0.521   8.977  21.098  0.00  0.00    +0.000 A 
ATOM     18  C   UNL     1       1.430   7.966  20.769  0.00  0.00    +0.000 A 
ATOM     19  C   UNL     1       1.984   7.901  19.485  0.00  0.00    +0.000 A 
ATOM     20  C   UNL     1       1.655   8.884  18.552  0.00  0.00    +0.000 A 
ATOM     21  C   UNL     1       0.754   9.897  18.882  0.00  0.00    +0.000 A 
ENDBRANCH  15  19
ENDBRANCH  14  15
ENDBRANCH   1  14
TORSDOF 4
ENDMDL
MODEL 4
REMARK VINA RESULT:      -7.3      2.225      5.246
REMARK  Name = 
REMARK  4 active torsions:
REMARK  status: ('A' for Active; 'I' for Inactive)
REMARK    1  A    between atoms: C_4  and  O_5
REMARK    2  A    between atoms: O_5  and  C_6
REMARK    3  A    between atoms: C_6  and  C_7
REMARK    4  A    between atoms: C_12  and  N_13
REMARK                            x       y       z     vdW  Elec       q    Type
REMARK                         _______ _______ _______ _____ _____    ______ ____
ROOT
ATOM      1  C   UNL     1       4.563   4.363  16.659  0.00  0.00    +0.000 A 
ATOM      2  C   UNL     1       5.522   3.779  15.805  0.00  0.00    +0.000 A 
ATOM      3  C   UNL     1       6.751   4.394  15.575  0.00  0.00    +0.000 A 
ATOM      4  C   UNL     1       7.054   5.576  16.232  0.00  0.00    +0.000 A 
ATOM      5  C   UNL     1       6.116   6.163  17.086  0.00  0.00    +0.000 A 
ATOM      6  C   UNL     1       4.843   5.596  17.292  0.00  0.00    +0.000 A 
ENDROOT
BRANCH   6   7
ATOM      7  N   UNL     1       3.852   6.281  17.996  0.00  0.00    +0.000 N 
ATOM      8  C   UNL     1       3.570   7.681  17.631  0.00  0.00    +0.000 C 
ATOM      9  C   UNL     1       2.142   8.038  18.094  0.00  0.00    +0.000 C 
ATOM     10  N   UNL     1       1.920   7.825  19.540  0.00  0.00    +0.000 NA
ATOM     11  C   UNL     1       2.324   6.449  19.912  0.00  0.00    +0.000 C 
ATOM     12  C   UNL     1       3.758   6.069  19.455  0.00  0.00    +0.000 C 
ATOM     13  H   UNL     1       0.928   7.942  19.739  0.00  0.00    +0.000 HD
ENDBRANCH   6   7
BRANCH   1  14
ATOM     14  C   UNL     1       3.233   3.656  16.809  0.00  0.00    +0.000 C 
BRANCH  14  15
ATOM     15  O   UNL     1       3.394   2.552  17.707  0.00  0.00    +0.000 OA
BRANCH  15  19
ATOM     16  C   UNL     1       1.353   2.966  21.320  0.00  0.00    +0.000 A 
ATOM     17  C   UNL     1       0.703   3.086  20.096  0.00  0.00    +0.000 A 
ATOM     18  C   UNL     1       1.421   2.934  18.905  0.00  0.00    +0.000 A 
ATOM     19  C   UNL     1       2.798   2.682  18.934  0.00  0.00    +0.000 A 
ATOM     20  C   UNL     1       3.437   2.538  20.166  0.00  0.00    +0.000 A 
ATOM     21  C   UNL     1       2.720   2.683  21.355  0.00  0.00    +0.000 A 
ENDBRANCH  15  19
ENDBRANCH  14  15
ENDBRANCH   1  14
TORSDOF 4
ENDMDL
MODEL 5
REMARK VINA RESULT:      -7.3      2.228      5.294
REMARK  Name = 
REMARK  4 active torsions:
REMARK  status: ('A' for Active; 'I' for Inactive)
REMARK    1  A    between atoms: C_4  and  O_5
REMARK    2  A    between atoms: O_5  and  C_6
REMARK    3  A    between atoms: C_6  and  C_7
REMARK    4  A    between atoms: C_12  and  N_13
REMARK                            x       y       z     vdW  Elec       q    Type
REMARK                         _______ _______ _______ _____ _____    ______ ____
ROOT
ATOM      1  C   UNL     1       4.671   4.282  16.649  0.00  0.00    +0.000 A 
ATOM      2  C   UNL     1       5.614   3.699  15.777  0.00  0.00    +0.000 A 
ATOM      3  C   UNL     1       6.798   4.357  15.453  0.00  0.00    +0.000 A 
ATOM      4  C   UNL     1       7.075   5.585  16.033  0.00  0.00    +0.000 A 
ATOM      5  C   UNL     1       6.154   6.171  16.905  0.00  0.00    +0.000 A 
ATOM      6  C   UNL     1       4.921   5.558  17.205  0.00  0.00    +0.000 A 
ENDROOT
BRANCH   6   7
ATOM      7  N   UNL     1       3.935   6.232  17.925  0.00  0.00    +0.000 N 
ATOM      8  C   UNL     1       3.636   7.631  17.569  0.00  0.00    +0.000 C 
ATOM      9  C   UNL     1       2.212   7.975  18.052  0.00  0.00    +0.000 C 
ATOM     10  N   UNL     1       2.012   7.755  19.501  0.00  0.00    +0.000 NA
ATOM     11  C   UNL     1       2.432   6.382  19.863  0.00  0.00    +0.000 C 
ATOM     12  C   UNL     1       3.863   6.015  19.384  0.00  0.00    +0.000 C 
ATOM     13  H   UNL     1       1.021   7.863  19.714  0.00  0.00    +0.000 HD
ENDBRANCH   6   7
BRANCH   1  14
ATOM     14  C   UNL     1       3.386   3.523  16.904  0.00  0.00    +0.000 C 
BRANCH  14  15
ATOM     15  O   UNL     1       3.608   2.576  17.955  0.00  0.00    +0.000 OA
BRANCH  15  19
ATOM     16  C   UNL     1       1.301   2.873  21.417  0.00  0.00    +0.000 A 
ATOM     17  C   UNL     1       2.672   2.641  21.470  0.00  0.00    +0.000 A 
ATOM     18  C   UNL     1       3.413   2.554  20.287  0.00  0.00    +0.000 A 
ATOM     19  C   UNL     1       2.782   2.679  19.043  0.00  0.00    +0.000 A 
ATOM     20  C   UNL     1       1.411   2.937  18.999  0.00  0.00    +0.000 A 
ATOM     21  C   UNL     1       0.672   3.030  20.180  0.00  0.00    +0.000 A 
ENDBRANCH  15  19
ENDBRANCH  14  15
ENDBRANCH   1  14
TORSDOF 4
ENDMDL
MODEL 6
REMARK VINA RESULT:      -7.3      0.521      1.615
REMARK  Name = 
REMARK  4 active torsions:
REMARK  status: ('A' for Active; 'I' for Inactive)
REMARK    1  A    between atoms: C_4  and  O_5
REMARK    2  A    between atoms: O_5  and  C_6
REMARK    3  A    between atoms: C_6  and  C_7
REMARK    4  A    between atoms: C_12  and  N_13
REMARK                            x       y       z     vdW  Elec       q    Type
REMARK                         _______ _______ _______ _____ _____    ______ ____
ROOT
ATOM      1  C   UNL     1       2.937   4.516  18.191  0.00  0.00    +0.000 A 
ATOM      2  C   UNL     1       1.655   4.098  18.605  0.00  0.00    +0.000 A 
ATOM      3  C   UNL     1       1.332   2.746  18.696  0.00  0.00    +0.000 A 
ATOM      4  C   UNL     1       2.301   1.795  18.419  0.00  0.00    +0.000 A 
ATOM      5  C   UNL     1       3.578   2.193  18.014  0.00  0.00    +0.000 A 
ATOM      6  C   UNL     1       3.916   3.552  17.855  0.00  0.00    +0.000 A 
ENDROOT
BRANCH   6   7
ATOM      7  N   UNL     1       5.127   3.932  17.277  0.00  0.00    +0.000 N 
ATOM      8  C   UNL     1       6.077   4.716  18.088  0.00  0.00    +0.000 C 
ATOM      9  C   UNL     1       7.495   4.536  17.506  0.00  0.00    +0.000 C 
ATOM     10  N   UNL     1       7.599   4.911  16.080  0.00  0.00    +0.000 NA
ATOM     11  C   UNL     1       6.557   4.205  15.298  0.00  0.00    +0.000 C 
ATOM     12  C   UNL     1       5.123   4.372  15.867  0.00  0.00    +0.000 C 
ATOM     13  H   UNL     1       8.516   4.630  15.735  0.00  0.00    +0.000 HD
ENDBRANCH   6   7
BRANCH   1  14
ATOM     14  C   UNL     1       3.186   6.003  18.066  0.00  0.00    +0.000 C 
BRANCH  14  15
ATOM     15  O   UNL     1       2.892   6.628  19.321  0.00  0.00    +0.000 OA
BRANCH  15  19
ATOM     16  C   UNL     1       0.455  10.012  19.407  0.00  0.00    +0.000 A 
ATOM     17  C   UNL     1       0.649   9.223  20.536  0.00  0.00    +0.000 A 
ATOM     18  C   UNL     1       1.480   8.099  20.469  0.00  0.00    +0.000 A 
ATOM     19  C   UNL     1       2.103   7.748  19.266  0.00  0.00    +0.000 A 
ATOM     20  C   UNL     1       1.923   8.559  18.145  0.00  0.00    +0.000 A 
ATOM     21  C   UNL     1       1.100   9.684  18.213  0.00  0.00    +0.000 A 
ENDBRANCH  15  19
ENDBRANCH  14  15
ENDBRANCH   1  14
TORSDOF 4
ENDMDL
MODEL 7
REMARK VINA RESULT:      -7.1      2.989      6.896
REMARK  Name = 
REMARK  4 active torsions:
REMARK  status: ('A' for Active; 'I' for Inactive)
REMARK    1  A    between atoms: C_4  and  O_5
REMARK    2  A    between atoms: O_5  and  C_6
REMARK    3  A    between atoms: C_6  and  C_7
REMARK    4  A    between atoms: C_12  and  N_13
REMARK                            x       y       z     vdW  Elec       q    Type
REMARK                         _______ _______ _______ _____ _____    ______ ____
ROOT
ATOM      1  C   UNL     1       5.993   5.802  17.113  0.00  0.00    +0.000 A 
ATOM      2  C   UNL     1       7.191   6.523  17.297  0.00  0.00    +0.000 A 
ATOM      3  C   UNL     1       7.848   6.527  18.525  0.00  0.00    +0.000 A 
ATOM      4  C   UNL     1       7.340   5.772  19.571  0.00  0.00    +0.000 A 
ATOM      5  C   UNL     1       6.158   5.046  19.401  0.00  0.00    +0.000 A 
ATOM      6  C   UNL     1       5.439   5.071  18.190  0.00  0.00    +0.000 A 
ENDROOT
BRANCH   6   7
ATOM      7  N   UNL     1       4.172   4.497  18.089  0.00  0.00    +0.000 N 
ATOM      8  C   UNL     1       3.006   5.286  18.526  0.00  0.00    +0.000 C 
ATOM      9  C   UNL     1       1.744   4.737  17.828  0.00  0.00    +0.000 C 
ATOM     10  N   UNL     1       1.515   3.296  18.071  0.00  0.00    +0.000 NA
ATOM     11  C   UNL     1       2.740   2.531  17.741  0.00  0.00    +0.000 C 
ATOM     12  C   UNL     1       4.022   3.068  18.432  0.00  0.00    +0.000 C 
ATOM     13  H   UNL     1       0.757   2.980  17.468  0.00  0.00    +0.000 HD
ENDBRANCH   6   7
BRANCH   1  14
ATOM     14  C   UNL     1       5.315   5.898  15.763  0.00  0.00    +0.000 C 
BRANCH  14  15
ATOM     15  O   UNL     1       5.181   4.580  15.218  0.00  0.00    +0.000 OA
BRANCH  15  19
ATOM     16  C   UNL     1       7.350   4.029  11.698  0.00  0.00    +0.000 A 
ATOM     17  C   UNL     1       7.774   4.911  12.687  0.00  0.00    +0.000 A 
ATOM     18  C   UNL     1       7.022   5.064  13.857  0.00  0.00    +0.000 A 
ATOM     19  C   UNL     1       5.832   4.349  14.034  0.00  0.00    +0.000 A 
ATOM     20  C   UNL     1       5.427   3.447  13.049  0.00  0.00    +0.000 A 
ATOM     21  C   UNL     1       6.179   3.290  11.884  0.00  0.00    +0.000 A 
ENDBRANCH  15  19
ENDBRANCH  14  15
ENDBRANCH   1  14
TORSDOF 4
ENDMDL
MODEL 8
REMARK VINA RESULT:      -7.1      1.409      1.562
REMARK  Name = 
REMARK  4 active torsions:
REMARK  status: ('A' for Active; 'I' for Inactive)
REMARK    1  A    between atoms: C_4  and  O_5
REMARK    2  A    between atoms: O_5  and  C_6
REMARK    3  A    between atoms: C_6  and  C_7
REMARK    4  A    between atoms: C_12  and  N_13
REMARK                            x       y       z     vdW  Elec       q    Type
REMARK                         _______ _______ _______ _____ _____    ______ ____
ROOT
ATOM      1  C   UNL     1       2.227   4.593  19.210  0.00  0.00    +0.000 A 
ATOM      2  C   UNL     1       1.111   4.275  20.012  0.00  0.00    +0.000 A 
ATOM      3  C   UNL     1       1.179   3.269  20.974  0.00  0.00    +0.000 A 
ATOM      4  C   UNL     1       2.376   2.602  21.178  0.00  0.00    +0.000 A 
ATOM      5  C   UNL     1       3.493   2.912  20.396  0.00  0.00    +0.000 A 
ATOM      6  C   UNL     1       3.438   3.881  19.375  0.00  0.00    +0.000 A 
ENDROOT
BRANCH   6   7
ATOM      7  N   UNL     1       4.497   4.052  18.483  0.00  0.00    +0.000 N 
ATOM      8  C   UNL     1       4.540   3.210  17.274  0.00  0.00    +0.000 C 
ATOM      9  C   UNL     1       5.400   3.917  16.205  0.00  0.00    +0.000 C 
ATOM     10  N   UNL     1       6.769   4.233  16.666  0.00  0.00    +0.000 NA
ATOM     11  C   UNL     1       6.710   4.974  17.947  0.00  0.00    +0.000 C 
ATOM     12  C   UNL     1       5.847   4.281  19.035  0.00  0.00    +0.000 C 
ATOM     13  H   UNL     1       7.222   4.819  15.966  0.00  0.00    +0.000 HD
ENDBRANCH   6   7
BRANCH   1  14
ATOM     14  C   UNL     1       2.050   5.660  18.151  0.00  0.00    +0.000 C 
BRANCH  14  15
ATOM     15  O   UNL     1       2.820   6.810  18.520  0.00  0.00    +0.000 OA
BRANCH  15  19
ATOM     16  C   UNL     1       0.652  10.164  19.724  0.00  0.00    +0.000 A 
ATOM     17  C   UNL     1       1.101  10.015  18.416  0.00  0.00    +0.000 A 
ATOM     18  C   UNL     1       1.820   8.872  18.049  0.00  0.00    +0.000 A 
ATOM     19  C   UNL     1       2.110   7.883  18.995  0.00  0.00    +0.000 A 
ATOM     20  C   UNL     1       1.634   8.027  20.298  0.00  0.00    +0.000 A 
ATOM     21  C   UNL     1       0.912   9.164  20.664  0.00  0.00    +0.000 A 
ENDBRANCH  15  19
ENDBRANCH  14  15
ENDBRANCH   1  14
TORSDOF 4
ENDMDL
MODEL 9
REMARK VINA RESULT:      -7.1      3.028      6.897
REMARK  Name = 
REMARK  4 active torsions:
REMARK  status: ('A' for Active; 'I' for Inactive)
REMARK    1  A    between atoms: C_4  and  O_5
REMARK    2  A    between atoms: O_5  and  C_6
REMARK    3  A    between atoms: C_6  and  C_7
REMARK    4  A    between atoms: C_12  and  N_13
REMARK                            x       y       z     vdW  Elec       q    Type
REMARK                         _______ _______ _______ _____ _____    ______ ____
ROOT
ATOM      1  C   UNL     1       5.973   5.785  17.160  0.00  0.00    +0.000 A 
ATOM      2  C   UNL     1       7.147   6.564  17.237  0.00  0.00    +0.000 A 
ATOM      3  C   UNL     1       7.896   6.622  18.410  0.00  0.00    +0.000 A 
ATOM      4  C   UNL     1       7.507   5.867  19.505  0.00  0.00    +0.000 A 
ATOM      5  C   UNL     1       6.350   5.085  19.441  0.00  0.00    +0.000 A 
ATOM      6  C   UNL     1       5.539   5.052  18.290  0.00  0.00    +0.000 A 
ENDROOT
BRANCH   6   7
ATOM      7  N   UNL     1       4.297   4.419  18.298  0.00  0.00    +0.000 N 
ATOM      8  C   UNL     1       3.112   5.201  18.695  0.00  0.00    +0.000 C 
ATOM      9  C   UNL     1       1.852   4.530  18.108  0.00  0.00    +0.000 C 
ATOM     10  N   UNL     1       1.697   3.116  18.508  0.00  0.00    +0.000 NA
ATOM     11  C   UNL     1       2.943   2.371  18.212  0.00  0.00    +0.000 C 
ATOM     12  C   UNL     1       4.223   3.030  18.794  0.00  0.00    +0.000 C 
ATOM     13  H   UNL     1       0.934   2.707  17.971  0.00  0.00    +0.000 HD
ENDBRANCH   6   7
BRANCH   1  14
ATOM     14  C   UNL     1       5.189   5.823  15.866  0.00  0.00    +0.000 C 
BRANCH  14  15
ATOM     15  O   UNL     1       5.168   4.507  15.300  0.00  0.00    +0.000 OA
BRANCH  15  19
ATOM     16  C   UNL     1       7.121   3.858  11.672  0.00  0.00    +0.000 A 
ATOM     17  C   UNL     1       5.917   3.231  11.976  0.00  0.00    +0.000 A 
ATOM     18  C   UNL     1       5.289   3.479  13.201  0.00  0.00    +0.000 A 
ATOM     19  C   UNL     1       5.874   4.341  14.136  0.00  0.00    +0.000 A 
ATOM     20  C   UNL     1       7.068   4.986  13.814  0.00  0.00    +0.000 A 
ATOM     21  C   UNL     1       7.693   4.743  12.589  0.00  0.00    +0.000 A 
ENDBRANCH  15  19
ENDBRANCH  14  15
ENDBRANCH   1  14
TORSDOF 4
ENDMDL
