MODEL 1
REMARK VINA RESULT:      -7.9      0.000      0.000
REMARK  Name = 
REMARK  11 active torsions:
REMARK  status: ('A' for Active; 'I' for Inactive)
REMARK    1  A    between atoms: C_1  and  C_2
REMARK    2  A    between atoms: C_2  and  C_3
REMARK    3  A    between atoms: C_2  and  N_4
REMARK    4  A    between atoms: C_2  and  C_5
REMARK    5  A    between atoms: C_5  and  N_6
REMARK    6  A    between atoms: C_5  and  C_23
REMARK    7  A    between atoms: C_7  and  C_9
REMARK    8  A    between atoms: C_12  and  C_13
REMARK    9  A    between atoms: C_14  and  C_15
REMARK   10  A    between atoms: C_16  and  C_17
REMARK   11  A    between atoms: N_25  and  O_26
REMARK                            x       y       z     vdW  Elec       q    Type
REMARK                         _______ _______ _______ _____ _____    ______ ____
ROOT
ATOM      1  N   UNL     1       5.048   5.736  18.337  0.00  0.00    +0.000 N 
ATOM      2  C   UNL     1       3.702   5.432  18.414  0.00  0.00    +0.000 C 
ATOM      3  O   UNL     1       3.250   4.392  17.946  0.00  0.00    +0.000 OA
ATOM      4  H   UNL     1       5.435   6.433  18.958  0.00  0.00    +0.000 HD
ENDROOT
BRANCH   2   5
ATOM      5  C   UNL     1       2.796   6.379  19.148  0.00  0.00    +0.000 A 
ATOM      6  C   UNL     1       2.200   6.082  20.383  0.00  0.00    +0.000 A 
ATOM      7  C   UNL     1       1.375   7.028  21.027  0.00  0.00    +0.000 A 
ATOM      8  C   UNL     1       1.137   8.282  20.448  0.00  0.00    +0.000 A 
ATOM      9  C   UNL     1       1.757   8.576  19.233  0.00  0.00    +0.000 A 
ATOM     10  F   UNL     1       1.572   9.773  18.651  0.00  0.00    +0.000 F 
ATOM     11  C   UNL     1       2.580   7.647  18.590  0.00  0.00    +0.000 A 
BRANCH   8  12
ATOM     12  C   UNL     1       0.265   9.237  21.084  0.00  0.00    +0.000 C 
ATOM     13  C   UNL     1      -0.427  10.058  21.638  0.00  0.00    +0.000 C 
BRANCH  13  14
ATOM     14  C   UNL     1      -1.289  11.125  22.340  0.00  0.00    +0.000 C 
ATOM     15  C   UNL     1      -1.941  11.965  22.902  0.00  0.00    +0.000 C 
BRANCH  15  16
ATOM     16  C   UNL     1      -2.696  13.009  23.533  0.00  0.00    +0.000 C 
ATOM     17  C   UNL     1      -4.067  13.351  23.014  0.00  0.00    +0.000 C 
ATOM     18  C   UNL     1      -3.922  12.648  24.332  0.00  0.00    +0.000 C 
ENDBRANCH  15  16
ENDBRANCH  13  14
ENDBRANCH   8  12
ENDBRANCH   2   5
BRANCH   1  19
ATOM     19  C   UNL     1       5.997   4.918  17.527  0.00  0.00    +0.000 C 
BRANCH  19  20
ATOM     20  C   UNL     1       7.399   4.795  18.183  0.00  0.00    +0.000 C 
ATOM     21  O   UNL     1       8.326   4.118  17.733  0.00  0.00    +0.000 OA
ATOM     22  N   UNL     1       7.536   5.388  19.419  0.00  0.00    +0.000 N 
ATOM     23  H   UNL     1       6.718   5.503  20.017  0.00  0.00    +0.000 HD
BRANCH  22  24
ATOM     24  O   UNL     1       8.759   5.069  20.074  0.00  0.00    +0.000 OA
ATOM     25  H   UNL     1       8.782   4.087  20.015  0.00  0.00    +0.000 HD
ENDBRANCH  22  24
ENDBRANCH  19  20
BRANCH  19  27
ATOM     26  C   UNL     1       5.115   6.601  15.771  0.00  0.00    +0.000 C 
ATOM     27  C   UNL     1       6.073   5.421  16.035  0.00  0.00    +0.000 C 
ATOM     28  C   UNL     1       5.802   4.288  15.028  0.00  0.00    +0.000 C 
BRANCH  27  29
ATOM     29  N   UNL     1       7.432   5.947  15.752  0.00  0.00    +0.000 NA
ATOM     30  H   UNL     1       7.851   6.312  16.608  0.00  0.00    +0.000 HD
ATOM     31  H   UNL     1       7.378   6.722  15.096  0.00  0.00    +0.000 HD
ENDBRANCH  27  29
ENDBRANCH  19  27
ENDBRANCH   1  19
TORSDOF 9
ENDMDL
MODEL 2
REMARK VINA RESULT:      -7.3      1.925      2.555
REMARK  Name = 
REMARK  11 active torsions:
REMARK  status: ('A' for Active; 'I' for Inactive)
REMARK    1  A    between atoms: C_1  and  C_2
REMARK    2  A    between atoms: C_2  and  C_3
REMARK    3  A    between atoms: C_2  and  N_4
REMARK    4  A    between atoms: C_2  and  C_5
REMARK    5  A    between atoms: C_5  and  N_6
REMARK    6  A    between atoms: C_5  and  C_23
REMARK    7  A    between atoms: C_7  and  C_9
REMARK    8  A    between atoms: C_12  and  C_13
REMARK    9  A    between atoms: C_14  and  C_15
REMARK   10  A    between atoms: C_16  and  C_17
REMARK   11  A    between atoms: N_25  and  O_26
REMARK                            x       y       z     vdW  Elec       q    Type
REMARK                         _______ _______ _______ _____ _____    ______ ____
ROOT
ATOM      1  N   UNL     1       4.167   6.035  19.009  0.00  0.00    +0.000 N 
ATOM      2  C   UNL     1       2.851   6.302  18.680  0.00  0.00    +0.000 C 
ATOM      3  O   UNL     1       2.253   5.643  17.836  0.00  0.00    +0.000 OA
ATOM      4  H   UNL     1       4.542   6.386  19.878  0.00  0.00    +0.000 HD
ENDROOT
BRANCH   2   5
ATOM      5  C   UNL     1       2.135   7.390  19.429  0.00  0.00    +0.000 A 
ATOM      6  C   UNL     1       1.785   7.296  20.784  0.00  0.00    +0.000 A 
ATOM      7  C   UNL     1       1.130   8.366  21.431  0.00  0.00    +0.000 A 
ATOM      8  C   UNL     1       0.819   9.542  20.734  0.00  0.00    +0.000 A 
ATOM      9  C   UNL     1       1.198   9.634  19.394  0.00  0.00    +0.000 A 
ATOM     10  F   UNL     1       0.938  10.750  18.693  0.00  0.00    +0.000 F 
ATOM     11  C   UNL     1       1.851   8.581  18.747  0.00  0.00    +0.000 A 
BRANCH   8  12
ATOM     12  C   UNL     1       0.118  10.621  21.381  0.00  0.00    +0.000 C 
ATOM     13  C   UNL     1      -0.429  11.539  21.945  0.00  0.00    +0.000 C 
BRANCH  13  14
ATOM     14  C   UNL     1      -1.102  12.726  22.660  0.00  0.00    +0.000 C 
ATOM     15  C   UNL     1      -1.630  13.666  23.196  0.00  0.00    +0.000 C 
BRANCH  15  16
ATOM     16  C   UNL     1      -2.314  14.761  23.819  0.00  0.00    +0.000 C 
ATOM     17  C   UNL     1      -3.171  14.510  25.030  0.00  0.00    +0.000 C 
ATOM     18  C   UNL     1      -1.863  15.231  25.179  0.00  0.00    +0.000 C 
ENDBRANCH  15  16
ENDBRANCH  13  14
ENDBRANCH   8  12
ENDBRANCH   2   5
BRANCH   1  19
ATOM     19  C   UNL     1       4.991   5.059  18.237  0.00  0.00    +0.000 C 
BRANCH  19  20
ATOM     20  C   UNL     1       4.739   3.588  18.662  0.00  0.00    +0.000 C 
ATOM     21  O   UNL     1       5.161   3.077  19.702  0.00  0.00    +0.000 OA
ATOM     22  N   UNL     1       4.111   2.793  17.728  0.00  0.00    +0.000 N 
ATOM     23  H   UNL     1       4.201   3.012  16.737  0.00  0.00    +0.000 HD
BRANCH  22  24
ATOM     24  O   UNL     1       4.094   1.412  18.072  0.00  0.00    +0.000 OA
ATOM     25  H   UNL     1       3.159   1.160  17.891  0.00  0.00    +0.000 HD
ENDBRANCH  22  24
ENDBRANCH  19  20
BRANCH  19  27
ATOM     26  C   UNL     1       6.766   6.884  17.779  0.00  0.00    +0.000 C 
ATOM     27  C   UNL     1       6.520   5.440  18.261  0.00  0.00    +0.000 C 
ATOM     28  C   UNL     1       7.375   4.459  17.438  0.00  0.00    +0.000 C 
BRANCH  27  29
ATOM     29  N   UNL     1       7.024   5.400  19.657  0.00  0.00    +0.000 NA
ATOM     30  H   UNL     1       6.596   4.623  20.160  0.00  0.00    +0.000 HD
ATOM     31  H   UNL     1       6.762   6.251  20.148  0.00  0.00    +0.000 HD
ENDBRANCH  27  29
ENDBRANCH  19  27
ENDBRANCH   1  19
TORSDOF 9
ENDMDL
MODEL 3
REMARK VINA RESULT:      -7.3      2.072      2.478
REMARK  Name = 
REMARK  11 active torsions:
REMARK  status: ('A' for Active; 'I' for Inactive)
REMARK    1  A    between atoms: C_1  and  C_2
REMARK    2  A    between atoms: C_2  and  C_3
REMARK    3  A    between atoms: C_2  and  N_4
REMARK    4  A    between atoms: C_2  and  C_5
REMARK    5  A    between atoms: C_5  and  N_6
REMARK    6  A    between atoms: C_5  and  C_23
REMARK    7  A    between atoms: C_7  and  C_9
REMARK    8  A    between atoms: C_12  and  C_13
REMARK    9  A    between atoms: C_14  and  C_15
REMARK   10  A    between atoms: C_16  and  C_17
REMARK   11  A    between atoms: N_25  and  O_26
REMARK                            x       y       z     vdW  Elec       q    Type
REMARK                         _______ _______ _______ _____ _____    ______ ____
ROOT
ATOM      1  N   UNL     1       4.090   6.010  17.924  0.00  0.00    +0.000 N 
ATOM      2  C   UNL     1       2.721   6.088  18.096  0.00  0.00    +0.000 C 
ATOM      3  O   UNL     1       1.977   5.175  17.753  0.00  0.00    +0.000 OA
ATOM      4  H   UNL     1       4.692   6.623  18.454  0.00  0.00    +0.000 HD
ENDROOT
BRANCH   2   5
ATOM      5  C   UNL     1       2.155   7.302  18.776  0.00  0.00    +0.000 A 
ATOM      6  C   UNL     1       1.787   8.471  18.094  0.00  0.00    +0.000 A 
ATOM      7  C   UNL     1       1.241   9.568  18.794  0.00  0.00    +0.000 A 
ATOM      8  C   UNL     1       1.055   9.510  20.182  0.00  0.00    +0.000 A 
ATOM      9  C   UNL     1       1.399   8.332  20.845  0.00  0.00    +0.000 A 
ATOM     10  F   UNL     1       1.219   8.225  22.172  0.00  0.00    +0.000 F 
ATOM     11  C   UNL     1       1.935   7.238  20.159  0.00  0.00    +0.000 A 
BRANCH   8  12
ATOM     12  C   UNL     1       0.532  10.642  20.905  0.00  0.00    +0.000 C 
ATOM     13  C   UNL     1       0.059  11.593  21.481  0.00  0.00    +0.000 C 
BRANCH  13  14
ATOM     14  C   UNL     1      -0.573  12.795  22.208  0.00  0.00    +0.000 C 
ATOM     15  C   UNL     1      -1.042  13.745  22.779  0.00  0.00    +0.000 C 
BRANCH  15  16
ATOM     16  C   UNL     1      -1.601  14.908  23.405  0.00  0.00    +0.000 C 
ATOM     17  C   UNL     1      -2.551  14.745  24.561  0.00  0.00    +0.000 C 
ATOM     18  C   UNL     1      -1.166  15.271  24.802  0.00  0.00    +0.000 C 
ENDBRANCH  15  16
ENDBRANCH  13  14
ENDBRANCH   8  12
ENDBRANCH   2   5
BRANCH   1  19
ATOM     19  C   UNL     1       4.727   4.903  17.153  0.00  0.00    +0.000 C 
BRANCH  19  20
ATOM     20  C   UNL     1       4.727   3.554  17.922  0.00  0.00    +0.000 C 
ATOM     21  O   UNL     1       4.134   2.538  17.554  0.00  0.00    +0.000 OA
ATOM     22  N   UNL     1       5.331   3.571  19.160  0.00  0.00    +0.000 N 
ATOM     23  H   UNL     1       5.374   4.442  19.689  0.00  0.00    +0.000 HD
BRANCH  22  24
ATOM     24  O   UNL     1       5.121   2.382  19.915  0.00  0.00    +0.000 OA
ATOM     25  H   UNL     1       5.013   1.701  19.212  0.00  0.00    +0.000 HD
ENDBRANCH  22  24
ENDBRANCH  19  20
BRANCH  19  27
ATOM     26  C   UNL     1       6.661   6.616  17.271  0.00  0.00    +0.000 C 
ATOM     27  C   UNL     1       6.162   5.302  16.637  0.00  0.00    +0.000 C 
ATOM     28  C   UNL     1       6.217   5.405  15.101  0.00  0.00    +0.000 C 
BRANCH  27  29
ATOM     29  N   UNL     1       7.147   4.269  17.045  0.00  0.00    +0.000 NA
ATOM     30  H   UNL     1       8.042   4.440  16.588  0.00  0.00    +0.000 HD
ATOM     31  H   UNL     1       6.833   3.349  16.747  0.00  0.00    +0.000 HD
ENDBRANCH  27  29
ENDBRANCH  19  27
ENDBRANCH   1  19
TORSDOF 9
ENDMDL
MODEL 4
REMARK VINA RESULT:      -7.2      5.691     10.994
REMARK  Name = 
REMARK  11 active torsions:
REMARK  status: ('A' for Active; 'I' for Inactive)
REMARK    1  A    between atoms: C_1  and  C_2
REMARK    2  A    between atoms: C_2  and  C_3
REMARK    3  A    between atoms: C_2  and  N_4
REMARK    4  A    between atoms: C_2  and  C_5
REMARK    5  A    between atoms: C_5  and  N_6
REMARK    6  A    between atoms: C_5  and  C_23
REMARK    7  A    between atoms: C_7  and  C_9
REMARK    8  A    between atoms: C_12  and  C_13
REMARK    9  A    between atoms: C_14  and  C_15
REMARK   10  A    between atoms: C_16  and  C_17
REMARK   11  A    between atoms: N_25  and  O_26
REMARK                            x       y       z     vdW  Elec       q    Type
REMARK                         _______ _______ _______ _____ _____    ______ ____
ROOT
ATOM      1  N   UNL     1      -1.616  12.019  21.617  0.00  0.00    +0.000 N 
ATOM      2  C   UNL     1      -0.892  11.014  22.229  0.00  0.00    +0.000 C 
ATOM      3  O   UNL     1      -0.994  10.786  23.430  0.00  0.00    +0.000 OA
ATOM      4  H   UNL     1      -1.734  12.007  20.614  0.00  0.00    +0.000 HD
ENDROOT
BRANCH   2   5
ATOM      5  C   UNL     1      -0.010  10.148  21.374  0.00  0.00    +0.000 A 
ATOM      6  C   UNL     1       0.583   8.960  21.828  0.00  0.00    +0.000 A 
ATOM      7  C   UNL     1       1.385   8.184  20.964  0.00  0.00    +0.000 A 
ATOM      8  C   UNL     1       1.602   8.583  19.638  0.00  0.00    +0.000 A 
ATOM      9  C   UNL     1       0.984   9.751  19.191  0.00  0.00    +0.000 A 
ATOM     10  F   UNL     1       1.149  10.160  17.922  0.00  0.00    +0.000 F 
ATOM     11  C   UNL     1       0.184  10.524  20.038  0.00  0.00    +0.000 A 
BRANCH   8  12
ATOM     12  C   UNL     1       2.450   7.812  18.764  0.00  0.00    +0.000 C 
ATOM     13  C   UNL     1       3.183   7.206  18.019  0.00  0.00    +0.000 C 
BRANCH  13  14
ATOM     14  C   UNL     1       4.141   6.452  17.077  0.00  0.00    +0.000 C 
ATOM     15  C   UNL     1       4.895   5.886  16.329  0.00  0.00    +0.000 C 
BRANCH  15  16
ATOM     16  C   UNL     1       5.840   5.227  15.475  0.00  0.00    +0.000 C 
ATOM     17  C   UNL     1       7.043   4.553  16.078  0.00  0.00    +0.000 C 
ATOM     18  C   UNL     1       5.932   3.722  15.505  0.00  0.00    +0.000 C 
ENDBRANCH  15  16
ENDBRANCH  13  14
ENDBRANCH   8  12
ENDBRANCH   2   5
BRANCH   1  19
ATOM     19  C   UNL     1      -2.420  13.002  22.402  0.00  0.00    +0.000 C 
BRANCH  19  20
ATOM     20  C   UNL     1      -3.779  12.424  22.880  0.00  0.00    +0.000 C 
ATOM     21  O   UNL     1      -4.800  12.372  22.191  0.00  0.00    +0.000 OA
ATOM     22  N   UNL     1      -3.848  12.078  24.212  0.00  0.00    +0.000 N 
ATOM     23  H   UNL     1      -3.245  12.548  24.887  0.00  0.00    +0.000 HD
BRANCH  22  24
ATOM     24  O   UNL     1      -5.163  11.758  24.652  0.00  0.00    +0.000 OA
ATOM     25  H   UNL     1      -5.057  10.838  24.988  0.00  0.00    +0.000 HD
ENDBRANCH  22  24
ENDBRANCH  19  20
BRANCH  19  27
ATOM     26  C   UNL     1      -1.250  14.858  21.031  0.00  0.00    +0.000 C 
ATOM     27  C   UNL     1      -2.583  14.368  21.632  0.00  0.00    +0.000 C 
ATOM     28  C   UNL     1      -3.193  15.466  22.523  0.00  0.00    +0.000 C 
BRANCH  27  29
ATOM     29  N   UNL     1      -3.493  14.184  20.474  0.00  0.00    +0.000 NA
ATOM     30  H   UNL     1      -3.635  13.190  20.295  0.00  0.00    +0.000 HD
ATOM     31  H   UNL     1      -3.075  14.579  19.635  0.00  0.00    +0.000 HD
ENDBRANCH  27  29
ENDBRANCH  19  27
ENDBRANCH   1  19
TORSDOF 9
ENDMDL
MODEL 5
REMARK VINA RESULT:      -7.2      3.611      4.376
REMARK  Name = 
REMARK  11 active torsions:
REMARK  status: ('A' for Active; 'I' for Inactive)
REMARK    1  A    between atoms: C_1  and  C_2
REMARK    2  A    between atoms: C_2  and  C_3
REMARK    3  A    between atoms: C_2  and  N_4
REMARK    4  A    between atoms: C_2  and  C_5
REMARK    5  A    between atoms: C_5  and  N_6
REMARK    6  A    between atoms: C_5  and  C_23
REMARK    7  A    between atoms: C_7  and  C_9
REMARK    8  A    between atoms: C_12  and  C_13
REMARK    9  A    between atoms: C_14  and  C_15
REMARK   10  A    between atoms: C_16  and  C_17
REMARK   11  A    between atoms: N_25  and  O_26
REMARK                            x       y       z     vdW  Elec       q    Type
REMARK                         _______ _______ _______ _____ _____    ______ ____
ROOT
ATOM      1  N   UNL     1       2.835   5.264  19.354  0.00  0.00    +0.000 N 
ATOM      2  C   UNL     1       2.019   5.887  20.279  0.00  0.00    +0.000 C 
ATOM      3  O   UNL     1       1.606   5.298  21.272  0.00  0.00    +0.000 OA
ATOM      4  H   UNL     1       3.381   5.825  18.716  0.00  0.00    +0.000 HD
ENDROOT
BRANCH   2   5
ATOM      5  C   UNL     1       1.691   7.339  20.078  0.00  0.00    +0.000 A 
ATOM      6  C   UNL     1       1.160   8.160  21.085  0.00  0.00    +0.000 A 
ATOM      7  C   UNL     1       0.895   9.523  20.832  0.00  0.00    +0.000 A 
ATOM      8  C   UNL     1       1.158  10.083  19.575  0.00  0.00    +0.000 A 
ATOM      9  C   UNL     1       1.712   9.264  18.591  0.00  0.00    +0.000 A 
ATOM     10  F   UNL     1       1.999   9.763  17.377  0.00  0.00    +0.000 F 
ATOM     11  C   UNL     1       1.983   7.914  18.833  0.00  0.00    +0.000 A 
BRANCH   8  12
ATOM     12  C   UNL     1       0.854  11.465  19.303  0.00  0.00    +0.000 C 
ATOM     13  C   UNL     1       0.560  12.619  19.100  0.00  0.00    +0.000 C 
BRANCH  13  14
ATOM     14  C   UNL     1       0.172  14.092  18.868  0.00  0.00    +0.000 C 
ATOM     15  C   UNL     1      -0.119  15.249  18.710  0.00  0.00    +0.000 C 
BRANCH  15  16
ATOM     16  C   UNL     1      -0.409  16.637  18.494  0.00  0.00    +0.000 C 
ATOM     17  C   UNL     1       0.316  17.682  19.299  0.00  0.00    +0.000 C 
ATOM     18  C   UNL     1       0.630  17.512  17.841  0.00  0.00    +0.000 C 
ENDBRANCH  15  16
ENDBRANCH  13  14
ENDBRANCH   8  12
ENDBRANCH   2   5
BRANCH   1  19
ATOM     19  C   UNL     1       3.112   3.798  19.406  0.00  0.00    +0.000 C 
BRANCH  19  20
ATOM     20  C   UNL     1       4.616   3.462  19.220  0.00  0.00    +0.000 C 
ATOM     21  O   UNL     1       5.236   2.633  19.889  0.00  0.00    +0.000 OA
ATOM     22  N   UNL     1       5.302   4.259  18.330  0.00  0.00    +0.000 N 
ATOM     23  H   UNL     1       4.983   5.211  18.155  0.00  0.00    +0.000 HD
BRANCH  22  24
ATOM     24  O   UNL     1       6.711   4.057  18.351  0.00  0.00    +0.000 OA
ATOM     25  H   UNL     1       6.834   3.500  19.154  0.00  0.00    +0.000 HD
ENDBRANCH  22  24
ENDBRANCH  19  20
BRANCH  19  27
ATOM     26  C   UNL     1       1.826   3.819  17.162  0.00  0.00    +0.000 C 
ATOM     27  C   UNL     1       2.187   2.995  18.414  0.00  0.00    +0.000 C 
ATOM     28  C   UNL     1       0.904   2.489  19.099  0.00  0.00    +0.000 C 
BRANCH  27  29
ATOM     29  N   UNL     1       2.915   1.805  17.905  0.00  0.00    +0.000 NA
ATOM     30  H   UNL     1       3.892   1.842  18.195  0.00  0.00    +0.000 HD
ATOM     31  H   UNL     1       2.908   1.799  16.888  0.00  0.00    +0.000 HD
ENDBRANCH  27  29
ENDBRANCH  19  27
ENDBRANCH   1  19
TORSDOF 9
ENDMDL
MODEL 6
REMARK VINA RESULT:      -7.2      3.539      4.343
REMARK  Name = 
REMARK  11 active torsions:
REMARK  status: ('A' for Active; 'I' for Inactive)
REMARK    1  A    between atoms: C_1  and  C_2
REMARK    2  A    between atoms: C_2  and  C_3
REMARK    3  A    between atoms: C_2  and  N_4
REMARK    4  A    between atoms: C_2  and  C_5
REMARK    5  A    between atoms: C_5  and  N_6
REMARK    6  A    between atoms: C_5  and  C_23
REMARK    7  A    between atoms: C_7  and  C_9
REMARK    8  A    between atoms: C_12  and  C_13
REMARK    9  A    between atoms: C_14  and  C_15
REMARK   10  A    between atoms: C_16  and  C_17
REMARK   11  A    between atoms: N_25  and  O_26
REMARK                            x       y       z     vdW  Elec       q    Type
REMARK                         _______ _______ _______ _____ _____    ______ ____
ROOT
ATOM      1  N   UNL     1       2.913   5.244  19.179  0.00  0.00    +0.000 N 
ATOM      2  C   UNL     1       2.177   5.975  20.092  0.00  0.00    +0.000 C 
ATOM      3  O   UNL     1       1.824   5.496  21.164  0.00  0.00    +0.000 OA
ATOM      4  H   UNL     1       3.424   5.727  18.453  0.00  0.00    +0.000 HD
ENDROOT
BRANCH   2   5
ATOM      5  C   UNL     1       1.864   7.409  19.772  0.00  0.00    +0.000 A 
ATOM      6  C   UNL     1       2.105   7.994  18.520  0.00  0.00    +0.000 A 
ATOM      7  C   UNL     1       1.768   9.343  18.283  0.00  0.00    +0.000 A 
ATOM      8  C   UNL     1       1.183  10.124  19.290  0.00  0.00    +0.000 A 
ATOM      9  C   UNL     1       0.923   9.523  20.522  0.00  0.00    +0.000 A 
ATOM     10  F   UNL     1       0.347  10.227  21.510  0.00  0.00    +0.000 F 
ATOM     11  C   UNL     1       1.250   8.185  20.765  0.00  0.00    +0.000 A 
BRANCH   8  12
ATOM     12  C   UNL     1       0.871  11.512  19.063  0.00  0.00    +0.000 C 
ATOM     13  C   UNL     1       0.570  12.670  18.898  0.00  0.00    +0.000 C 
BRANCH  13  14
ATOM     14  C   UNL     1       0.174  14.148  18.715  0.00  0.00    +0.000 C 
ATOM     15  C   UNL     1      -0.114  15.309  18.586  0.00  0.00    +0.000 C 
BRANCH  15  16
ATOM     16  C   UNL     1      -0.419  16.696  18.383  0.00  0.00    +0.000 C 
ATOM     17  C   UNL     1      -1.541  17.331  19.158  0.00  0.00    +0.000 C 
ATOM     18  C   UNL     1      -0.119  17.683  19.482  0.00  0.00    +0.000 C 
ENDBRANCH  15  16
ENDBRANCH  13  14
ENDBRANCH   8  12
ENDBRANCH   2   5
BRANCH   1  19
ATOM     19  C   UNL     1       3.165   3.784  19.356  0.00  0.00    +0.000 C 
BRANCH  19  20
ATOM     20  C   UNL     1       4.667   3.412  19.232  0.00  0.00    +0.000 C 
ATOM     21  O   UNL     1       5.237   2.561  19.917  0.00  0.00    +0.000 OA
ATOM     22  N   UNL     1       5.411   4.200  18.381  0.00  0.00    +0.000 N 
ATOM     23  H   UNL     1       5.124   5.162  18.203  0.00  0.00    +0.000 HD
BRANCH  22  24
ATOM     24  O   UNL     1       6.813   3.963  18.460  0.00  0.00    +0.000 OA
ATOM     25  H   UNL     1       6.982   3.419  17.657  0.00  0.00    +0.000 HD
ENDBRANCH  22  24
ENDBRANCH  19  20
BRANCH  19  27
ATOM     26  C   UNL     1       2.197   3.479  16.977  0.00  0.00    +0.000 C 
ATOM     27  C   UNL     1       2.250   2.916  18.412  0.00  0.00    +0.000 C 
ATOM     28  C   UNL     1       0.822   2.763  18.969  0.00  0.00    +0.000 C 
BRANCH  27  29
ATOM     29  N   UNL     1       2.819   1.551  18.278  0.00  0.00    +0.000 NA
ATOM     30  H   UNL     1       2.125   0.921  17.875  0.00  0.00    +0.000 HD
ATOM     31  H   UNL     1       3.058   1.180  19.194  0.00  0.00    +0.000 HD
ENDBRANCH  27  29
ENDBRANCH  19  27
ENDBRANCH   1  19
TORSDOF 9
ENDMDL
MODEL 7
REMARK VINA RESULT:      -7.0      1.963      2.212
REMARK  Name = 
REMARK  11 active torsions:
REMARK  status: ('A' for Active; 'I' for Inactive)
REMARK    1  A    between atoms: C_1  and  C_2
REMARK    2  A    between atoms: C_2  and  C_3
REMARK    3  A    between atoms: C_2  and  N_4
REMARK    4  A    between atoms: C_2  and  C_5
REMARK    5  A    between atoms: C_5  and  N_6
REMARK    6  A    between atoms: C_5  and  C_23
REMARK    7  A    between atoms: C_7  and  C_9
REMARK    8  A    between atoms: C_12  and  C_13
REMARK    9  A    between atoms: C_14  and  C_15
REMARK   10  A    between atoms: C_16  and  C_17
REMARK   11  A    between atoms: N_25  and  O_26
REMARK                            x       y       z     vdW  Elec       q    Type
REMARK                         _______ _______ _______ _____ _____    ______ ____
ROOT
ATOM      1  N   UNL     1       3.853   5.842  18.060  0.00  0.00    +0.000 N 
ATOM      2  C   UNL     1       2.502   5.891  18.346  0.00  0.00    +0.000 C 
ATOM      3  O   UNL     1       1.748   4.972  18.045  0.00  0.00    +0.000 OA
ATOM      4  H   UNL     1       4.487   6.455  18.553  0.00  0.00    +0.000 HD
ENDROOT
BRANCH   2   5
ATOM      5  C   UNL     1       1.974   7.079  19.099  0.00  0.00    +0.000 A 
ATOM      6  C   UNL     1       1.643   7.047  20.462  0.00  0.00    +0.000 A 
ATOM      7  C   UNL     1       1.170   8.207  21.112  0.00  0.00    +0.000 A 
ATOM      8  C   UNL     1       1.025   9.412  20.411  0.00  0.00    +0.000 A 
ATOM      9  C   UNL     1       1.384   9.438  19.063  0.00  0.00    +0.000 A 
ATOM     10  F   UNL     1       1.280  10.576  18.357  0.00  0.00    +0.000 F 
ATOM     11  C   UNL     1       1.858   8.295  18.412  0.00  0.00    +0.000 A 
BRANCH   8  12
ATOM     12  C   UNL     1       0.508  10.589  21.063  0.00  0.00    +0.000 C 
ATOM     13  C   UNL     1       0.076  11.598  21.567  0.00  0.00    +0.000 C 
BRANCH  13  14
ATOM     14  C   UNL     1      -0.492  12.890  22.185  0.00  0.00    +0.000 C 
ATOM     15  C   UNL     1      -0.952  13.885  22.682  0.00  0.00    +0.000 C 
BRANCH  15  16
ATOM     16  C   UNL     1      -1.461  15.062  23.322  0.00  0.00    +0.000 C 
ATOM     17  C   UNL     1      -2.723  14.977  24.139  0.00  0.00    +0.000 C 
ATOM     18  C   UNL     1      -1.402  15.165  24.825  0.00  0.00    +0.000 C 
ENDBRANCH  15  16
ENDBRANCH  13  14
ENDBRANCH   8  12
ENDBRANCH   2   5
BRANCH   1  19
ATOM     19  C   UNL     1       4.443   4.764  17.213  0.00  0.00    +0.000 C 
BRANCH  19  20
ATOM     20  C   UNL     1       4.545   3.404  17.953  0.00  0.00    +0.000 C 
ATOM     21  O   UNL     1       3.970   2.371  17.603  0.00  0.00    +0.000 OA
ATOM     22  N   UNL     1       5.226   3.423  19.150  0.00  0.00    +0.000 N 
ATOM     23  H   UNL     1       5.270   4.285  19.692  0.00  0.00    +0.000 HD
BRANCH  22  24
ATOM     24  O   UNL     1       5.112   2.214  19.893  0.00  0.00    +0.000 OA
ATOM     25  H   UNL     1       5.950   1.748  19.670  0.00  0.00    +0.000 HD
ENDBRANCH  22  24
ENDBRANCH  19  20
BRANCH  19  27
ATOM     26  C   UNL     1       6.429   6.418  17.307  0.00  0.00    +0.000 C 
ATOM     27  C   UNL     1       5.814   5.209  16.575  0.00  0.00    +0.000 C 
ATOM     28  C   UNL     1       5.681   5.515  15.072  0.00  0.00    +0.000 C 
BRANCH  27  29
ATOM     29  N   UNL     1       6.809   4.115  16.716  0.00  0.00    +0.000 NA
ATOM     30  H   UNL     1       7.341   4.014  15.852  0.00  0.00    +0.000 HD
ATOM     31  H   UNL     1       6.336   3.230  16.878  0.00  0.00    +0.000 HD
ENDBRANCH  27  29
ENDBRANCH  19  27
ENDBRANCH   1  19
TORSDOF 9
ENDMDL
MODEL 8
REMARK VINA RESULT:      -7.0      3.846      4.707
REMARK  Name = 
REMARK  11 active torsions:
REMARK  status: ('A' for Active; 'I' for Inactive)
REMARK    1  A    between atoms: C_1  and  C_2
REMARK    2  A    between atoms: C_2  and  C_3
REMARK    3  A    between atoms: C_2  and  N_4
REMARK    4  A    between atoms: C_2  and  C_5
REMARK    5  A    between atoms: C_5  and  N_6
REMARK    6  A    between atoms: C_5  and  C_23
REMARK    7  A    between atoms: C_7  and  C_9
REMARK    8  A    between atoms: C_12  and  C_13
REMARK    9  A    between atoms: C_14  and  C_15
REMARK   10  A    between atoms: C_16  and  C_17
REMARK   11  A    between atoms: N_25  and  O_26
REMARK                            x       y       z     vdW  Elec       q    Type
REMARK                         _______ _______ _______ _____ _____    ______ ____
ROOT
ATOM      1  N   UNL     1       2.786   5.641  19.020  0.00  0.00    +0.000 N 
ATOM      2  C   UNL     1       2.109   6.368  19.980  0.00  0.00    +0.000 C 
ATOM      3  O   UNL     1       1.824   5.885  21.071  0.00  0.00    +0.000 OA
ATOM      4  H   UNL     1       3.250   6.127  18.266  0.00  0.00    +0.000 HD
ENDROOT
BRANCH   2   5
ATOM      5  C   UNL     1       1.777   7.803  19.687  0.00  0.00    +0.000 A 
ATOM      6  C   UNL     1       1.998   8.411  18.441  0.00  0.00    +0.000 A 
ATOM      7  C   UNL     1       1.643   9.760  18.228  0.00  0.00    +0.000 A 
ATOM      8  C   UNL     1       1.062  10.518  19.254  0.00  0.00    +0.000 A 
ATOM      9  C   UNL     1       0.821   9.895  20.479  0.00  0.00    +0.000 A 
ATOM     10  F   UNL     1       0.248  10.578  21.484  0.00  0.00    +0.000 F 
ATOM     11  C   UNL     1       1.165   8.558  20.697  0.00  0.00    +0.000 A 
BRANCH   8  12
ATOM     12  C   UNL     1       0.732  11.906  19.051  0.00  0.00    +0.000 C 
ATOM     13  C   UNL     1       0.465  13.078  18.928  0.00  0.00    +0.000 C 
BRANCH  13  14
ATOM     14  C   UNL     1       0.145  14.578  18.790  0.00  0.00    +0.000 C 
ATOM     15  C   UNL     1      -0.091  15.751  18.659  0.00  0.00    +0.000 C 
BRANCH  15  16
ATOM     16  C   UNL     1      -0.421  17.133  18.468  0.00  0.00    +0.000 C 
ATOM     17  C   UNL     1       0.670  18.123  18.160  0.00  0.00    +0.000 C 
ATOM     18  C   UNL     1      -0.306  17.733  17.089  0.00  0.00    +0.000 C 
ENDBRANCH  15  16
ENDBRANCH  13  14
ENDBRANCH   8  12
ENDBRANCH   2   5
BRANCH   1  19
ATOM     19  C   UNL     1       3.048   4.180  19.175  0.00  0.00    +0.000 C 
BRANCH  19  20
ATOM     20  C   UNL     1       4.507   3.788  18.819  0.00  0.00    +0.000 C 
ATOM     21  O   UNL     1       5.239   3.094  19.527  0.00  0.00    +0.000 OA
ATOM     22  N   UNL     1       5.030   4.385  17.692  0.00  0.00    +0.000 N 
ATOM     23  H   UNL     1       4.673   5.291  17.389  0.00  0.00    +0.000 HD
BRANCH  22  24
ATOM     24  O   UNL     1       6.426   4.167  17.525  0.00  0.00    +0.000 OA
ATOM     25  H   UNL     1       6.819   4.948  17.978  0.00  0.00    +0.000 HD
ENDBRANCH  22  24
ENDBRANCH  19  20
BRANCH  19  27
ATOM     26  C   UNL     1       0.827   2.862  19.315  0.00  0.00    +0.000 C 
ATOM     27  C   UNL     1       1.985   3.312  18.401  0.00  0.00    +0.000 C 
ATOM     28  C   UNL     1       2.622   2.088  17.718  0.00  0.00    +0.000 C 
BRANCH  27  29
ATOM     29  N   UNL     1       1.350   4.130  17.337  0.00  0.00    +0.000 NA
ATOM     30  H   UNL     1       1.906   4.967  17.161  0.00  0.00    +0.000 HD
ATOM     31  H   UNL     1       0.431   4.443  17.638  0.00  0.00    +0.000 HD
ENDBRANCH  27  29
ENDBRANCH  19  27
ENDBRANCH   1  19
TORSDOF 9
ENDMDL
MODEL 9
REMARK VINA RESULT:      -7.0      2.234      2.738
REMARK  Name = 
REMARK  11 active torsions:
REMARK  status: ('A' for Active; 'I' for Inactive)
REMARK    1  A    between atoms: C_1  and  C_2
REMARK    2  A    between atoms: C_2  and  C_3
REMARK    3  A    between atoms: C_2  and  N_4
REMARK    4  A    between atoms: C_2  and  C_5
REMARK    5  A    between atoms: C_5  and  N_6
REMARK    6  A    between atoms: C_5  and  C_23
REMARK    7  A    between atoms: C_7  and  C_9
REMARK    8  A    between atoms: C_12  and  C_13
REMARK    9  A    between atoms: C_14  and  C_15
REMARK   10  A    between atoms: C_16  and  C_17
REMARK   11  A    between atoms: N_25  and  O_26
REMARK                            x       y       z     vdW  Elec       q    Type
REMARK                         _______ _______ _______ _____ _____    ______ ____
ROOT
ATOM      1  N   UNL     1       4.115   6.306  18.006  0.00  0.00    +0.000 N 
ATOM      2  C   UNL     1       3.025   6.294  18.854  0.00  0.00    +0.000 C 
ATOM      3  O   UNL     1       2.699   5.283  19.467  0.00  0.00    +0.000 OA
ATOM      4  H   UNL     1       4.528   7.189  17.740  0.00  0.00    +0.000 HD
ENDROOT
BRANCH   2   5
ATOM      5  C   UNL     1       2.269   7.575  19.064  0.00  0.00    +0.000 A 
ATOM      6  C   UNL     1       2.060   8.526  18.054  0.00  0.00    +0.000 A 
ATOM      7  C   UNL     1       1.322   9.700  18.317  0.00  0.00    +0.000 A 
ATOM      8  C   UNL     1       0.784   9.938  19.589  0.00  0.00    +0.000 A 
ATOM      9  C   UNL     1       0.976   8.973  20.577  0.00  0.00    +0.000 A 
ATOM     10  F   UNL     1       0.461   9.151  21.805  0.00  0.00    +0.000 F 
ATOM     11  C   UNL     1       1.701   7.804  20.325  0.00  0.00    +0.000 A 
BRANCH   8  12
ATOM     12  C   UNL     1       0.062  11.153  19.870  0.00  0.00    +0.000 C 
ATOM     13  C   UNL     1      -0.582  12.146  20.114  0.00  0.00    +0.000 C 
BRANCH  13  14
ATOM     14  C   UNL     1      -1.419  13.396  20.445  0.00  0.00    +0.000 C 
ATOM     15  C   UNL     1      -2.053  14.388  20.695  0.00  0.00    +0.000 C 
BRANCH  15  16
ATOM     16  C   UNL     1      -2.829  15.570  20.933  0.00  0.00    +0.000 C 
ATOM     17  C   UNL     1      -3.422  15.808  22.296  0.00  0.00    +0.000 C 
ATOM     18  C   UNL     1      -2.271  16.648  21.827  0.00  0.00    +0.000 C 
ENDBRANCH  15  16
ENDBRANCH  13  14
ENDBRANCH   8  12
ENDBRANCH   2   5
BRANCH   1  19
ATOM     19  C   UNL     1       4.848   5.057  17.643  0.00  0.00    +0.000 C 
BRANCH  19  20
ATOM     20  C   UNL     1       5.212   4.192  18.878  0.00  0.00    +0.000 C 
ATOM     21  O   UNL     1       6.015   4.523  19.753  0.00  0.00    +0.000 OA
ATOM     22  N   UNL     1       4.685   2.919  18.896  0.00  0.00    +0.000 N 
ATOM     23  H   UNL     1       4.458   2.455  18.016  0.00  0.00    +0.000 HD
BRANCH  22  24
ATOM     24  O   UNL     1       5.214   2.095  19.929  0.00  0.00    +0.000 OA
ATOM     25  H   UNL     1       6.055   1.770  19.532  0.00  0.00    +0.000 HD
ENDBRANCH  22  24
ENDBRANCH  19  20
BRANCH  19  27
ATOM     26  C   UNL     1       6.786   6.684  17.106  0.00  0.00    +0.000 C 
ATOM     27  C   UNL     1       6.095   5.358  16.728  0.00  0.00    +0.000 C 
ATOM     28  C   UNL     1       5.729   5.364  15.232  0.00  0.00    +0.000 C 
BRANCH  27  29
ATOM     29  N   UNL     1       7.126   4.308  16.925  0.00  0.00    +0.000 NA
ATOM     30  H   UNL     1       7.423   4.289  17.901  0.00  0.00    +0.000 HD
ATOM     31  H   UNL     1       7.951   4.518  16.369  0.00  0.00    +0.000 HD
ENDBRANCH  27  29
ENDBRANCH  19  27
ENDBRANCH   1  19
TORSDOF 9
ENDMDL
