MODEL 1
REMARK VINA RESULT:      -7.4      0.000      0.000
REMARK  Name = 
REMARK  8 active torsions:
REMARK  status: ('A' for Active; 'I' for Inactive)
REMARK    1  A    between atoms: C_1  and  O_2
REMARK    2  A    between atoms: O_2  and  C_3
REMARK    3  A    between atoms: C_5  and  N_6
REMARK    4  A    between atoms: N_6  and  C_7
REMARK    5  A    between atoms: C_15  and  O_16
REMARK    6  A    between atoms: O_16  and  C_17
REMARK    7  A    between atoms: C_18  and  O_19
REMARK    8  A    between atoms: O_19  and  C_20
REMARK                            x       y       z     vdW  Elec       q    Type
REMARK                         _______ _______ _______ _____ _____    ______ ____
ROOT
ATOM      1  C   UNL     1       5.222   6.486  17.383  0.00  0.00    +0.000 A 
ATOM      2  N   UNL     1       6.037   7.132  18.232  0.00  0.00    +0.000 NA
ATOM      3  C   UNL     1       7.325   7.190  17.892  0.00  0.00    +0.000 A 
ATOM      4  N   UNL     1       7.873   6.664  16.797  0.00  0.00    +0.000 NA
ATOM      5  C   UNL     1       7.074   6.007  15.971  0.00  0.00    +0.000 A 
ATOM      6  N   UNL     1       7.634   5.464  14.889  0.00  0.00    +0.000 NA
ATOM      7  C   UNL     1       6.896   4.750  14.020  0.00  0.00    +0.000 A 
ATOM      8  C   UNL     1       7.500   4.189  12.898  0.00  0.00    +0.000 A 
ATOM      9  C   UNL     1       6.788   3.418  11.961  0.00  0.00    +0.000 A 
ATOM     10  C   UNL     1       5.418   3.203  12.167  0.00  0.00    +0.000 A 
ATOM     11  C   UNL     1       4.801   3.769  13.288  0.00  0.00    +0.000 A 
ATOM     12  C   UNL     1       5.527   4.541  14.203  0.00  0.00    +0.000 A 
ATOM     13  C   UNL     1       4.929   5.122  15.319  0.00  0.00    +0.000 A 
ATOM     14  C   UNL     1       5.706   5.877  16.219  0.00  0.00    +0.000 A 
ENDROOT
BRANCH   1  15
ATOM     15  N   UNL     1       3.835   6.422  17.679  0.00  0.00    +0.000 N 
ATOM     16  H   UNL     1       3.434   7.358  17.688  0.00  0.00    +0.000 HD
BRANCH  15  19
ATOM     17  C   UNL     1       2.791   3.320  19.476  0.00  0.00    +0.000 A 
ATOM     18  C   UNL     1       3.408   4.190  18.571  0.00  0.00    +0.000 A 
ATOM     19  C   UNL     1       3.230   5.580  18.646  0.00  0.00    +0.000 A 
ATOM     20  C   UNL     1       2.376   6.088  19.638  0.00  0.00    +0.000 A 
ATOM     21 CL   UNL     1       2.070   7.786  19.750  0.00  0.00    +0.000 Cl
ATOM     22  C   UNL     1       1.758   5.238  20.557  0.00  0.00    +0.000 A 
ATOM     23  C   UNL     1       1.965   3.859  20.471  0.00  0.00    +0.000 A 
ATOM     24 CL   UNL     1       1.176   2.846  21.630  0.00  0.00    +0.000 Cl
BRANCH  17  26
ATOM     25  C   UNL     1       3.593   1.423  18.286  0.00  0.00    +0.000 C 
ATOM     26  O   UNL     1       2.912   1.956  19.419  0.00  0.00    +0.000 OA
ENDBRANCH  17  26
ENDBRANCH  15  19
ENDBRANCH   1  15
BRANCH   9  27
ATOM     27  O   UNL     1       7.372   2.866  10.853  0.00  0.00    +0.000 OA
ATOM     28  C   UNL     1       7.476   1.450  10.772  0.00  0.00    +0.000 C 
ENDBRANCH   9  27
BRANCH  10  29
ATOM     29  O   UNL     1       4.532   2.488  11.406  0.00  0.00    +0.000 OA
ATOM     30  C   UNL     1       3.508   3.178  10.707  0.00  0.00    +0.000 C 
ENDBRANCH  10  29
TORSDOF 5
ENDMDL
MODEL 2
REMARK VINA RESULT:      -7.4      5.263      7.363
REMARK  Name = 
REMARK  8 active torsions:
REMARK  status: ('A' for Active; 'I' for Inactive)
REMARK    1  A    between atoms: C_1  and  O_2
REMARK    2  A    between atoms: O_2  and  C_3
REMARK    3  A    between atoms: C_5  and  N_6
REMARK    4  A    between atoms: N_6  and  C_7
REMARK    5  A    between atoms: C_15  and  O_16
REMARK    6  A    between atoms: O_16  and  C_17
REMARK    7  A    between atoms: C_18  and  O_19
REMARK    8  A    between atoms: O_19  and  C_20
REMARK                            x       y       z     vdW  Elec       q    Type
REMARK                         _______ _______ _______ _____ _____    ______ ____
ROOT
ATOM      1  C   UNL     1       0.701   9.254  19.410  0.00  0.00    +0.000 A 
ATOM      2  N   UNL     1       0.034   9.268  20.576  0.00  0.00    +0.000 NA
ATOM      3  C   UNL     1       0.417   8.377  21.491  0.00  0.00    +0.000 A 
ATOM      4  N   UNL     1       1.390   7.477  21.352  0.00  0.00    +0.000 NA
ATOM      5  C   UNL     1       2.033   7.447  20.195  0.00  0.00    +0.000 A 
ATOM      6  N   UNL     1       2.990   6.528  20.056  0.00  0.00    +0.000 NA
ATOM      7  C   UNL     1       3.663   6.410  18.898  0.00  0.00    +0.000 A 
ATOM      8  C   UNL     1       4.657   5.443  18.772  0.00  0.00    +0.000 A 
ATOM      9  C   UNL     1       5.385   5.256  17.584  0.00  0.00    +0.000 A 
ATOM     10  C   UNL     1       5.097   6.074  16.481  0.00  0.00    +0.000 A 
ATOM     11  C   UNL     1       4.105   7.054  16.601  0.00  0.00    +0.000 A 
ATOM     12  C   UNL     1       3.399   7.228  17.797  0.00  0.00    +0.000 A 
ATOM     13  C   UNL     1       2.416   8.204  17.940  0.00  0.00    +0.000 A 
ATOM     14  C   UNL     1       1.722   8.329  19.159  0.00  0.00    +0.000 A 
ENDROOT
BRANCH   1  15
ATOM     15  N   UNL     1       0.357  10.203  18.412  0.00  0.00    +0.000 N 
ATOM     16  H   UNL     1       0.992  10.998  18.451  0.00  0.00    +0.000 HD
BRANCH  15  19
ATOM     17  C   UNL     1      -2.898  10.332  16.588  0.00  0.00    +0.000 A 
ATOM     18  C   UNL     1      -1.619   9.946  17.002  0.00  0.00    +0.000 A 
ATOM     19  C   UNL     1      -0.959  10.594  18.057  0.00  0.00    +0.000 A 
ATOM     20  C   UNL     1      -1.598  11.682  18.674  0.00  0.00    +0.000 A 
ATOM     21 CL   UNL     1      -0.815  12.559  19.942  0.00  0.00    +0.000 Cl
ATOM     22  C   UNL     1      -2.879  12.077  18.282  0.00  0.00    +0.000 A 
ATOM     23  C   UNL     1      -3.522  11.404  17.241  0.00  0.00    +0.000 A 
ATOM     24 CL   UNL     1      -5.106  11.932  16.790  0.00  0.00    +0.000 Cl
BRANCH  17  26
ATOM     25  C   UNL     1      -3.133  10.102  14.233  0.00  0.00    +0.000 C 
ATOM     26  O   UNL     1      -3.565   9.748  15.543  0.00  0.00    +0.000 OA
ENDBRANCH  17  26
ENDBRANCH  15  19
ENDBRANCH   1  15
BRANCH   9  27
ATOM     27  O   UNL     1       6.366   4.311  17.451  0.00  0.00    +0.000 OA
ATOM     28  C   UNL     1       7.688   4.639  17.861  0.00  0.00    +0.000 C 
ENDBRANCH   9  27
BRANCH  10  29
ATOM     29  O   UNL     1       5.661   6.072  15.233  0.00  0.00    +0.000 OA
ATOM     30  C   UNL     1       5.661   4.871  14.477  0.00  0.00    +0.000 C 
ENDBRANCH  10  29
TORSDOF 5
ENDMDL
MODEL 3
REMARK VINA RESULT:      -7.4      5.705      8.459
REMARK  Name = 
REMARK  8 active torsions:
REMARK  status: ('A' for Active; 'I' for Inactive)
REMARK    1  A    between atoms: C_1  and  O_2
REMARK    2  A    between atoms: O_2  and  C_3
REMARK    3  A    between atoms: C_5  and  N_6
REMARK    4  A    between atoms: N_6  and  C_7
REMARK    5  A    between atoms: C_15  and  O_16
REMARK    6  A    between atoms: O_16  and  C_17
REMARK    7  A    between atoms: C_18  and  O_19
REMARK    8  A    between atoms: O_19  and  C_20
REMARK                            x       y       z     vdW  Elec       q    Type
REMARK                         _______ _______ _______ _____ _____    ______ ____
ROOT
ATOM      1  C   UNL     1       0.885  10.084  19.517  0.00  0.00    +0.000 A 
ATOM      2  N   UNL     1       0.129  10.465  20.559  0.00  0.00    +0.000 NA
ATOM      3  C   UNL     1       0.033   9.602  21.571  0.00  0.00    +0.000 A 
ATOM      4  N   UNL     1       0.611   8.402  21.638  0.00  0.00    +0.000 NA
ATOM      5  C   UNL     1       1.338   8.017  20.601  0.00  0.00    +0.000 A 
ATOM      6  N   UNL     1       1.894   6.806  20.667  0.00  0.00    +0.000 NA
ATOM      7  C   UNL     1       2.617   6.327  19.638  0.00  0.00    +0.000 A 
ATOM      8  C   UNL     1       3.186   5.060  19.725  0.00  0.00    +0.000 A 
ATOM      9  C   UNL     1       3.938   4.495  18.679  0.00  0.00    +0.000 A 
ATOM     10  C   UNL     1       4.119   5.236  17.502  0.00  0.00    +0.000 A 
ATOM     11  C   UNL     1       3.556   6.514  17.409  0.00  0.00    +0.000 A 
ATOM     12  C   UNL     1       2.818   7.060  18.466  0.00  0.00    +0.000 A 
ATOM     13  C   UNL     1       2.259   8.334  18.397  0.00  0.00    +0.000 A 
ATOM     14  C   UNL     1       1.512   8.833  19.482  0.00  0.00    +0.000 A 
ENDROOT
BRANCH   1  15
ATOM     15  N   UNL     1       1.050  10.978  18.426  0.00  0.00    +0.000 N 
ATOM     16  H   UNL     1       1.685  10.579  17.738  0.00  0.00    +0.000 HD
BRANCH  15  19
ATOM     17  C   UNL     1       2.642  14.330  18.838  0.00  0.00    +0.000 A 
ATOM     18  C   UNL     1       2.464  12.951  18.691  0.00  0.00    +0.000 A 
ATOM     19  C   UNL     1       1.191  12.386  18.521  0.00  0.00    +0.000 A 
ATOM     20  C   UNL     1       0.076  13.240  18.540  0.00  0.00    +0.000 A 
ATOM     21 CL   UNL     1      -1.524  12.603  18.391  0.00  0.00    +0.000 Cl
ATOM     22  C   UNL     1       0.234  14.621  18.675  0.00  0.00    +0.000 A 
ATOM     23  C   UNL     1       1.513  15.160  18.826  0.00  0.00    +0.000 A 
ATOM     24 CL   UNL     1       1.657  16.876  18.993  0.00  0.00    +0.000 Cl
BRANCH  17  26
ATOM     25  C   UNL     1       4.717  15.019  17.902  0.00  0.00    +0.000 C 
ATOM     26  O   UNL     1       3.863  14.919  19.038  0.00  0.00    +0.000 OA
ENDBRANCH  17  26
ENDBRANCH  15  19
ENDBRANCH   1  15
BRANCH   9  27
ATOM     27  O   UNL     1       4.506   3.252  18.756  0.00  0.00    +0.000 OA
ATOM     28  C   UNL     1       3.653   2.120  18.873  0.00  0.00    +0.000 C 
ENDBRANCH   9  27
BRANCH  10  29
ATOM     29  O   UNL     1       4.795   4.894  16.361  0.00  0.00    +0.000 OA
ATOM     30  C   UNL     1       5.966   5.614  16.010  0.00  0.00    +0.000 C 
ENDBRANCH  10  29
TORSDOF 5
ENDMDL
MODEL 4
REMARK VINA RESULT:      -7.3      3.740      6.161
REMARK  Name = 
REMARK  8 active torsions:
REMARK  status: ('A' for Active; 'I' for Inactive)
REMARK    1  A    between atoms: C_1  and  O_2
REMARK    2  A    between atoms: O_2  and  C_3
REMARK    3  A    between atoms: C_5  and  N_6
REMARK    4  A    between atoms: N_6  and  C_7
REMARK    5  A    between atoms: C_15  and  O_16
REMARK    6  A    between atoms: O_16  and  C_17
REMARK    7  A    between atoms: C_18  and  O_19
REMARK    8  A    between atoms: O_19  and  C_20
REMARK                            x       y       z     vdW  Elec       q    Type
REMARK                         _______ _______ _______ _____ _____    ______ ____
ROOT
ATOM      1  C   UNL     1       1.786   5.789  20.354  0.00  0.00    +0.000 A 
ATOM      2  N   UNL     1       0.776   4.939  20.602  0.00  0.00    +0.000 NA
ATOM      3  C   UNL     1       0.826   3.759  19.983  0.00  0.00    +0.000 A 
ATOM      4  N   UNL     1       1.778   3.353  19.143  0.00  0.00    +0.000 NA
ATOM      5  C   UNL     1       2.761   4.198  18.881  0.00  0.00    +0.000 A 
ATOM      6  N   UNL     1       3.698   3.792  18.021  0.00  0.00    +0.000 NA
ATOM      7  C   UNL     1       4.710   4.607  17.675  0.00  0.00    +0.000 A 
ATOM      8  C   UNL     1       5.675   4.165  16.774  0.00  0.00    +0.000 A 
ATOM      9  C   UNL     1       6.748   4.974  16.359  0.00  0.00    +0.000 A 
ATOM     10  C   UNL     1       6.848   6.277  16.868  0.00  0.00    +0.000 A 
ATOM     11  C   UNL     1       5.886   6.727  17.780  0.00  0.00    +0.000 A 
ATOM     12  C   UNL     1       4.831   5.901  18.186  0.00  0.00    +0.000 A 
ATOM     13  C   UNL     1       3.870   6.326  19.101  0.00  0.00    +0.000 A 
ATOM     14  C   UNL     1       2.819   5.464  19.467  0.00  0.00    +0.000 A 
ENDROOT
BRANCH   1  15
ATOM     15  N   UNL     1       1.801   7.047  21.013  0.00  0.00    +0.000 N 
ATOM     16  H   UNL     1       1.631   6.923  22.009  0.00  0.00    +0.000 HD
BRANCH  15  19
ATOM     17  C   UNL     1       1.209  10.034  18.852  0.00  0.00    +0.000 A 
ATOM     18  C   UNL     1       1.716   8.826  19.344  0.00  0.00    +0.000 A 
ATOM     19  C   UNL     1       1.225   8.247  20.523  0.00  0.00    +0.000 A 
ATOM     20  C   UNL     1       0.226   8.930  21.235  0.00  0.00    +0.000 A 
ATOM     21 CL   UNL     1      -0.383   8.298  22.724  0.00  0.00    +0.000 Cl
ATOM     22  C   UNL     1      -0.301  10.132  20.756  0.00  0.00    +0.000 A 
ATOM     23  C   UNL     1       0.194  10.680  19.570  0.00  0.00    +0.000 A 
ATOM     24 CL   UNL     1      -0.488  12.171  19.019  0.00  0.00    +0.000 Cl
BRANCH  17  26
ATOM     25  C   UNL     1       2.604  11.719  17.918  0.00  0.00    +0.000 C 
ATOM     26  O   UNL     1       1.682  10.650  17.723  0.00  0.00    +0.000 OA
ENDBRANCH  17  26
ENDBRANCH  15  19
ENDBRANCH   1  15
BRANCH   9  27
ATOM     27  O   UNL     1       7.705   4.548  15.477  0.00  0.00    +0.000 OA
ATOM     28  C   UNL     1       7.496   4.766  14.087  0.00  0.00    +0.000 C 
ENDBRANCH   9  27
BRANCH  10  29
ATOM     29  O   UNL     1       7.788   7.238  16.605  0.00  0.00    +0.000 OA
ATOM     30  C   UNL     1       7.953   8.311  17.519  0.00  0.00    +0.000 C 
ENDBRANCH  10  29
TORSDOF 5
ENDMDL
MODEL 5
REMARK VINA RESULT:      -7.3      5.550      7.880
REMARK  Name = 
REMARK  8 active torsions:
REMARK  status: ('A' for Active; 'I' for Inactive)
REMARK    1  A    between atoms: C_1  and  O_2
REMARK    2  A    between atoms: O_2  and  C_3
REMARK    3  A    between atoms: C_5  and  N_6
REMARK    4  A    between atoms: N_6  and  C_7
REMARK    5  A    between atoms: C_15  and  O_16
REMARK    6  A    between atoms: O_16  and  C_17
REMARK    7  A    between atoms: C_18  and  O_19
REMARK    8  A    between atoms: O_19  and  C_20
REMARK                            x       y       z     vdW  Elec       q    Type
REMARK                         _______ _______ _______ _____ _____    ______ ____
ROOT
ATOM      1  C   UNL     1       0.870   9.608  19.137  0.00  0.00    +0.000 A 
ATOM      2  N   UNL     1       0.098   9.656  20.234  0.00  0.00    +0.000 NA
ATOM      3  C   UNL     1       0.306   8.708  21.149  0.00  0.00    +0.000 A 
ATOM      4  N   UNL     1       1.200   7.722  21.070  0.00  0.00    +0.000 NA
ATOM      5  C   UNL     1       1.946   7.662  19.979  0.00  0.00    +0.000 A 
ATOM      6  N   UNL     1       2.822   6.659  19.898  0.00  0.00    +0.000 NA
ATOM      7  C   UNL     1       3.591   6.507  18.804  0.00  0.00    +0.000 A 
ATOM      8  C   UNL     1       4.497   5.452  18.738  0.00  0.00    +0.000 A 
ATOM      9  C   UNL     1       5.317   5.229  17.618  0.00  0.00    +0.000 A 
ATOM     10  C   UNL     1       5.215   6.099  16.522  0.00  0.00    +0.000 A 
ATOM     11  C   UNL     1       4.311   7.166  16.583  0.00  0.00    +0.000 A 
ATOM     12  C   UNL     1       3.511   7.375  17.713  0.00  0.00    +0.000 A 
ATOM     13  C   UNL     1       2.614   8.438  17.798  0.00  0.00    +0.000 A 
ATOM     14  C   UNL     1       1.821   8.597  18.949  0.00  0.00    +0.000 A 
ENDROOT
BRANCH   1  15
ATOM     15  N   UNL     1       0.715  10.612  18.145  0.00  0.00    +0.000 N 
ATOM     16  H   UNL     1       1.179  10.329  17.283  0.00  0.00    +0.000 HD
BRANCH  15  19
ATOM     17  C   UNL     1       2.194  13.978  18.798  0.00  0.00    +0.000 A 
ATOM     18  C   UNL     1       2.062  12.610  18.536  0.00  0.00    +0.000 A 
ATOM     19  C   UNL     1       0.806  12.011  18.359  0.00  0.00    +0.000 A 
ATOM     20  C   UNL     1      -0.338  12.814  18.490  0.00  0.00    +0.000 A 
ATOM     21 CL   UNL     1      -1.918  12.127  18.339  0.00  0.00    +0.000 Cl
ATOM     22  C   UNL     1      -0.229  14.183  18.742  0.00  0.00    +0.000 A 
ATOM     23  C   UNL     1       1.034  14.759  18.897  0.00  0.00    +0.000 A 
ATOM     24 CL   UNL     1       1.119  16.458  19.210  0.00  0.00    +0.000 Cl
BRANCH  17  26
ATOM     25  C   UNL     1       4.111  15.017  17.849  0.00  0.00    +0.000 C 
ATOM     26  O   UNL     1       3.398  14.597  19.009  0.00  0.00    +0.000 OA
ENDBRANCH  17  26
ENDBRANCH  15  19
ENDBRANCH   1  15
BRANCH   9  27
ATOM     27  O   UNL     1       6.214   4.197  17.544  0.00  0.00    +0.000 OA
ATOM     28  C   UNL     1       7.594   4.479  17.741  0.00  0.00    +0.000 C 
ENDBRANCH   9  27
BRANCH  10  29
ATOM     29  O   UNL     1       5.894   6.075  15.334  0.00  0.00    +0.000 OA
ATOM     30  C   UNL     1       5.741   4.959  14.472  0.00  0.00    +0.000 C 
ENDBRANCH  10  29
TORSDOF 5
ENDMDL
MODEL 6
REMARK VINA RESULT:      -7.2      3.703      6.103
REMARK  Name = 
REMARK  8 active torsions:
REMARK  status: ('A' for Active; 'I' for Inactive)
REMARK    1  A    between atoms: C_1  and  O_2
REMARK    2  A    between atoms: O_2  and  C_3
REMARK    3  A    between atoms: C_5  and  N_6
REMARK    4  A    between atoms: N_6  and  C_7
REMARK    5  A    between atoms: C_15  and  O_16
REMARK    6  A    between atoms: O_16  and  C_17
REMARK    7  A    between atoms: C_18  and  O_19
REMARK    8  A    between atoms: O_19  and  C_20
REMARK                            x       y       z     vdW  Elec       q    Type
REMARK                         _______ _______ _______ _____ _____    ______ ____
ROOT
ATOM      1  C   UNL     1       1.803   5.788  20.361  0.00  0.00    +0.000 A 
ATOM      2  N   UNL     1       0.759   4.967  20.556  0.00  0.00    +0.000 NA
ATOM      3  C   UNL     1       0.744   3.843  19.838  0.00  0.00    +0.000 A 
ATOM      4  N   UNL     1       1.661   3.468  18.947  0.00  0.00    +0.000 NA
ATOM      5  C   UNL     1       2.678   4.288  18.737  0.00  0.00    +0.000 A 
ATOM      6  N   UNL     1       3.580   3.916  17.826  0.00  0.00    +0.000 NA
ATOM      7  C   UNL     1       4.623   4.711  17.529  0.00  0.00    +0.000 A 
ATOM      8  C   UNL     1       5.551   4.306  16.574  0.00  0.00    +0.000 A 
ATOM      9  C   UNL     1       6.654   5.098  16.207  0.00  0.00    +0.000 A 
ATOM     10  C   UNL     1       6.823   6.347  16.823  0.00  0.00    +0.000 A 
ATOM     11  C   UNL     1       5.899   6.759  17.790  0.00  0.00    +0.000 A 
ATOM     12  C   UNL     1       4.813   5.950  18.147  0.00  0.00    +0.000 A 
ATOM     13  C   UNL     1       3.889   6.337  19.114  0.00  0.00    +0.000 A 
ATOM     14  C   UNL     1       2.805   5.495  19.427  0.00  0.00    +0.000 A 
ENDROOT
BRANCH   1  15
ATOM     15  N   UNL     1       1.888   6.983  21.123  0.00  0.00    +0.000 N 
ATOM     16  H   UNL     1       1.772   6.776  22.114  0.00  0.00    +0.000 HD
BRANCH  15  19
ATOM     17  C   UNL     1       0.427   9.720  19.047  0.00  0.00    +0.000 A 
ATOM     18  C   UNL     1       0.948   8.484  19.444  0.00  0.00    +0.000 A 
ATOM     19  C   UNL     1       1.317   8.233  20.774  0.00  0.00    +0.000 A 
ATOM     20  C   UNL     1       1.189   9.273  21.708  0.00  0.00    +0.000 A 
ATOM     21 CL   UNL     1       1.678   9.046  23.351  0.00  0.00    +0.000 Cl
ATOM     22  C   UNL     1       0.661  10.511  21.335  0.00  0.00    +0.000 A 
ATOM     23  C   UNL     1       0.285  10.731  20.008  0.00  0.00    +0.000 A 
ATOM     24 CL   UNL     1      -0.361  12.281  19.593  0.00  0.00    +0.000 Cl
BRANCH  17  26
ATOM     25  C   UNL     1      -1.290   9.868  17.408  0.00  0.00    +0.000 C 
ATOM     26  O   UNL     1       0.084  10.018  17.754  0.00  0.00    +0.000 OA
ENDBRANCH  17  26
ENDBRANCH  15  19
ENDBRANCH   1  15
BRANCH   9  27
ATOM     27  O   UNL     1       7.574   4.707  15.272  0.00  0.00    +0.000 OA
ATOM     28  C   UNL     1       7.197   4.711  13.901  0.00  0.00    +0.000 C 
ENDBRANCH   9  27
BRANCH  10  29
ATOM     29  O   UNL     1       7.801   7.283  16.623  0.00  0.00    +0.000 OA
ATOM     30  C   UNL     1       7.953   8.336  17.563  0.00  0.00    +0.000 C 
ENDBRANCH  10  29
TORSDOF 5
ENDMDL
MODEL 7
REMARK VINA RESULT:      -7.1      6.254      9.157
REMARK  Name = 
REMARK  8 active torsions:
REMARK  status: ('A' for Active; 'I' for Inactive)
REMARK    1  A    between atoms: C_1  and  O_2
REMARK    2  A    between atoms: O_2  and  C_3
REMARK    3  A    between atoms: C_5  and  N_6
REMARK    4  A    between atoms: N_6  and  C_7
REMARK    5  A    between atoms: C_15  and  O_16
REMARK    6  A    between atoms: O_16  and  C_17
REMARK    7  A    between atoms: C_18  and  O_19
REMARK    8  A    between atoms: O_19  and  C_20
REMARK                            x       y       z     vdW  Elec       q    Type
REMARK                         _______ _______ _______ _____ _____    ______ ____
ROOT
ATOM      1  C   UNL     1       1.314   9.025  19.452  0.00  0.00    +0.000 A 
ATOM      2  N   UNL     1       1.836   9.213  20.674  0.00  0.00    +0.000 NA
ATOM      3  C   UNL     1       1.129   9.971  21.513  0.00  0.00    +0.000 A 
ATOM      4  N   UNL     1      -0.037  10.560  21.246  0.00  0.00    +0.000 NA
ATOM      5  C   UNL     1      -0.541  10.394  20.034  0.00  0.00    +0.000 A 
ATOM      6  N   UNL     1      -1.697  11.005  19.769  0.00  0.00    +0.000 NA
ATOM      7  C   UNL     1      -2.255  10.915  18.548  0.00  0.00    +0.000 A 
ATOM      8  C   UNL     1      -3.460  11.563  18.290  0.00  0.00    +0.000 A 
ATOM      9  C   UNL     1      -4.086  11.522  17.032  0.00  0.00    +0.000 A 
ATOM     10  C   UNL     1      -3.472  10.805  15.995  0.00  0.00    +0.000 A 
ATOM     11  C   UNL     1      -2.264  10.145  16.247  0.00  0.00    +0.000 A 
ATOM     12  C   UNL     1      -1.662  10.191  17.511  0.00  0.00    +0.000 A 
ATOM     13  C   UNL     1      -0.466   9.532  17.785  0.00  0.00    +0.000 A 
ATOM     14  C   UNL     1       0.107   9.622  19.068  0.00  0.00    +0.000 A 
ENDROOT
BRANCH   1  15
ATOM     15  N   UNL     1       2.008   8.198  18.529  0.00  0.00    +0.000 N 
ATOM     16  H   UNL     1       1.539   8.209  17.626  0.00  0.00    +0.000 HD
BRANCH  15  19
ATOM     17  C   UNL     1       2.653   4.945  20.244  0.00  0.00    +0.000 A 
ATOM     18  C   UNL     1       2.092   6.178  19.898  0.00  0.00    +0.000 A 
ATOM     19  C   UNL     1       2.573   6.929  18.815  0.00  0.00    +0.000 A 
ATOM     20  C   UNL     1       3.672   6.431  18.096  0.00  0.00    +0.000 A 
ATOM     21 CL   UNL     1       4.348   7.334  16.786  0.00  0.00    +0.000 Cl
ATOM     22  C   UNL     1       4.240   5.197  18.419  0.00  0.00    +0.000 A 
ATOM     23  C   UNL     1       3.732   4.461  19.491  0.00  0.00    +0.000 A 
ATOM     24 CL   UNL     1       4.471   2.940  19.854  0.00  0.00    +0.000 Cl
BRANCH  17  26
ATOM     25  C   UNL     1       1.198   3.251  21.062  0.00  0.00    +0.000 C 
ATOM     26  O   UNL     1       2.236   4.195  21.312  0.00  0.00    +0.000 OA
ENDBRANCH  17  26
ENDBRANCH  15  19
ENDBRANCH   1  15
BRANCH   9  27
ATOM     27  O   UNL     1      -5.273  12.152  16.769  0.00  0.00    +0.000 OA
ATOM     28  C   UNL     1      -6.175  12.383  17.845  0.00  0.00    +0.000 C 
ENDBRANCH   9  27
BRANCH  10  29
ATOM     29  O   UNL     1      -3.884  10.634  14.700  0.00  0.00    +0.000 OA
ATOM     30  C   UNL     1      -3.062   9.902  13.804  0.00  0.00    +0.000 C 
ENDBRANCH  10  29
TORSDOF 5
ENDMDL
MODEL 8
REMARK VINA RESULT:      -7.1      6.038      9.154
REMARK  Name = 
REMARK  8 active torsions:
REMARK  status: ('A' for Active; 'I' for Inactive)
REMARK    1  A    between atoms: C_1  and  O_2
REMARK    2  A    between atoms: O_2  and  C_3
REMARK    3  A    between atoms: C_5  and  N_6
REMARK    4  A    between atoms: N_6  and  C_7
REMARK    5  A    between atoms: C_15  and  O_16
REMARK    6  A    between atoms: O_16  and  C_17
REMARK    7  A    between atoms: C_18  and  O_19
REMARK    8  A    between atoms: O_19  and  C_20
REMARK                            x       y       z     vdW  Elec       q    Type
REMARK                         _______ _______ _______ _____ _____    ______ ____
ROOT
ATOM      1  C   UNL     1       1.332   8.954  21.087  0.00  0.00    +0.000 A 
ATOM      2  N   UNL     1       1.504   9.071  22.414  0.00  0.00    +0.000 NA
ATOM      3  C   UNL     1       0.571   9.756  23.077  0.00  0.00    +0.000 A 
ATOM      4  N   UNL     1      -0.505  10.334  22.544  0.00  0.00    +0.000 NA
ATOM      5  C   UNL     1      -0.663  10.238  21.234  0.00  0.00    +0.000 A 
ATOM      6  N   UNL     1      -1.731  10.840  20.706  0.00  0.00    +0.000 NA
ATOM      7  C   UNL     1      -1.943  10.820  19.377  0.00  0.00    +0.000 A 
ATOM      8  C   UNL     1      -3.061  11.455  18.846  0.00  0.00    +0.000 A 
ATOM      9  C   UNL     1      -3.330  11.485  17.466  0.00  0.00    +0.000 A 
ATOM     10  C   UNL     1      -2.435  10.853  16.590  0.00  0.00    +0.000 A 
ATOM     11  C   UNL     1      -1.312  10.205  17.117  0.00  0.00    +0.000 A 
ATOM     12  C   UNL     1      -1.069  10.180  18.495  0.00  0.00    +0.000 A 
ATOM     13  C   UNL     1       0.038   9.531  19.039  0.00  0.00    +0.000 A 
ATOM     14  C   UNL     1       0.247   9.548  20.431  0.00  0.00    +0.000 A 
ENDROOT
BRANCH   1  15
ATOM     15  N   UNL     1       2.278   8.207  20.336  0.00  0.00    +0.000 N 
ATOM     16  H   UNL     1       2.751   8.811  19.667  0.00  0.00    +0.000 HD
BRANCH  15  19
ATOM     17  C   UNL     1       1.439   4.571  20.207  0.00  0.00    +0.000 A 
ATOM     18  C   UNL     1       1.601   5.884  20.661  0.00  0.00    +0.000 A 
ATOM     19  C   UNL     1       2.082   6.900  19.822  0.00  0.00    +0.000 A 
ATOM     20  C   UNL     1       2.441   6.562  18.507  0.00  0.00    +0.000 A 
ATOM     21 CL   UNL     1       3.092   7.756  17.439  0.00  0.00    +0.000 Cl
ATOM     22  C   UNL     1       2.278   5.260  18.031  0.00  0.00    +0.000 A 
ATOM     23  C   UNL     1       1.781   4.270  18.882  0.00  0.00    +0.000 A 
ATOM     24 CL   UNL     1       1.599   2.671  18.248  0.00  0.00    +0.000 Cl
BRANCH  17  26
ATOM     25  C   UNL     1       2.008   2.776  21.660  0.00  0.00    +0.000 C 
ATOM     26  O   UNL     1       1.003   3.542  21.001  0.00  0.00    +0.000 OA
ENDBRANCH  17  26
ENDBRANCH  15  19
ENDBRANCH   1  15
BRANCH   9  27
ATOM     27  O   UNL     1      -4.429  12.104  16.934  0.00  0.00    +0.000 OA
ATOM     28  C   UNL     1      -5.703  11.845  17.511  0.00  0.00    +0.000 C 
ENDBRANCH   9  27
BRANCH  10  29
ATOM     29  O   UNL     1      -2.483  10.760  15.225  0.00  0.00    +0.000 OA
ATOM     30  C   UNL     1      -3.458   9.923  14.623  0.00  0.00    +0.000 C 
ENDBRANCH  10  29
TORSDOF 5
ENDMDL
MODEL 9
REMARK VINA RESULT:      -7.0      3.854      6.251
REMARK  Name = 
REMARK  8 active torsions:
REMARK  status: ('A' for Active; 'I' for Inactive)
REMARK    1  A    between atoms: C_1  and  O_2
REMARK    2  A    between atoms: O_2  and  C_3
REMARK    3  A    between atoms: C_5  and  N_6
REMARK    4  A    between atoms: N_6  and  C_7
REMARK    5  A    between atoms: C_15  and  O_16
REMARK    6  A    between atoms: O_16  and  C_17
REMARK    7  A    between atoms: C_18  and  O_19
REMARK    8  A    between atoms: O_19  and  C_20
REMARK                            x       y       z     vdW  Elec       q    Type
REMARK                         _______ _______ _______ _____ _____    ______ ____
ROOT
ATOM      1  C   UNL     1       1.837   5.753  20.343  0.00  0.00    +0.000 A 
ATOM      2  N   UNL     1       0.773   4.960  20.548  0.00  0.00    +0.000 NA
ATOM      3  C   UNL     1       0.717   3.841  19.824  0.00  0.00    +0.000 A 
ATOM      4  N   UNL     1       1.613   3.446  18.919  0.00  0.00    +0.000 NA
ATOM      5  C   UNL     1       2.650   4.238  18.701  0.00  0.00    +0.000 A 
ATOM      6  N   UNL     1       3.529   3.846  17.778  0.00  0.00    +0.000 NA
ATOM      7  C   UNL     1       4.591   4.614  17.472  0.00  0.00    +0.000 A 
ATOM      8  C   UNL     1       5.496   4.188  16.504  0.00  0.00    +0.000 A 
ATOM      9  C   UNL     1       6.615   4.951  16.127  0.00  0.00    +0.000 A 
ATOM     10  C   UNL     1       6.827   6.191  16.748  0.00  0.00    +0.000 A 
ATOM     11  C   UNL     1       5.926   6.623  17.728  0.00  0.00    +0.000 A 
ATOM     12  C   UNL     1       4.823   5.843  18.094  0.00  0.00    +0.000 A 
ATOM     13  C   UNL     1       3.922   6.251  19.075  0.00  0.00    +0.000 A 
ATOM     14  C   UNL     1       2.819   5.437  19.396  0.00  0.00    +0.000 A 
ENDROOT
BRANCH   1  15
ATOM     15  N   UNL     1       1.964   6.941  21.111  0.00  0.00    +0.000 N 
ATOM     16  H   UNL     1       2.103   6.710  22.094  0.00  0.00    +0.000 HD
BRANCH  15  19
ATOM     17  C   UNL     1      -0.424   9.709  21.865  0.00  0.00    +0.000 A 
ATOM     18  C   UNL     1       0.386   8.578  22.000  0.00  0.00    +0.000 A 
ATOM     19  C   UNL     1       1.195   8.121  20.949  0.00  0.00    +0.000 A 
ATOM     20  C   UNL     1       1.147   8.808  19.725  0.00  0.00    +0.000 A 
ATOM     21 CL   UNL     1       2.077   8.264  18.373  0.00  0.00    +0.000 Cl
ATOM     22  C   UNL     1       0.352   9.946  19.572  0.00  0.00    +0.000 A 
ATOM     23  C   UNL     1      -0.432  10.390  20.640  0.00  0.00    +0.000 A 
ATOM     24 CL   UNL     1      -1.402  11.802  20.402  0.00  0.00    +0.000 Cl
BRANCH  17  26
ATOM     25  C   UNL     1      -1.162  11.557  23.167  0.00  0.00    +0.000 C 
ATOM     26  O   UNL     1      -1.253  10.170  22.854  0.00  0.00    +0.000 OA
ENDBRANCH  17  26
ENDBRANCH  15  19
ENDBRANCH   1  15
BRANCH   9  27
ATOM     27  O   UNL     1       7.513   4.540  15.179  0.00  0.00    +0.000 OA
ATOM     28  C   UNL     1       7.098   4.499  13.819  0.00  0.00    +0.000 C 
ENDBRANCH   9  27
BRANCH  10  29
ATOM     29  O   UNL     1       7.829   7.101  16.541  0.00  0.00    +0.000 OA
ATOM     30  C   UNL     1       7.995   8.167  17.462  0.00  0.00    +0.000 C 
ENDBRANCH  10  29
TORSDOF 5
ENDMDL
