MODEL 1
REMARK VINA RESULT:      -7.2      0.000      0.000
REMARK  Name = 
REMARK  10 active torsions:
REMARK  status: ('A' for Active; 'I' for Inactive)
REMARK    1  A    between atoms: C_1  and  O_2
REMARK    2  A    between atoms: O_2  and  C_3
REMARK    3  A    between atoms: C_7  and  O_8
REMARK    4  A    between atoms: O_8  and  C_9
REMARK    5  A    between atoms: C_9  and  C_10
REMARK    6  A    between atoms: C_15  and  C_16
REMARK    7  A    between atoms: N_20  and  C_21
REMARK    8  A    between atoms: C_21  and  C_22
REMARK    9  A    between atoms: C_21  and  C_23
REMARK   10  A    between atoms: C_24  and  C_25
REMARK                            x       y       z     vdW  Elec       q    Type
REMARK                         _______ _______ _______ _____ _____    ______ ____
ROOT
ATOM      1  C   UNL     1       3.566   4.992  19.448  0.00  0.00    +0.000 A 
ATOM      2  C   UNL     1       2.510   4.221  19.958  0.00  0.00    +0.000 A 
ATOM      3  C   UNL     1       2.709   2.893  20.311  0.00  0.00    +0.000 A 
ATOM      4  C   UNL     1       3.972   2.365  20.150  0.00  0.00    +0.000 A 
ATOM      5  N   UNL     1       5.021   3.070  19.675  0.00  0.00    +0.000 NA
ATOM      6  C   UNL     1       4.817   4.362  19.322  0.00  0.00    +0.000 A 
ENDROOT
BRANCH   6   7
ATOM      7  C   UNL     1       6.016   5.026  18.788  0.00  0.00    +0.000 A 
ATOM      8  C   UNL     1       7.128   5.529  19.449  0.00  0.00    +0.000 A 
ATOM      9  C   UNL     1       7.865   6.232  18.489  0.00  0.00    +0.000 A 
ATOM     10  N   UNL     1       7.330   6.128  17.279  0.00  0.00    +0.000 NA
ATOM     11  N   UNL     1       6.259   5.313  17.452  0.00  0.00    +0.000 N 
BRANCH  11  12
ATOM     12  C   UNL     1       5.477   4.943  16.271  0.00  0.00    +0.000 C 
ATOM     13  C   UNL     1       5.216   6.163  15.392  0.00  0.00    +0.000 C 
ATOM     14  C   UNL     1       6.126   3.816  15.454  0.00  0.00    +0.000 C 
ENDBRANCH  11  12
ENDBRANCH   6   7
BRANCH   1  15
ATOM     15  C   UNL     1       3.365   6.440  19.064  0.00  0.00    +0.000 C 
BRANCH  15  16
ATOM     16  O   UNL     1       2.333   7.113  19.793  0.00  0.00    +0.000 OA
BRANCH  16  21
ATOM     17  C   UNL     1       0.743  10.414  19.889  0.00  0.00    +0.000 A 
ATOM     18  C   UNL     1       0.976  10.793  18.572  0.00  0.00    +0.000 A 
ATOM     19  N   UNL     1       1.562  10.008  17.648  0.00  0.00    +0.000 NA
ATOM     20  C   UNL     1       1.978   8.792  18.061  0.00  0.00    +0.000 A 
ATOM     21  C   UNL     1       1.869   8.320  19.365  0.00  0.00    +0.000 A 
ATOM     22  C   UNL     1       1.221   9.157  20.291  0.00  0.00    +0.000 A 
BRANCH  17  24
ATOM     23  C   UNL     1       0.210  12.620  20.532  0.00  0.00    +0.000 C 
ATOM     24  O   UNL     1       0.125  11.221  20.806  0.00  0.00    +0.000 OA
ENDBRANCH  17  24
BRANCH  22  25
ATOM     25  C   UNL     1       1.033   8.755  21.713  0.00  0.00    +0.000 C 
ATOM     26  O   UNL     1       1.636   9.248  22.662  0.00  0.00    +0.000 OA
ENDBRANCH  22  25
ENDBRANCH  16  21
ENDBRANCH  15  16
ENDBRANCH   1  15
TORSDOF 7
ENDMDL
MODEL 2
REMARK VINA RESULT:      -7.2      1.079      1.111
REMARK  Name = 
REMARK  10 active torsions:
REMARK  status: ('A' for Active; 'I' for Inactive)
REMARK    1  A    between atoms: C_1  and  O_2
REMARK    2  A    between atoms: O_2  and  C_3
REMARK    3  A    between atoms: C_7  and  O_8
REMARK    4  A    between atoms: O_8  and  C_9
REMARK    5  A    between atoms: C_9  and  C_10
REMARK    6  A    between atoms: C_15  and  C_16
REMARK    7  A    between atoms: N_20  and  C_21
REMARK    8  A    between atoms: C_21  and  C_22
REMARK    9  A    between atoms: C_21  and  C_23
REMARK   10  A    between atoms: C_24  and  C_25
REMARK                            x       y       z     vdW  Elec       q    Type
REMARK                         _______ _______ _______ _____ _____    ______ ____
ROOT
ATOM      1  C   UNL     1       3.137   4.895  18.854  0.00  0.00    +0.000 A 
ATOM      2  C   UNL     1       1.850   4.333  18.848  0.00  0.00    +0.000 A 
ATOM      3  C   UNL     1       1.618   3.100  18.253  0.00  0.00    +0.000 A 
ATOM      4  C   UNL     1       2.690   2.450  17.679  0.00  0.00    +0.000 A 
ATOM      5  N   UNL     1       3.946   2.944  17.670  0.00  0.00    +0.000 NA
ATOM      6  C   UNL     1       4.162   4.152  18.242  0.00  0.00    +0.000 A 
ENDROOT
BRANCH   6   7
ATOM      7  C   UNL     1       5.557   4.610  18.148  0.00  0.00    +0.000 A 
ATOM      8  C   UNL     1       6.540   4.690  19.126  0.00  0.00    +0.000 A 
ATOM      9  C   UNL     1       7.609   5.380  18.545  0.00  0.00    +0.000 A 
ATOM     10  N   UNL     1       7.387   5.656  17.266  0.00  0.00    +0.000 NA
ATOM     11  N   UNL     1       6.177   5.099  17.006  0.00  0.00    +0.000 N 
BRANCH  11  12
ATOM     12  C   UNL     1       5.664   5.174  15.637  0.00  0.00    +0.000 C 
ATOM     13  C   UNL     1       5.080   6.555  15.354  0.00  0.00    +0.000 C 
ATOM     14  C   UNL     1       6.718   4.805  14.583  0.00  0.00    +0.000 C 
ENDBRANCH  11  12
ENDBRANCH   6   7
BRANCH   1  15
ATOM     15  C   UNL     1       3.405   6.234  19.502  0.00  0.00    +0.000 C 
BRANCH  15  16
ATOM     16  O   UNL     1       2.235   6.920  19.958  0.00  0.00    +0.000 OA
BRANCH  16  21
ATOM     17  C   UNL     1       0.862  10.308  19.684  0.00  0.00    +0.000 A 
ATOM     18  C   UNL     1       1.224  10.571  18.369  0.00  0.00    +0.000 A 
ATOM     19  N   UNL     1       1.829   9.685  17.555  0.00  0.00    +0.000 NA
ATOM     20  C   UNL     1       2.130   8.481  18.087  0.00  0.00    +0.000 A 
ATOM     21  C   UNL     1       1.887   8.118  19.407  0.00  0.00    +0.000 A 
ATOM     22  C   UNL     1       1.223   9.059  20.214  0.00  0.00    +0.000 A 
BRANCH  17  24
ATOM     23  C   UNL     1      -1.046  11.657  20.008  0.00  0.00    +0.000 C 
ATOM     24  O   UNL     1       0.226  11.218  20.486  0.00  0.00    +0.000 OA
ENDBRANCH  17  24
BRANCH  22  25
ATOM     25  C   UNL     1       0.896   8.779  21.639  0.00  0.00    +0.000 C 
ATOM     26  O   UNL     1       1.538   9.198  22.598  0.00  0.00    +0.000 OA
ENDBRANCH  22  25
ENDBRANCH  16  21
ENDBRANCH  15  16
ENDBRANCH   1  15
TORSDOF 7
ENDMDL
MODEL 3
REMARK VINA RESULT:      -7.1      1.354      1.891
REMARK  Name = 
REMARK  10 active torsions:
REMARK  status: ('A' for Active; 'I' for Inactive)
REMARK    1  A    between atoms: C_1  and  O_2
REMARK    2  A    between atoms: O_2  and  C_3
REMARK    3  A    between atoms: C_7  and  O_8
REMARK    4  A    between atoms: O_8  and  C_9
REMARK    5  A    between atoms: C_9  and  C_10
REMARK    6  A    between atoms: C_15  and  C_16
REMARK    7  A    between atoms: N_20  and  C_21
REMARK    8  A    between atoms: C_21  and  C_22
REMARK    9  A    between atoms: C_21  and  C_23
REMARK   10  A    between atoms: C_24  and  C_25
REMARK                            x       y       z     vdW  Elec       q    Type
REMARK                         _______ _______ _______ _____ _____    ______ ____
ROOT
ATOM      1  C   UNL     1       3.543   5.105  19.621  0.00  0.00    +0.000 A 
ATOM      2  C   UNL     1       2.502   4.313  20.130  0.00  0.00    +0.000 A 
ATOM      3  C   UNL     1       2.693   2.957  20.362  0.00  0.00    +0.000 A 
ATOM      4  C   UNL     1       3.933   2.423  20.084  0.00  0.00    +0.000 A 
ATOM      5  N   UNL     1       4.968   3.147  19.605  0.00  0.00    +0.000 NA
ATOM      6  C   UNL     1       4.771   4.466  19.371  0.00  0.00    +0.000 A 
ENDROOT
BRANCH   6   7
ATOM      7  C   UNL     1       5.951   5.151  18.822  0.00  0.00    +0.000 A 
ATOM      8  C   UNL     1       7.080   5.642  19.464  0.00  0.00    +0.000 A 
ATOM      9  C   UNL     1       7.785   6.375  18.504  0.00  0.00    +0.000 A 
ATOM     10  N   UNL     1       7.217   6.302  17.306  0.00  0.00    +0.000 NA
ATOM     11  N   UNL     1       6.154   5.476  17.488  0.00  0.00    +0.000 N 
BRANCH  11  12
ATOM     12  C   UNL     1       5.341   5.134  16.319  0.00  0.00    +0.000 C 
ATOM     13  C   UNL     1       5.184   6.341  15.399  0.00  0.00    +0.000 C 
ATOM     14  C   UNL     1       5.889   3.928  15.542  0.00  0.00    +0.000 C 
ENDBRANCH  11  12
ENDBRANCH   6   7
BRANCH   1  15
ATOM     15  C   UNL     1       3.352   6.583  19.368  0.00  0.00    +0.000 C 
BRANCH  15  16
ATOM     16  O   UNL     1       1.987   7.010  19.335  0.00  0.00    +0.000 OA
BRANCH  16  21
ATOM     17  C   UNL     1       0.784  10.368  20.181  0.00  0.00    +0.000 A 
ATOM     18  C   UNL     1       0.696  10.214  21.559  0.00  0.00    +0.000 A 
ATOM     19  N   UNL     1       1.067   9.103  22.225  0.00  0.00    +0.000 NA
ATOM     20  C   UNL     1       1.513   8.070  21.479  0.00  0.00    +0.000 A 
ATOM     21  C   UNL     1       1.583   8.070  20.090  0.00  0.00    +0.000 A 
ATOM     22  C   UNL     1       1.219   9.260  19.435  0.00  0.00    +0.000 A 
BRANCH  17  24
ATOM     23  C   UNL     1       1.109  12.693  19.952  0.00  0.00    +0.000 C 
ATOM     24  O   UNL     1       0.422  11.515  19.528  0.00  0.00    +0.000 OA
ENDBRANCH  17  24
BRANCH  22  25
ATOM     25  C   UNL     1       1.265   9.385  17.952  0.00  0.00    +0.000 C 
ATOM     26  O   UNL     1       2.288   9.566  17.299  0.00  0.00    +0.000 OA
ENDBRANCH  22  25
ENDBRANCH  16  21
ENDBRANCH  15  16
ENDBRANCH   1  15
TORSDOF 7
ENDMDL
MODEL 4
REMARK VINA RESULT:      -7.1      0.830      1.964
REMARK  Name = 
REMARK  10 active torsions:
REMARK  status: ('A' for Active; 'I' for Inactive)
REMARK    1  A    between atoms: C_1  and  O_2
REMARK    2  A    between atoms: O_2  and  C_3
REMARK    3  A    between atoms: C_7  and  O_8
REMARK    4  A    between atoms: O_8  and  C_9
REMARK    5  A    between atoms: C_9  and  C_10
REMARK    6  A    between atoms: C_15  and  C_16
REMARK    7  A    between atoms: N_20  and  C_21
REMARK    8  A    between atoms: C_21  and  C_22
REMARK    9  A    between atoms: C_21  and  C_23
REMARK   10  A    between atoms: C_24  and  C_25
REMARK                            x       y       z     vdW  Elec       q    Type
REMARK                         _______ _______ _______ _____ _____    ______ ____
ROOT
ATOM      1  C   UNL     1       3.623   5.082  18.936  0.00  0.00    +0.000 A 
ATOM      2  C   UNL     1       2.994   4.495  20.045  0.00  0.00    +0.000 A 
ATOM      3  C   UNL     1       3.374   3.236  20.490  0.00  0.00    +0.000 A 
ATOM      4  C   UNL     1       4.387   2.591  19.814  0.00  0.00    +0.000 A 
ATOM      5  N   UNL     1       5.030   3.119  18.750  0.00  0.00    +0.000 NA
ATOM      6  C   UNL     1       4.647   4.343  18.315  0.00  0.00    +0.000 A 
ENDROOT
BRANCH   6   7
ATOM      7  C   UNL     1       5.389   4.810  17.134  0.00  0.00    +0.000 A 
ATOM      8  C   UNL     1       5.247   4.468  15.795  0.00  0.00    +0.000 A 
ATOM      9  C   UNL     1       6.333   5.046  15.130  0.00  0.00    +0.000 A 
ATOM     10  N   UNL     1       7.081   5.781  15.944  0.00  0.00    +0.000 NA
ATOM     11  N   UNL     1       6.445   5.711  17.141  0.00  0.00    +0.000 N 
BRANCH  11  12
ATOM     12  C   UNL     1       6.992   6.482  18.258  0.00  0.00    +0.000 C 
ATOM     13  C   UNL     1       7.894   5.609  19.127  0.00  0.00    +0.000 C 
ATOM     14  C   UNL     1       7.738   7.746  17.803  0.00  0.00    +0.000 C 
ENDBRANCH  11  12
ENDBRANCH   6   7
BRANCH   1  15
ATOM     15  C   UNL     1       3.224   6.454  18.443  0.00  0.00    +0.000 C 
BRANCH  15  16
ATOM     16  O   UNL     1       2.284   7.137  19.277  0.00  0.00    +0.000 OA
BRANCH  16  21
ATOM     17  C   UNL     1       0.832  10.474  19.718  0.00  0.00    +0.000 A 
ATOM     18  C   UNL     1       1.263  11.045  18.527  0.00  0.00    +0.000 A 
ATOM     19  N   UNL     1       1.940  10.383  17.568  0.00  0.00    +0.000 NA
ATOM     20  C   UNL     1       2.244   9.093  17.821  0.00  0.00    +0.000 A 
ATOM     21  C   UNL     1       1.934   8.425  19.002  0.00  0.00    +0.000 A 
ATOM     22  C   UNL     1       1.197   9.140  19.962  0.00  0.00    +0.000 A 
BRANCH  17  24
ATOM     23  C   UNL     1      -1.050  11.815  20.189  0.00  0.00    +0.000 C 
ATOM     24  O   UNL     1       0.125  11.160  20.669  0.00  0.00    +0.000 OA
ENDBRANCH  17  24
BRANCH  22  25
ATOM     25  C   UNL     1       0.796   8.527  21.259  0.00  0.00    +0.000 C 
ATOM     26  O   UNL     1       1.369   8.717  22.327  0.00  0.00    +0.000 OA
ENDBRANCH  22  25
ENDBRANCH  16  21
ENDBRANCH  15  16
ENDBRANCH   1  15
TORSDOF 7
ENDMDL
MODEL 5
REMARK VINA RESULT:      -6.9      1.687      2.155
REMARK  Name = 
REMARK  10 active torsions:
REMARK  status: ('A' for Active; 'I' for Inactive)
REMARK    1  A    between atoms: C_1  and  O_2
REMARK    2  A    between atoms: O_2  and  C_3
REMARK    3  A    between atoms: C_7  and  O_8
REMARK    4  A    between atoms: O_8  and  C_9
REMARK    5  A    between atoms: C_9  and  C_10
REMARK    6  A    between atoms: C_15  and  C_16
REMARK    7  A    between atoms: N_20  and  C_21
REMARK    8  A    between atoms: C_21  and  C_22
REMARK    9  A    between atoms: C_21  and  C_23
REMARK   10  A    between atoms: C_24  and  C_25
REMARK                            x       y       z     vdW  Elec       q    Type
REMARK                         _______ _______ _______ _____ _____    ______ ____
ROOT
ATOM      1  C   UNL     1       2.923   4.917  18.899  0.00  0.00    +0.000 A 
ATOM      2  C   UNL     1       1.677   4.274  18.833  0.00  0.00    +0.000 A 
ATOM      3  C   UNL     1       1.557   3.020  18.248  0.00  0.00    +0.000 A 
ATOM      4  C   UNL     1       2.697   2.431  17.746  0.00  0.00    +0.000 A 
ATOM      5  N   UNL     1       3.919   3.004  17.797  0.00  0.00    +0.000 NA
ATOM      6  C   UNL     1       4.026   4.232  18.358  0.00  0.00    +0.000 A 
ENDROOT
BRANCH   6   7
ATOM      7  C   UNL     1       5.393   4.776  18.334  0.00  0.00    +0.000 A 
ATOM      8  C   UNL     1       6.297   4.971  19.369  0.00  0.00    +0.000 A 
ATOM      9  C   UNL     1       7.359   5.700  18.825  0.00  0.00    +0.000 A 
ATOM     10  N   UNL     1       7.212   5.895  17.520  0.00  0.00    +0.000 NA
ATOM     11  N   UNL     1       6.060   5.246  17.211  0.00  0.00    +0.000 N 
BRANCH  11  12
ATOM     12  C   UNL     1       5.643   5.215  15.808  0.00  0.00    +0.000 C 
ATOM     13  C   UNL     1       5.110   6.578  15.374  0.00  0.00    +0.000 C 
ATOM     14  C   UNL     1       6.756   4.743  14.863  0.00  0.00    +0.000 C 
ENDBRANCH  11  12
ENDBRANCH   6   7
BRANCH   1  15
ATOM     15  C   UNL     1       3.070   6.279  19.537  0.00  0.00    +0.000 C 
BRANCH  15  16
ATOM     16  O   UNL     1       2.161   7.268  19.046  0.00  0.00    +0.000 OA
BRANCH  16  21
ATOM     17  C   UNL     1       0.590  10.363  20.225  0.00  0.00    +0.000 A 
ATOM     18  C   UNL     1       0.440  10.021  21.564  0.00  0.00    +0.000 A 
ATOM     19  N   UNL     1       0.880   8.870  22.107  0.00  0.00    +0.000 NA
ATOM     20  C   UNL     1       1.466   7.989  21.270  0.00  0.00    +0.000 A 
ATOM     21  C   UNL     1       1.614   8.179  19.900  0.00  0.00    +0.000 A 
ATOM     22  C   UNL     1       1.173   9.408  19.377  0.00  0.00    +0.000 A 
BRANCH  17  24
ATOM     23  C   UNL     1      -1.254  11.767  19.784  0.00  0.00    +0.000 C 
ATOM     24  O   UNL     1       0.155  11.550  19.699  0.00  0.00    +0.000 OA
ENDBRANCH  17  24
BRANCH  22  25
ATOM     25  C   UNL     1       1.290   9.732  17.929  0.00  0.00    +0.000 C 
ATOM     26  O   UNL     1       2.239  10.322  17.420  0.00  0.00    +0.000 OA
ENDBRANCH  22  25
ENDBRANCH  16  21
ENDBRANCH  15  16
ENDBRANCH   1  15
TORSDOF 7
ENDMDL
MODEL 6
REMARK VINA RESULT:      -6.9      1.187      1.384
REMARK  Name = 
REMARK  10 active torsions:
REMARK  status: ('A' for Active; 'I' for Inactive)
REMARK    1  A    between atoms: C_1  and  O_2
REMARK    2  A    between atoms: O_2  and  C_3
REMARK    3  A    between atoms: C_7  and  O_8
REMARK    4  A    between atoms: O_8  and  C_9
REMARK    5  A    between atoms: C_9  and  C_10
REMARK    6  A    between atoms: C_15  and  C_16
REMARK    7  A    between atoms: N_20  and  C_21
REMARK    8  A    between atoms: C_21  and  C_22
REMARK    9  A    between atoms: C_21  and  C_23
REMARK   10  A    between atoms: C_24  and  C_25
REMARK                            x       y       z     vdW  Elec       q    Type
REMARK                         _______ _______ _______ _____ _____    ______ ____
ROOT
ATOM      1  C   UNL     1       3.184   5.236  18.146  0.00  0.00    +0.000 A 
ATOM      2  C   UNL     1       1.949   4.585  17.993  0.00  0.00    +0.000 A 
ATOM      3  C   UNL     1       1.890   3.208  17.825  0.00  0.00    +0.000 A 
ATOM      4  C   UNL     1       3.077   2.508  17.821  0.00  0.00    +0.000 A 
ATOM      5  N   UNL     1       4.287   3.087  17.975  0.00  0.00    +0.000 NA
ATOM      6  C   UNL     1       4.337   4.432  18.128  0.00  0.00    +0.000 A 
ENDROOT
BRANCH   6   7
ATOM      7  C   UNL     1       5.704   4.962  18.256  0.00  0.00    +0.000 A 
ATOM      8  C   UNL     1       6.459   5.220  19.392  0.00  0.00    +0.000 A 
ATOM      9  C   UNL     1       7.599   5.901  18.953  0.00  0.00    +0.000 A 
ATOM     10  N   UNL     1       7.637   6.006  17.630  0.00  0.00    +0.000 NA
ATOM     11  N   UNL     1       6.528   5.347  17.208  0.00  0.00    +0.000 N 
BRANCH  11  12
ATOM     12  C   UNL     1       6.307   5.224  15.766  0.00  0.00    +0.000 C 
ATOM     13  C   UNL     1       6.073   3.766  15.379  0.00  0.00    +0.000 C 
ATOM     14  C   UNL     1       5.160   6.110  15.259  0.00  0.00    +0.000 C 
ENDBRANCH  11  12
ENDBRANCH   6   7
BRANCH   1  15
ATOM     15  C   UNL     1       3.263   6.733  18.335  0.00  0.00    +0.000 C 
BRANCH  15  16
ATOM     16  O   UNL     1       2.207   7.292  19.122  0.00  0.00    +0.000 OA
BRANCH  16  21
ATOM     17  C   UNL     1       0.808  10.586  19.913  0.00  0.00    +0.000 A 
ATOM     18  C   UNL     1       1.217  11.263  18.771  0.00  0.00    +0.000 A 
ATOM     19  N   UNL     1       1.864  10.689  17.738  0.00  0.00    +0.000 NA
ATOM     20  C   UNL     1       2.157   9.377  17.860  0.00  0.00    +0.000 A 
ATOM     21  C   UNL     1       1.867   8.604  18.979  0.00  0.00    +0.000 A 
ATOM     22  C   UNL     1       1.162   9.231  20.020  0.00  0.00    +0.000 A 
BRANCH  17  24
ATOM     23  C   UNL     1      -0.247  12.542  20.704  0.00  0.00    +0.000 C 
ATOM     24  O   UNL     1       0.131  11.186  20.941  0.00  0.00    +0.000 OA
ENDBRANCH  17  24
BRANCH  22  25
ATOM     25  C   UNL     1       0.783   8.502  21.262  0.00  0.00    +0.000 C 
ATOM     26  O   UNL     1      -0.353   8.118  21.527  0.00  0.00    +0.000 OA
ENDBRANCH  22  25
ENDBRANCH  16  21
ENDBRANCH  15  16
ENDBRANCH   1  15
TORSDOF 7
ENDMDL
MODEL 7
REMARK VINA RESULT:      -6.8      1.576      3.461
REMARK  Name = 
REMARK  10 active torsions:
REMARK  status: ('A' for Active; 'I' for Inactive)
REMARK    1  A    between atoms: C_1  and  O_2
REMARK    2  A    between atoms: O_2  and  C_3
REMARK    3  A    between atoms: C_7  and  O_8
REMARK    4  A    between atoms: O_8  and  C_9
REMARK    5  A    between atoms: C_9  and  C_10
REMARK    6  A    between atoms: C_15  and  C_16
REMARK    7  A    between atoms: N_20  and  C_21
REMARK    8  A    between atoms: C_21  and  C_22
REMARK    9  A    between atoms: C_21  and  C_23
REMARK   10  A    between atoms: C_24  and  C_25
REMARK                            x       y       z     vdW  Elec       q    Type
REMARK                         _______ _______ _______ _____ _____    ______ ____
ROOT
ATOM      1  C   UNL     1       3.821   5.932  18.397  0.00  0.00    +0.000 A 
ATOM      2  C   UNL     1       4.912   6.495  17.716  0.00  0.00    +0.000 A 
ATOM      3  C   UNL     1       6.180   5.937  17.826  0.00  0.00    +0.000 A 
ATOM      4  C   UNL     1       6.325   4.817  18.615  0.00  0.00    +0.000 A 
ATOM      5  N   UNL     1       5.304   4.233  19.279  0.00  0.00    +0.000 NA
ATOM      6  C   UNL     1       4.073   4.789  19.176  0.00  0.00    +0.000 A 
ENDROOT
BRANCH   6   7
ATOM      7  C   UNL     1       3.043   4.093  19.963  0.00  0.00    +0.000 A 
ATOM      8  C   UNL     1       2.494   4.412  21.198  0.00  0.00    +0.000 A 
ATOM      9  C   UNL     1       1.713   3.313  21.570  0.00  0.00    +0.000 A 
ATOM     10  N   UNL     1       1.676   2.385  20.622  0.00  0.00    +0.000 NA
ATOM     11  N   UNL     1       2.410   2.910  19.608  0.00  0.00    +0.000 N 
BRANCH  11  12
ATOM     12  C   UNL     1       2.513   2.145  18.364  0.00  0.00    +0.000 C 
ATOM     13  C   UNL     1       2.404   3.066  17.152  0.00  0.00    +0.000 C 
ATOM     14  C   UNL     1       3.793   1.299  18.287  0.00  0.00    +0.000 C 
ENDBRANCH  11  12
ENDBRANCH   6   7
BRANCH   1  15
ATOM     15  C   UNL     1       2.436   6.525  18.283  0.00  0.00    +0.000 C 
BRANCH  15  16
ATOM     16  O   UNL     1       2.044   7.343  19.389  0.00  0.00    +0.000 OA
BRANCH  16  21
ATOM     17  C   UNL     1       0.762  10.714  20.042  0.00  0.00    +0.000 A 
ATOM     18  C   UNL     1       1.234  11.340  18.896  0.00  0.00    +0.000 A 
ATOM     19  N   UNL     1       1.887  10.710  17.900  0.00  0.00    +0.000 NA
ATOM     20  C   UNL     1       2.121   9.391  18.068  0.00  0.00    +0.000 A 
ATOM     21  C   UNL     1       1.764   8.663  19.198  0.00  0.00    +0.000 A 
ATOM     22  C   UNL     1       1.055   9.350  20.199  0.00  0.00    +0.000 A 
BRANCH  17  24
ATOM     23  C   UNL     1      -1.200  11.875  20.649  0.00  0.00    +0.000 C 
ATOM     24  O   UNL     1       0.080  11.371  21.032  0.00  0.00    +0.000 OA
ENDBRANCH  17  24
BRANCH  22  25
ATOM     25  C   UNL     1       0.607   8.674  21.448  0.00  0.00    +0.000 C 
ATOM     26  O   UNL     1      -0.533   8.266  21.651  0.00  0.00    +0.000 OA
ENDBRANCH  22  25
ENDBRANCH  16  21
ENDBRANCH  15  16
ENDBRANCH   1  15
TORSDOF 7
ENDMDL
MODEL 8
REMARK VINA RESULT:      -6.8      1.573      2.518
REMARK  Name = 
REMARK  10 active torsions:
REMARK  status: ('A' for Active; 'I' for Inactive)
REMARK    1  A    between atoms: C_1  and  O_2
REMARK    2  A    between atoms: O_2  and  C_3
REMARK    3  A    between atoms: C_7  and  O_8
REMARK    4  A    between atoms: O_8  and  C_9
REMARK    5  A    between atoms: C_9  and  C_10
REMARK    6  A    between atoms: C_15  and  C_16
REMARK    7  A    between atoms: N_20  and  C_21
REMARK    8  A    between atoms: C_21  and  C_22
REMARK    9  A    between atoms: C_21  and  C_23
REMARK   10  A    between atoms: C_24  and  C_25
REMARK                            x       y       z     vdW  Elec       q    Type
REMARK                         _______ _______ _______ _____ _____    ______ ____
ROOT
ATOM      1  C   UNL     1       3.342   4.916  17.557  0.00  0.00    +0.000 A 
ATOM      2  C   UNL     1       2.409   4.283  18.393  0.00  0.00    +0.000 A 
ATOM      3  C   UNL     1       2.491   2.919  18.642  0.00  0.00    +0.000 A 
ATOM      4  C   UNL     1       3.518   2.217  18.048  0.00  0.00    +0.000 A 
ATOM      5  N   UNL     1       4.445   2.783  17.246  0.00  0.00    +0.000 NA
ATOM      6  C   UNL     1       4.352   4.111  16.999  0.00  0.00    +0.000 A 
ENDROOT
BRANCH   6   7
ATOM      7  C   UNL     1       5.391   4.619  16.090  0.00  0.00    +0.000 A 
ATOM      8  C   UNL     1       5.554   4.430  14.724  0.00  0.00    +0.000 A 
ATOM      9  C   UNL     1       6.808   4.961  14.406  0.00  0.00    +0.000 A 
ATOM     10  N   UNL     1       7.388   5.531  15.456  0.00  0.00    +0.000 NA
ATOM     11  N   UNL     1       6.476   5.403  16.454  0.00  0.00    +0.000 N 
BRANCH  11  12
ATOM     12  C   UNL     1       6.791   5.999  17.753  0.00  0.00    +0.000 C 
ATOM     13  C   UNL     1       7.632   5.043  18.596  0.00  0.00    +0.000 C 
ATOM     14  C   UNL     1       7.481   7.365  17.633  0.00  0.00    +0.000 C 
ENDBRANCH  11  12
ENDBRANCH   6   7
BRANCH   1  15
ATOM     15  C   UNL     1       3.267   6.400  17.281  0.00  0.00    +0.000 C 
BRANCH  15  16
ATOM     16  O   UNL     1       3.341   7.228  18.446  0.00  0.00    +0.000 OA
BRANCH  16  21
ATOM     17  C   UNL     1       0.737   9.181  20.131  0.00  0.00    +0.000 A 
ATOM     18  C   UNL     1       0.560  10.164  19.165  0.00  0.00    +0.000 A 
ATOM     19  N   UNL     1       1.194  10.185  17.977  0.00  0.00    +0.000 NA
ATOM     20  C   UNL     1       2.084   9.197  17.747  0.00  0.00    +0.000 A 
ATOM     21  C   UNL     1       2.405   8.196  18.658  0.00  0.00    +0.000 A 
ATOM     22  C   UNL     1       1.697   8.190  19.872  0.00  0.00    +0.000 A 
BRANCH  17  24
ATOM     23  C   UNL     1      -0.457  10.432  21.735  0.00  0.00    +0.000 C 
ATOM     24  O   UNL     1       0.064   9.168  21.323  0.00  0.00    +0.000 OA
ENDBRANCH  17  24
BRANCH  22  25
ATOM     25  C   UNL     1       1.944   7.160  20.919  0.00  0.00    +0.000 C 
ATOM     26  O   UNL     1       1.453   6.035  20.921  0.00  0.00    +0.000 OA
ENDBRANCH  22  25
ENDBRANCH  16  21
ENDBRANCH  15  16
ENDBRANCH   1  15
TORSDOF 7
ENDMDL
MODEL 9
REMARK VINA RESULT:      -6.8      2.573      7.797
REMARK  Name = 
REMARK  10 active torsions:
REMARK  status: ('A' for Active; 'I' for Inactive)
REMARK    1  A    between atoms: C_1  and  O_2
REMARK    2  A    between atoms: O_2  and  C_3
REMARK    3  A    between atoms: C_7  and  O_8
REMARK    4  A    between atoms: O_8  and  C_9
REMARK    5  A    between atoms: C_9  and  C_10
REMARK    6  A    between atoms: C_15  and  C_16
REMARK    7  A    between atoms: N_20  and  C_21
REMARK    8  A    between atoms: C_21  and  C_22
REMARK    9  A    between atoms: C_21  and  C_23
REMARK   10  A    between atoms: C_24  and  C_25
REMARK                            x       y       z     vdW  Elec       q    Type
REMARK                         _______ _______ _______ _____ _____    ______ ____
ROOT
ATOM      1  C   UNL     1       0.378   9.721  21.092  0.00  0.00    +0.000 A 
ATOM      2  C   UNL     1       0.225   9.037  22.309  0.00  0.00    +0.000 A 
ATOM      3  C   UNL     1      -0.507   9.596  23.348  0.00  0.00    +0.000 A 
ATOM      4  C   UNL     1      -1.079  10.833  23.142  0.00  0.00    +0.000 A 
ATOM      5  N   UNL     1      -0.970  11.523  21.986  0.00  0.00    +0.000 NA
ATOM      6  C   UNL     1      -0.245  10.977  20.981  0.00  0.00    +0.000 A 
ENDROOT
BRANCH   6   7
ATOM      7  C   UNL     1      -0.165  11.825  19.782  0.00  0.00    +0.000 A 
ATOM      8  C   UNL     1       0.713  12.856  19.473  0.00  0.00    +0.000 A 
ATOM      9  C   UNL     1       0.218  13.449  18.307  0.00  0.00    +0.000 A 
ATOM     10  N   UNL     1      -0.846  12.810  17.836  0.00  0.00    +0.000 NA
ATOM     11  N   UNL     1      -1.014  11.765  18.686  0.00  0.00    +0.000 N 
BRANCH  11  12
ATOM     12  C   UNL     1      -2.087  10.811  18.400  0.00  0.00    +0.000 C 
ATOM     13  C   UNL     1      -3.427  11.530  18.266  0.00  0.00    +0.000 C 
ATOM     14  C   UNL     1      -1.808   9.951  17.159  0.00  0.00    +0.000 C 
ENDBRANCH  11  12
ENDBRANCH   6   7
BRANCH   1  15
ATOM     15  C   UNL     1       1.168   9.123  19.951  0.00  0.00    +0.000 C 
BRANCH  15  16
ATOM     16  O   UNL     1       1.581   7.769  20.156  0.00  0.00    +0.000 OA
BRANCH  16  21
ATOM     17  C   UNL     1       3.605   5.161  18.564  0.00  0.00    +0.000 A 
ATOM     18  C   UNL     1       4.056   5.889  17.470  0.00  0.00    +0.000 A 
ATOM     19  N   UNL     1       3.788   7.193  17.262  0.00  0.00    +0.000 NA
ATOM     20  C   UNL     1       2.994   7.801  18.169  0.00  0.00    +0.000 A 
ATOM     21  C   UNL     1       2.422   7.168  19.268  0.00  0.00    +0.000 A 
ATOM     22  C   UNL     1       2.753   5.817  19.468  0.00  0.00    +0.000 A 
BRANCH  17  24
ATOM     23  C   UNL     1       3.456   2.954  17.744  0.00  0.00    +0.000 C 
ATOM     24  O   UNL     1       3.910   3.841  18.766  0.00  0.00    +0.000 OA
ENDBRANCH  17  24
BRANCH  22  25
ATOM     25  C   UNL     1       2.213   5.037  20.616  0.00  0.00    +0.000 C 
ATOM     26  O   UNL     1       1.131   4.458  20.618  0.00  0.00    +0.000 OA
ENDBRANCH  22  25
ENDBRANCH  16  21
ENDBRANCH  15  16
ENDBRANCH   1  15
TORSDOF 7
ENDMDL
