MODEL 1
REMARK VINA RESULT:      -8.5      0.000      0.000
REMARK  Name = 
REMARK  8 active torsions:
REMARK  status: ('A' for Active; 'I' for Inactive)
REMARK    1  A    between atoms: C_1  and  C_2
REMARK    2  A    between atoms: C_3  and  C_4
REMARK    3  A    between atoms: C_4  and  C_6
REMARK    4  A    between atoms: C_6  and  N_7
REMARK    5  A    between atoms: N_10  and  C_11
REMARK    6  A    between atoms: C_11  and  C_12
REMARK    7  A    between atoms: C_12  and  C_14
REMARK    8  A    between atoms: C_19  and  C_20
REMARK                            x       y       z     vdW  Elec       q    Type
REMARK                         _______ _______ _______ _____ _____    ______ ____
ROOT
ATOM      1  N   UNL     1       0.088  11.576  21.087  0.00  0.00    +0.000 NA
ATOM      2  C   UNL     1      -0.804  10.541  20.541  0.00  0.00    +0.000 C 
ATOM      3  C   UNL     1      -0.626  10.142  19.055  0.00  0.00    +0.000 C 
ATOM      4  N   UNL     1       0.771  10.131  18.578  0.00  0.00    +0.000 NA
ATOM      5  C   UNL     1       1.320  11.469  18.887  0.00  0.00    +0.000 C 
ATOM      6  C   UNL     1       1.365  11.768  20.394  0.00  0.00    +0.000 C 
ENDROOT
BRANCH   1   7
ATOM      7  C   UNL     1      -0.550  12.832  21.481  0.00  0.00    +0.000 C 
BRANCH   7   8
ATOM      8  C   UNL     1      -1.635  12.683  22.571  0.00  0.00    +0.000 C 
ATOM      9  F   UNL     1      -1.401  11.493  23.209  0.00  0.00    +0.000 F 
BRANCH   8  12
ATOM     10  C   UNL     1      -3.810  12.931  24.621  0.00  0.00    +0.000 C 
ATOM     11  C   UNL     1      -4.103  12.885  23.146  0.00  0.00    +0.000 A 
ATOM     12  C   UNL     1      -3.098  12.796  22.151  0.00  0.00    +0.000 A 
ATOM     13  C   UNL     1      -3.485  12.789  20.782  0.00  0.00    +0.000 A 
ATOM     14  C   UNL     1      -4.823  12.869  20.393  0.00  0.00    +0.000 A 
ATOM     15  C   UNL     1      -5.772  12.923  21.391  0.00  0.00    +0.000 A 
ATOM     16  C   UNL     1      -5.435  12.927  22.728  0.00  0.00    +0.000 A 
ATOM     17  C   UNL     1      -6.678  12.964  23.527  0.00  0.00    +0.000 C 
ATOM     18  O   UNL     1      -7.723  12.993  22.533  0.00  0.00    +0.000 OA
ATOM     19  C   UNL     1      -7.217  12.974  21.261  0.00  0.00    +0.000 C 
ATOM     20  O   UNL     1      -7.859  12.990  20.229  0.00  0.00    +0.000 OA
ENDBRANCH   8  12
ENDBRANCH   7   8
ENDBRANCH   1   7
BRANCH   4  21
ATOM     21  C   UNL     1       1.527   9.037  19.249  0.00  0.00    +0.000 C 
BRANCH  21  22
ATOM     22  C   UNL     1       2.254   8.040  18.312  0.00  0.00    +0.000 C 
ATOM     23  F   UNL     1       3.459   8.563  17.931  0.00  0.00    +0.000 F 
BRANCH  22  24
ATOM     24  C   UNL     1       2.472   6.709  19.015  0.00  0.00    +0.000 A 
ATOM     25  C   UNL     1       1.727   6.463  20.197  0.00  0.00    +0.000 A 
ATOM     26  C   UNL     1       1.862   5.272  20.906  0.00  0.00    +0.000 A 
ATOM     27  C   UNL     1       2.747   4.341  20.402  0.00  0.00    +0.000 A 
ATOM     28  C   UNL     1       3.475   4.546  19.246  0.00  0.00    +0.000 A 
ATOM     29  C   UNL     1       3.366   5.730  18.523  0.00  0.00    +0.000 A 
ATOM     30  C   UNL     1       4.159   5.945  17.263  0.00  0.00    +0.000 C 
ATOM     31  C   UNL     1       4.301   3.343  18.997  0.00  0.00    +0.000 C 
ATOM     32  O   UNL     1       3.989   2.474  20.103  0.00  0.00    +0.000 OA
ATOM     33  C   UNL     1       3.074   3.034  20.950  0.00  0.00    +0.000 C 
ATOM     34  O   UNL     1       2.625   2.537  21.964  0.00  0.00    +0.000 OA
ENDBRANCH  22  24
ENDBRANCH  21  22
ENDBRANCH   4  21
TORSDOF 6
ENDMDL
MODEL 2
REMARK VINA RESULT:      -8.5      2.137     11.250
REMARK  Name = 
REMARK  8 active torsions:
REMARK  status: ('A' for Active; 'I' for Inactive)
REMARK    1  A    between atoms: C_1  and  C_2
REMARK    2  A    between atoms: C_3  and  C_4
REMARK    3  A    between atoms: C_4  and  C_6
REMARK    4  A    between atoms: C_6  and  N_7
REMARK    5  A    between atoms: N_10  and  C_11
REMARK    6  A    between atoms: C_11  and  C_12
REMARK    7  A    between atoms: C_12  and  C_14
REMARK    8  A    between atoms: C_19  and  C_20
REMARK                            x       y       z     vdW  Elec       q    Type
REMARK                         _______ _______ _______ _____ _____    ______ ____
ROOT
ATOM      1  N   UNL     1       0.908   9.080  19.733  0.00  0.00    +0.000 NA
ATOM      2  C   UNL     1       1.070   8.648  21.131  0.00  0.00    +0.000 C 
ATOM      3  C   UNL     1       1.324   9.739  22.201  0.00  0.00    +0.000 C 
ATOM      4  N   UNL     1       0.600  11.006  21.979  0.00  0.00    +0.000 NA
ATOM      5  C   UNL     1       0.954  11.445  20.611  0.00  0.00    +0.000 C 
ATOM      6  C   UNL     1       0.481  10.466  19.524  0.00  0.00    +0.000 C 
ENDROOT
BRANCH   1   7
ATOM      7  C   UNL     1       1.952   8.650  18.803  0.00  0.00    +0.000 C 
BRANCH   7   8
ATOM      8  C   UNL     1       2.162   7.120  18.741  0.00  0.00    +0.000 C 
ATOM      9  F   UNL     1       2.262   6.676  20.034  0.00  0.00    +0.000 F 
BRANCH   8  12
ATOM     10  C   UNL     1       2.317   4.215  18.011  0.00  0.00    +0.000 C 
ATOM     11  C   UNL     1       3.370   5.203  17.588  0.00  0.00    +0.000 A 
ATOM     12  C   UNL     1       3.313   6.586  17.892  0.00  0.00    +0.000 A 
ATOM     13  C   UNL     1       4.350   7.437  17.418  0.00  0.00    +0.000 A 
ATOM     14  C   UNL     1       5.416   6.949  16.661  0.00  0.00    +0.000 A 
ATOM     15  C   UNL     1       5.452   5.595  16.413  0.00  0.00    +0.000 A 
ATOM     16  C   UNL     1       4.468   4.739  16.861  0.00  0.00    +0.000 A 
ATOM     17  C   UNL     1       4.819   3.363  16.451  0.00  0.00    +0.000 C 
ATOM     18  O   UNL     1       6.060   3.525  15.733  0.00  0.00    +0.000 OA
ATOM     19  C   UNL     1       6.457   4.835  15.692  0.00  0.00    +0.000 C 
ATOM     20  O   UNL     1       7.460   5.268  15.159  0.00  0.00    +0.000 OA
ENDBRANCH   8  12
ENDBRANCH   7   8
ENDBRANCH   1   7
BRANCH   4  21
ATOM     21  C   UNL     1      -0.863  10.791  22.147  0.00  0.00    +0.000 C 
BRANCH  21  22
ATOM     22  C   UNL     1      -1.605  11.822  23.035  0.00  0.00    +0.000 C 
ATOM     23  F   UNL     1      -0.767  12.866  23.323  0.00  0.00    +0.000 F 
BRANCH  22  24
ATOM     24  C   UNL     1      -2.846  12.341  22.327  0.00  0.00    +0.000 A 
ATOM     25  C   UNL     1      -2.768  12.533  20.924  0.00  0.00    +0.000 A 
ATOM     26  C   UNL     1      -3.856  13.004  20.193  0.00  0.00    +0.000 A 
ATOM     27  C   UNL     1      -5.015  13.268  20.896  0.00  0.00    +0.000 A 
ATOM     28  C   UNL     1      -5.125  13.079  22.260  0.00  0.00    +0.000 A 
ATOM     29  C   UNL     1      -4.051  12.617  23.015  0.00  0.00    +0.000 A 
ATOM     30  C   UNL     1      -4.179  12.409  24.499  0.00  0.00    +0.000 C 
ATOM     31  C   UNL     1      -6.499  13.444  22.670  0.00  0.00    +0.000 C 
ATOM     32  O   UNL     1      -7.128  13.863  21.444  0.00  0.00    +0.000 OA
ATOM     33  C   UNL     1      -6.277  13.771  20.377  0.00  0.00    +0.000 C 
ATOM     34  O   UNL     1      -6.528  14.055  19.223  0.00  0.00    +0.000 OA
ENDBRANCH  22  24
ENDBRANCH  21  22
ENDBRANCH   4  21
TORSDOF 6
ENDMDL
MODEL 3
REMARK VINA RESULT:      -8.3      2.979     11.294
REMARK  Name = 
REMARK  8 active torsions:
REMARK  status: ('A' for Active; 'I' for Inactive)
REMARK    1  A    between atoms: C_1  and  C_2
REMARK    2  A    between atoms: C_3  and  C_4
REMARK    3  A    between atoms: C_4  and  C_6
REMARK    4  A    between atoms: C_6  and  N_7
REMARK    5  A    between atoms: N_10  and  C_11
REMARK    6  A    between atoms: C_11  and  C_12
REMARK    7  A    between atoms: C_12  and  C_14
REMARK    8  A    between atoms: C_19  and  C_20
REMARK                            x       y       z     vdW  Elec       q    Type
REMARK                         _______ _______ _______ _____ _____    ______ ____
ROOT
ATOM      1  N   UNL     1       1.787   7.576  19.602  0.00  0.00    +0.000 NA
ATOM      2  C   UNL     1       1.254   8.196  20.826  0.00  0.00    +0.000 C 
ATOM      3  C   UNL     1       1.141   9.741  20.865  0.00  0.00    +0.000 C 
ATOM      4  N   UNL     1       0.757  10.367  19.584  0.00  0.00    +0.000 NA
ATOM      5  C   UNL     1       1.734   9.885  18.584  0.00  0.00    +0.000 C 
ATOM      6  C   UNL     1       1.675   8.363  18.372  0.00  0.00    +0.000 C 
ENDROOT
BRANCH   1   7
ATOM      7  C   UNL     1       3.072   6.891  19.737  0.00  0.00    +0.000 C 
BRANCH   7   8
ATOM      8  C   UNL     1       3.178   5.570  18.941  0.00  0.00    +0.000 C 
ATOM      9  F   UNL     1       3.385   4.568  19.851  0.00  0.00    +0.000 F 
BRANCH   8  12
ATOM     10  C   UNL     1       3.163   3.278  17.007  0.00  0.00    +0.000 C 
ATOM     11  C   UNL     1       4.181   4.383  16.928  0.00  0.00    +0.000 A 
ATOM     12  C   UNL     1       4.199   5.495  17.808  0.00  0.00    +0.000 A 
ATOM     13  C   UNL     1       5.189   6.499  17.625  0.00  0.00    +0.000 A 
ATOM     14  C   UNL     1       6.138   6.423  16.605  0.00  0.00    +0.000 A 
ATOM     15  C   UNL     1       6.107   5.313  15.790  0.00  0.00    +0.000 A 
ATOM     16  C   UNL     1       5.165   4.316  15.941  0.00  0.00    +0.000 A 
ATOM     17  C   UNL     1       5.426   3.267  14.933  0.00  0.00    +0.000 C 
ATOM     18  O   UNL     1       6.570   3.764  14.208  0.00  0.00    +0.000 OA
ATOM     19  C   UNL     1       6.993   4.973  14.691  0.00  0.00    +0.000 C 
ATOM     20  O   UNL     1       7.931   5.626  14.279  0.00  0.00    +0.000 OA
ENDBRANCH   8  12
ENDBRANCH   7   8
ENDBRANCH   1   7
BRANCH   4  21
ATOM     21  C   UNL     1      -0.643   9.997  19.238  0.00  0.00    +0.000 C 
BRANCH  21  22
ATOM     22  C   UNL     1      -1.291  10.797  18.080  0.00  0.00    +0.000 C 
ATOM     23  F   UNL     1      -1.327  10.023  16.951  0.00  0.00    +0.000 F 
BRANCH  22  24
ATOM     24  C   UNL     1      -2.700  11.229  18.452  0.00  0.00    +0.000 A 
ATOM     25  C   UNL     1      -3.779  10.570  17.808  0.00  0.00    +0.000 A 
ATOM     26  C   UNL     1      -5.102  10.900  18.087  0.00  0.00    +0.000 A 
ATOM     27  C   UNL     1      -5.316  11.892  19.024  0.00  0.00    +0.000 A 
ATOM     28  C   UNL     1      -4.287  12.542  19.676  0.00  0.00    +0.000 A 
ATOM     29  C   UNL     1      -2.955  12.237  19.410  0.00  0.00    +0.000 A 
ATOM     30  C   UNL     1      -1.840  12.947  20.128  0.00  0.00    +0.000 C 
ATOM     31  C   UNL     1      -4.877  13.523  20.614  0.00  0.00    +0.000 C 
ATOM     32  O   UNL     1      -6.298  13.379  20.417  0.00  0.00    +0.000 OA
ATOM     33  C   UNL     1      -6.589  12.423  19.485  0.00  0.00    +0.000 C 
ATOM     34  O   UNL     1      -7.695  12.086  19.113  0.00  0.00    +0.000 OA
ENDBRANCH  22  24
ENDBRANCH  21  22
ENDBRANCH   4  21
TORSDOF 6
ENDMDL
MODEL 4
REMARK VINA RESULT:      -8.3      3.996      6.264
REMARK  Name = 
REMARK  8 active torsions:
REMARK  status: ('A' for Active; 'I' for Inactive)
REMARK    1  A    between atoms: C_1  and  C_2
REMARK    2  A    between atoms: C_3  and  C_4
REMARK    3  A    between atoms: C_4  and  C_6
REMARK    4  A    between atoms: C_6  and  N_7
REMARK    5  A    between atoms: N_10  and  C_11
REMARK    6  A    between atoms: C_11  and  C_12
REMARK    7  A    between atoms: C_12  and  C_14
REMARK    8  A    between atoms: C_19  and  C_20
REMARK                            x       y       z     vdW  Elec       q    Type
REMARK                         _______ _______ _______ _____ _____    ______ ____
ROOT
ATOM      1  N   UNL     1       2.044   5.193  20.653  0.00  0.00    +0.000 NA
ATOM      2  C   UNL     1       2.035   3.962  21.459  0.00  0.00    +0.000 C 
ATOM      3  C   UNL     1       1.481   2.671  20.804  0.00  0.00    +0.000 C 
ATOM      4  N   UNL     1       1.794   2.521  19.369  0.00  0.00    +0.000 NA
ATOM      5  C   UNL     1       1.310   3.755  18.713  0.00  0.00    +0.000 C 
ATOM      6  C   UNL     1       2.039   5.019  19.198  0.00  0.00    +0.000 C 
ENDROOT
BRANCH   1   7
ATOM      7  C   UNL     1       1.163   6.267  21.111  0.00  0.00    +0.000 C 
BRANCH   7   8
ATOM      8  C   UNL     1       1.340   7.604  20.356  0.00  0.00    +0.000 C 
ATOM      9  F   UNL     1       2.684   7.780  20.160  0.00  0.00    +0.000 F 
BRANCH   8  12
ATOM     10  C   UNL     1       0.693   9.976  18.637  0.00  0.00    +0.000 C 
ATOM     11  C   UNL     1       0.441   9.971  20.120  0.00  0.00    +0.000 A 
ATOM     12  C   UNL     1       0.709   8.858  20.956  0.00  0.00    +0.000 A 
ATOM     13  C   UNL     1       0.405   8.951  22.343  0.00  0.00    +0.000 A 
ATOM     14  C   UNL     1      -0.150  10.103  22.901  0.00  0.00    +0.000 A 
ATOM     15  C   UNL     1      -0.367  11.174  22.061  0.00  0.00    +0.000 A 
ATOM     16  C   UNL     1      -0.080  11.122  20.714  0.00  0.00    +0.000 A 
ATOM     17  C   UNL     1      -0.402  12.434  20.113  0.00  0.00    +0.000 C 
ATOM     18  O   UNL     1      -0.899  13.207  21.225  0.00  0.00    +0.000 OA
ATOM     19  C   UNL     1      -0.893  12.487  22.389  0.00  0.00    +0.000 C 
ATOM     20  O   UNL     1      -1.254  12.879  23.482  0.00  0.00    +0.000 OA
ENDBRANCH   8  12
ENDBRANCH   7   8
ENDBRANCH   1   7
BRANCH   4  21
ATOM     21  C   UNL     1       3.258   2.316  19.188  0.00  0.00    +0.000 C 
BRANCH  21  22
ATOM     22  C   UNL     1       3.807   2.561  17.760  0.00  0.00    +0.000 C 
ATOM     23  F   UNL     1       2.775   2.879  16.920  0.00  0.00    +0.000 F 
BRANCH  22  24
ATOM     24  C   UNL     1       4.830   3.685  17.766  0.00  0.00    +0.000 A 
ATOM     25  C   UNL     1       5.233   4.197  19.026  0.00  0.00    +0.000 A 
ATOM     26  C   UNL     1       6.166   5.226  19.128  0.00  0.00    +0.000 A 
ATOM     27  C   UNL     1       6.683   5.720  17.947  0.00  0.00    +0.000 A 
ATOM     28  C   UNL     1       6.320   5.234  16.707  0.00  0.00    +0.000 A 
ATOM     29  C   UNL     1       5.385   4.211  16.576  0.00  0.00    +0.000 A 
ATOM     30  C   UNL     1       4.997   3.684  15.222  0.00  0.00    +0.000 C 
ATOM     31  C   UNL     1       7.077   5.978  15.676  0.00  0.00    +0.000 C 
ATOM     32  O   UNL     1       7.866   6.916  16.434  0.00  0.00    +0.000 OA
ATOM     33  C   UNL     1       7.656   6.789  17.778  0.00  0.00    +0.000 C 
ATOM     34  O   UNL     1       8.178   7.442  18.659  0.00  0.00    +0.000 OA
ENDBRANCH  22  24
ENDBRANCH  21  22
ENDBRANCH   4  21
TORSDOF 6
ENDMDL
MODEL 5
REMARK VINA RESULT:      -8.3      1.499      1.850
REMARK  Name = 
REMARK  8 active torsions:
REMARK  status: ('A' for Active; 'I' for Inactive)
REMARK    1  A    between atoms: C_1  and  C_2
REMARK    2  A    between atoms: C_3  and  C_4
REMARK    3  A    between atoms: C_4  and  C_6
REMARK    4  A    between atoms: C_6  and  N_7
REMARK    5  A    between atoms: N_10  and  C_11
REMARK    6  A    between atoms: C_11  and  C_12
REMARK    7  A    between atoms: C_12  and  C_14
REMARK    8  A    between atoms: C_19  and  C_20
REMARK                            x       y       z     vdW  Elec       q    Type
REMARK                         _______ _______ _______ _____ _____    ______ ____
ROOT
ATOM      1  N   UNL     1      -0.420  11.078  20.203  0.00  0.00    +0.000 NA
ATOM      2  C   UNL     1      -0.949  10.077  19.263  0.00  0.00    +0.000 C 
ATOM      3  C   UNL     1      -0.197   9.872  17.924  0.00  0.00    +0.000 C 
ATOM      4  N   UNL     1       1.272   9.984  18.014  0.00  0.00    +0.000 NA
ATOM      5  C   UNL     1       1.545  11.299  18.635  0.00  0.00    +0.000 C 
ATOM      6  C   UNL     1       1.000  11.412  20.068  0.00  0.00    +0.000 C 
ENDROOT
BRANCH   1   7
ATOM      7  C   UNL     1      -1.269  12.245  20.443  0.00  0.00    +0.000 C 
BRANCH   7   8
ATOM      8  C   UNL     1      -1.475  12.589  21.936  0.00  0.00    +0.000 C 
ATOM      9  F   UNL     1      -1.375  11.415  22.635  0.00  0.00    +0.000 F 
BRANCH   8  12
ATOM     10  C   UNL     1      -1.346  14.896  23.847  0.00  0.00    +0.000 C 
ATOM     11  C   UNL     1      -2.645  14.419  23.257  0.00  0.00    +0.000 A 
ATOM     12  C   UNL     1      -2.738  13.351  22.330  0.00  0.00    +0.000 A 
ATOM     13  C   UNL     1      -4.015  13.000  21.812  0.00  0.00    +0.000 A 
ATOM     14  C   UNL     1      -5.175  13.679  22.187  0.00  0.00    +0.000 A 
ATOM     15  C   UNL     1      -5.047  14.691  23.113  0.00  0.00    +0.000 A 
ATOM     16  C   UNL     1      -3.827  15.055  23.641  0.00  0.00    +0.000 A 
ATOM     17  C   UNL     1      -4.042  16.146  24.616  0.00  0.00    +0.000 C 
ATOM     18  O   UNL     1      -5.468  16.364  24.576  0.00  0.00    +0.000 OA
ATOM     19  C   UNL     1      -6.088  15.521  23.694  0.00  0.00    +0.000 C 
ATOM     20  O   UNL     1      -7.279  15.478  23.453  0.00  0.00    +0.000 OA
ENDBRANCH   8  12
ENDBRANCH   7   8
ENDBRANCH   1   7
BRANCH   4  21
ATOM     21  C   UNL     1       1.819   8.853  18.814  0.00  0.00    +0.000 C 
BRANCH  21  22
ATOM     22  C   UNL     1       2.549   7.745  18.013  0.00  0.00    +0.000 C 
ATOM     23  F   UNL     1       3.822   8.154  17.720  0.00  0.00    +0.000 F 
BRANCH  22  24
ATOM     24  C   UNL     1       2.596   6.452  18.811  0.00  0.00    +0.000 A 
ATOM     25  C   UNL     1       1.864   6.405  20.026  0.00  0.00    +0.000 A 
ATOM     26  C   UNL     1       1.850   5.262  20.821  0.00  0.00    +0.000 A 
ATOM     27  C   UNL     1       2.574   4.177  20.370  0.00  0.00    +0.000 A 
ATOM     28  C   UNL     1       3.285   4.188  19.187  0.00  0.00    +0.000 A 
ATOM     29  C   UNL     1       3.323   5.320  18.376  0.00  0.00    +0.000 A 
ATOM     30  C   UNL     1       4.097   5.323  17.087  0.00  0.00    +0.000 C 
ATOM     31  C   UNL     1       3.920   2.863  19.013  0.00  0.00    +0.000 C 
ATOM     32  O   UNL     1       3.524   2.132  20.189  0.00  0.00    +0.000 OA
ATOM     33  C   UNL     1       2.728   2.880  21.011  0.00  0.00    +0.000 C 
ATOM     34  O   UNL     1       2.245   2.530  22.070  0.00  0.00    +0.000 OA
ENDBRANCH  22  24
ENDBRANCH  21  22
ENDBRANCH   4  21
TORSDOF 6
ENDMDL
MODEL 6
REMARK VINA RESULT:      -8.3      4.652      9.878
REMARK  Name = 
REMARK  8 active torsions:
REMARK  status: ('A' for Active; 'I' for Inactive)
REMARK    1  A    between atoms: C_1  and  C_2
REMARK    2  A    between atoms: C_3  and  C_4
REMARK    3  A    between atoms: C_4  and  C_6
REMARK    4  A    between atoms: C_6  and  N_7
REMARK    5  A    between atoms: N_10  and  C_11
REMARK    6  A    between atoms: C_11  and  C_12
REMARK    7  A    between atoms: C_12  and  C_14
REMARK    8  A    between atoms: C_19  and  C_20
REMARK                            x       y       z     vdW  Elec       q    Type
REMARK                         _______ _______ _______ _____ _____    ______ ____
ROOT
ATOM      1  N   UNL     1       0.217  10.250  20.475  0.00  0.00    +0.000 NA
ATOM      2  C   UNL     1      -0.150  10.821  19.169  0.00  0.00    +0.000 C 
ATOM      3  C   UNL     1      -1.256  11.904  19.137  0.00  0.00    +0.000 C 
ATOM      4  N   UNL     1      -1.251  12.831  20.287  0.00  0.00    +0.000 NA
ATOM      5  C   UNL     1      -1.308  11.982  21.497  0.00  0.00    +0.000 C 
ATOM      6  C   UNL     1      -0.078  11.072  21.652  0.00  0.00    +0.000 C 
ENDROOT
BRANCH   1   7
ATOM      7  C   UNL     1      -0.092   8.833  20.667  0.00  0.00    +0.000 C 
BRANCH   7   8
ATOM      8  C   UNL     1       1.131   7.952  21.009  0.00  0.00    +0.000 C 
ATOM      9  F   UNL     1       1.890   8.653  21.909  0.00  0.00    +0.000 F 
BRANCH   8  12
ATOM     10  C   UNL     1       2.117   5.120  20.978  0.00  0.00    +0.000 C 
ATOM     11  C   UNL     1       2.462   6.099  19.888  0.00  0.00    +0.000 A 
ATOM     12  C   UNL     1       1.989   7.435  19.858  0.00  0.00    +0.000 A 
ATOM     13  C   UNL     1       2.353   8.268  18.764  0.00  0.00    +0.000 A 
ATOM     14  C   UNL     1       3.157   7.806  17.721  0.00  0.00    +0.000 A 
ATOM     15  C   UNL     1       3.621   6.512  17.802  0.00  0.00    +0.000 A 
ATOM     16  C   UNL     1       3.294   5.677  18.849  0.00  0.00    +0.000 A 
ATOM     17  C   UNL     1       3.971   4.379  18.646  0.00  0.00    +0.000 C 
ATOM     18  O   UNL     1       4.684   4.555  17.404  0.00  0.00    +0.000 OA
ATOM     19  C   UNL     1       4.493   5.805  16.880  0.00  0.00    +0.000 C 
ATOM     20  O   UNL     1       4.968   6.235  15.847  0.00  0.00    +0.000 OA
ENDBRANCH   8  12
ENDBRANCH   7   8
ENDBRANCH   1   7
BRANCH   4  21
ATOM     21  C   UNL     1      -0.030  13.682  20.246  0.00  0.00    +0.000 C 
BRANCH  21  22
ATOM     22  C   UNL     1       0.205  14.471  18.933  0.00  0.00    +0.000 C 
ATOM     23  F   UNL     1      -0.736  15.459  18.817  0.00  0.00    +0.000 F 
BRANCH  22  24
ATOM     24  C   UNL     1       1.596  15.084  18.920  0.00  0.00    +0.000 A 
ATOM     25  C   UNL     1       1.731  16.413  19.395  0.00  0.00    +0.000 A 
ATOM     26  C   UNL     1       2.967  17.054  19.420  0.00  0.00    +0.000 A 
ATOM     27  C   UNL     1       4.055  16.334  18.968  0.00  0.00    +0.000 A 
ATOM     28  C   UNL     1       3.957  15.034  18.512  0.00  0.00    +0.000 A 
ATOM     29  C   UNL     1       2.732  14.372  18.469  0.00  0.00    +0.000 A 
ATOM     30  C   UNL     1       2.634  12.956  17.975  0.00  0.00    +0.000 C 
ATOM     31  C   UNL     1       5.309  14.573  18.127  0.00  0.00    +0.000 C 
ATOM     32  O   UNL     1       6.151  15.713  18.385  0.00  0.00    +0.000 OA
ATOM     33  C   UNL     1       5.440  16.769  18.883  0.00  0.00    +0.000 C 
ATOM     34  O   UNL     1       5.880  17.859  19.192  0.00  0.00    +0.000 OA
ENDBRANCH  22  24
ENDBRANCH  21  22
ENDBRANCH   4  21
TORSDOF 6
ENDMDL
MODEL 7
REMARK VINA RESULT:      -8.3      3.364      5.204
REMARK  Name = 
REMARK  8 active torsions:
REMARK  status: ('A' for Active; 'I' for Inactive)
REMARK    1  A    between atoms: C_1  and  C_2
REMARK    2  A    between atoms: C_3  and  C_4
REMARK    3  A    between atoms: C_4  and  C_6
REMARK    4  A    between atoms: C_6  and  N_7
REMARK    5  A    between atoms: N_10  and  C_11
REMARK    6  A    between atoms: C_11  and  C_12
REMARK    7  A    between atoms: C_12  and  C_14
REMARK    8  A    between atoms: C_19  and  C_20
REMARK                            x       y       z     vdW  Elec       q    Type
REMARK                         _______ _______ _______ _____ _____    ______ ____
ROOT
ATOM      1  N   UNL     1       1.816   8.373  19.896  0.00  0.00    +0.000 NA
ATOM      2  C   UNL     1       1.901   7.307  20.908  0.00  0.00    +0.000 C 
ATOM      3  C   UNL     1       1.940   5.840  20.412  0.00  0.00    +0.000 C 
ATOM      4  N   UNL     1       2.695   5.627  19.161  0.00  0.00    +0.000 NA
ATOM      5  C   UNL     1       2.113   6.557  18.169  0.00  0.00    +0.000 C 
ATOM      6  C   UNL     1       2.292   8.035  18.552  0.00  0.00    +0.000 C 
ENDROOT
BRANCH   1   7
ATOM      7  C   UNL     1       0.582   9.158  19.893  0.00  0.00    +0.000 C 
BRANCH   7   8
ATOM      8  C   UNL     1       0.340   9.963  18.596  0.00  0.00    +0.000 C 
ATOM      9  F   UNL     1       1.235  11.000  18.594  0.00  0.00    +0.000 F 
BRANCH   8  12
ATOM     10  C   UNL     1      -1.008  11.890  20.458  0.00  0.00    +0.000 C 
ATOM     11  C   UNL     1      -1.692  11.354  19.230  0.00  0.00    +0.000 A 
ATOM     12  C   UNL     1      -1.075  10.465  18.315  0.00  0.00    +0.000 A 
ATOM     13  C   UNL     1      -1.804  10.042  17.169  0.00  0.00    +0.000 A 
ATOM     14  C   UNL     1      -3.105  10.480  16.920  0.00  0.00    +0.000 A 
ATOM     15  C   UNL     1      -3.681  11.319  17.848  0.00  0.00    +0.000 A 
ATOM     16  C   UNL     1      -3.007  11.746  18.973  0.00  0.00    +0.000 A 
ATOM     17  C   UNL     1      -3.911  12.606  19.766  0.00  0.00    +0.000 C 
ATOM     18  O   UNL     1      -5.127  12.633  18.989  0.00  0.00    +0.000 OA
ATOM     19  C   UNL     1      -5.019  11.884  17.848  0.00  0.00    +0.000 C 
ATOM     20  O   UNL     1      -5.882  11.723  17.007  0.00  0.00    +0.000 OA
ENDBRANCH   8  12
ENDBRANCH   7   8
ENDBRANCH   1   7
BRANCH   4  21
ATOM     21  C   UNL     1       4.144   5.878  19.394  0.00  0.00    +0.000 C 
BRANCH  21  22
ATOM     22  C   UNL     1       5.089   4.671  19.165  0.00  0.00    +0.000 C 
ATOM     23  F   UNL     1       4.508   3.534  19.658  0.00  0.00    +0.000 F 
BRANCH  22  24
ATOM     24  C   UNL     1       5.383   4.497  17.684  0.00  0.00    +0.000 A 
ATOM     25  C   UNL     1       4.495   3.687  16.930  0.00  0.00    +0.000 A 
ATOM     26  C   UNL     1       4.687   3.472  15.568  0.00  0.00    +0.000 A 
ATOM     27  C   UNL     1       5.775   4.089  14.984  0.00  0.00    +0.000 A 
ATOM     28  C   UNL     1       6.649   4.893  15.688  0.00  0.00    +0.000 A 
ATOM     29  C   UNL     1       6.486   5.118  17.053  0.00  0.00    +0.000 A 
ATOM     30  C   UNL     1       7.439   5.999  17.812  0.00  0.00    +0.000 C 
ATOM     31  C   UNL     1       7.678   5.396  14.751  0.00  0.00    +0.000 C 
ATOM     32  O   UNL     1       7.319   4.797  13.490  0.00  0.00    +0.000 OA
ATOM     33  C   UNL     1       6.200   4.020  13.594  0.00  0.00    +0.000 C 
ATOM     34  O   UNL     1       5.665   3.393  12.701  0.00  0.00    +0.000 OA
ENDBRANCH  22  24
ENDBRANCH  21  22
ENDBRANCH   4  21
TORSDOF 6
ENDMDL
MODEL 8
REMARK VINA RESULT:      -8.2      0.964      1.771
REMARK  Name = 
REMARK  8 active torsions:
REMARK  status: ('A' for Active; 'I' for Inactive)
REMARK    1  A    between atoms: C_1  and  C_2
REMARK    2  A    between atoms: C_3  and  C_4
REMARK    3  A    between atoms: C_4  and  C_6
REMARK    4  A    between atoms: C_6  and  N_7
REMARK    5  A    between atoms: N_10  and  C_11
REMARK    6  A    between atoms: C_11  and  C_12
REMARK    7  A    between atoms: C_12  and  C_14
REMARK    8  A    between atoms: C_19  and  C_20
REMARK                            x       y       z     vdW  Elec       q    Type
REMARK                         _______ _______ _______ _____ _____    ______ ____
ROOT
ATOM      1  N   UNL     1      -0.453  10.585  20.791  0.00  0.00    +0.000 NA
ATOM      2  C   UNL     1      -1.193  10.415  19.530  0.00  0.00    +0.000 C 
ATOM      3  C   UNL     1      -0.419  10.615  18.203  0.00  0.00    +0.000 C 
ATOM      4  N   UNL     1       0.976  10.134  18.221  0.00  0.00    +0.000 NA
ATOM      5  C   UNL     1       1.624  10.798  19.373  0.00  0.00    +0.000 C 
ATOM      6  C   UNL     1       1.000  10.406  20.722  0.00  0.00    +0.000 C 
ENDROOT
BRANCH   1   7
ATOM      7  C   UNL     1      -0.858  11.714  21.628  0.00  0.00    +0.000 C 
BRANCH   7   8
ATOM      8  C   UNL     1      -1.957  12.607  21.007  0.00  0.00    +0.000 C 
ATOM      9  F   UNL     1      -1.418  13.857  20.854  0.00  0.00    +0.000 F 
BRANCH   8  12
ATOM     10  C   UNL     1      -4.515  12.337  19.465  0.00  0.00    +0.000 C 
ATOM     11  C   UNL     1      -4.499  12.575  20.951  0.00  0.00    +0.000 A 
ATOM     12  C   UNL     1      -3.308  12.680  21.713  0.00  0.00    +0.000 A 
ATOM     13  C   UNL     1      -3.408  12.877  23.119  0.00  0.00    +0.000 A 
ATOM     14  C   UNL     1      -4.641  12.967  23.765  0.00  0.00    +0.000 A 
ATOM     15  C   UNL     1      -5.774  12.892  22.985  0.00  0.00    +0.000 A 
ATOM     16  C   UNL     1      -5.716  12.706  21.620  0.00  0.00    +0.000 A 
ATOM     17  C   UNL     1      -7.095  12.697  21.088  0.00  0.00    +0.000 C 
ATOM     18  O   UNL     1      -7.917  12.878  22.260  0.00  0.00    +0.000 OA
ATOM     19  C   UNL     1      -7.163  12.992  23.397  0.00  0.00    +0.000 C 
ATOM     20  O   UNL     1      -7.581  13.153  24.527  0.00  0.00    +0.000 OA
ENDBRANCH   8  12
ENDBRANCH   7   8
ENDBRANCH   1   7
BRANCH   4  21
ATOM     21  C   UNL     1       1.000   8.649  18.334  0.00  0.00    +0.000 C 
BRANCH  21  22
ATOM     22  C   UNL     1       2.324   7.957  17.923  0.00  0.00    +0.000 C 
ATOM     23  F   UNL     1       3.373   8.811  18.133  0.00  0.00    +0.000 F 
BRANCH  22  24
ATOM     24  C   UNL     1       2.532   6.682  18.725  0.00  0.00    +0.000 A 
ATOM     25  C   UNL     1       1.761   6.518  19.905  0.00  0.00    +0.000 A 
ATOM     26  C   UNL     1       1.885   5.383  20.701  0.00  0.00    +0.000 A 
ATOM     27  C   UNL     1       2.786   4.422  20.286  0.00  0.00    +0.000 A 
ATOM     28  C   UNL     1       3.540   4.548  19.136  0.00  0.00    +0.000 A 
ATOM     29  C   UNL     1       3.442   5.676  18.326  0.00  0.00    +0.000 A 
ATOM     30  C   UNL     1       4.264   5.804  17.073  0.00  0.00    +0.000 C 
ATOM     31  C   UNL     1       4.377   3.336  18.994  0.00  0.00    +0.000 C 
ATOM     32  O   UNL     1       4.044   2.547  20.153  0.00  0.00    +0.000 OA
ATOM     33  C   UNL     1       3.107   3.161  20.936  0.00  0.00    +0.000 C 
ATOM     34  O   UNL     1       2.636   2.736  21.972  0.00  0.00    +0.000 OA
ENDBRANCH  22  24
ENDBRANCH  21  22
ENDBRANCH   4  21
TORSDOF 6
ENDMDL
MODEL 9
REMARK VINA RESULT:      -8.2      1.888      3.015
REMARK  Name = 
REMARK  8 active torsions:
REMARK  status: ('A' for Active; 'I' for Inactive)
REMARK    1  A    between atoms: C_1  and  C_2
REMARK    2  A    between atoms: C_3  and  C_4
REMARK    3  A    between atoms: C_4  and  C_6
REMARK    4  A    between atoms: C_6  and  N_7
REMARK    5  A    between atoms: N_10  and  C_11
REMARK    6  A    between atoms: C_11  and  C_12
REMARK    7  A    between atoms: C_12  and  C_14
REMARK    8  A    between atoms: C_19  and  C_20
REMARK                            x       y       z     vdW  Elec       q    Type
REMARK                         _______ _______ _______ _____ _____    ______ ____
ROOT
ATOM      1  N   UNL     1       0.130  12.449  21.100  0.00  0.00    +0.000 NA
ATOM      2  C   UNL     1       0.005  11.398  22.123  0.00  0.00    +0.000 C 
ATOM      3  C   UNL     1      -0.671  10.066  21.712  0.00  0.00    +0.000 C 
ATOM      4  N   UNL     1      -0.376   9.619  20.336  0.00  0.00    +0.000 NA
ATOM      5  C   UNL     1      -0.741  10.748  19.453  0.00  0.00    +0.000 C 
ATOM      6  C   UNL     1       0.106  12.006  19.704  0.00  0.00    +0.000 C 
ENDROOT
BRANCH   1   7
ATOM      7  C   UNL     1      -0.643  13.669  21.334  0.00  0.00    +0.000 C 
BRANCH   7   8
ATOM      8  C   UNL     1      -1.985  13.731  20.572  0.00  0.00    +0.000 C 
ATOM      9  F   UNL     1      -2.051  14.962  19.973  0.00  0.00    +0.000 F 
BRANCH   8  12
ATOM     10  C   UNL     1      -4.275  12.299  19.268  0.00  0.00    +0.000 C 
ATOM     11  C   UNL     1      -4.340  12.780  20.692  0.00  0.00    +0.000 A 
ATOM     12  C   UNL     1      -3.267  13.434  21.347  0.00  0.00    +0.000 A 
ATOM     13  C   UNL     1      -3.425  13.822  22.706  0.00  0.00    +0.000 A 
ATOM     14  C   UNL     1      -4.603  13.574  23.412  0.00  0.00    +0.000 A 
ATOM     15  C   UNL     1      -5.633  12.963  22.732  0.00  0.00    +0.000 A 
ATOM     16  C   UNL     1      -5.519  12.578  21.413  0.00  0.00    +0.000 A 
ATOM     17  C   UNL     1      -6.801  11.983  20.983  0.00  0.00    +0.000 C 
ATOM     18  O   UNL     1      -7.626  12.056  22.165  0.00  0.00    +0.000 OA
ATOM     19  C   UNL     1      -6.961  12.628  23.216  0.00  0.00    +0.000 C 
ATOM     20  O   UNL     1      -7.404  12.820  24.331  0.00  0.00    +0.000 OA
ENDBRANCH   8  12
ENDBRANCH   7   8
ENDBRANCH   1   7
BRANCH   4  21
ATOM     21  C   UNL     1       1.061   9.247  20.220  0.00  0.00    +0.000 C 
BRANCH  21  22
ATOM     22  C   UNL     1       1.438   7.830  20.720  0.00  0.00    +0.000 C 
ATOM     23  F   UNL     1       0.300   7.117  20.982  0.00  0.00    +0.000 F 
BRANCH  22  24
ATOM     24  C   UNL     1       2.271   7.100  19.678  0.00  0.00    +0.000 A 
ATOM     25  C   UNL     1       2.743   7.854  18.572  0.00  0.00    +0.000 A 
ATOM     26  C   UNL     1       3.513   7.269  17.570  0.00  0.00    +0.000 A 
ATOM     27  C   UNL     1       3.802   5.926  17.706  0.00  0.00    +0.000 A 
ATOM     28  C   UNL     1       3.368   5.170  18.778  0.00  0.00    +0.000 A 
ATOM     29  C   UNL     1       2.590   5.727  19.789  0.00  0.00    +0.000 A 
ATOM     30  C   UNL     1       2.125   4.899  20.955  0.00  0.00    +0.000 C 
ATOM     31  C   UNL     1       3.872   3.789  18.607  0.00  0.00    +0.000 C 
ATOM     32  O   UNL     1       4.595   3.835  17.361  0.00  0.00    +0.000 OA
ATOM     33  C   UNL     1       4.573   5.084  16.805  0.00  0.00    +0.000 C 
ATOM     34  O   UNL     1       5.093   5.422  15.760  0.00  0.00    +0.000 OA
ENDBRANCH  22  24
ENDBRANCH  21  22
ENDBRANCH   4  21
TORSDOF 6
ENDMDL
