MODEL 1
REMARK VINA RESULT:      -8.2      0.000      0.000
REMARK  Name = 
REMARK  13 active torsions:
REMARK  status: ('A' for Active; 'I' for Inactive)
REMARK    1  A    between atoms: C_1  and  C_2
REMARK    2  A    between atoms: C_2  and  C_3
REMARK    3  A    between atoms: C_3  and  C_4
REMARK    4  A    between atoms: C_4  and  C_5
REMARK    5  A    between atoms: C_5  and  C_6
REMARK    6  A    between atoms: C_6  and  N_7
REMARK    7  A    between atoms: C_8  and  O_10
REMARK    8  A    between atoms: O_10  and  C_11
REMARK    9  A    between atoms: C_16  and  C_17
REMARK   10  A    between atoms: C_20  and  C_21
REMARK   11  A    between atoms: C_21  and  C_22
REMARK   12  A    between atoms: C_21  and  C_23
REMARK   13  A    between atoms: C_23  and  O_25
REMARK                            x       y       z     vdW  Elec       q    Type
REMARK                         _______ _______ _______ _____ _____    ______ ____
ROOT
ATOM      1  C   UNL     1       4.053   4.743  19.350  0.00  0.00    +0.000 A 
ATOM      2  C   UNL     1       4.314   3.365  19.481  0.00  0.00    +0.000 A 
ATOM      3  C   UNL     1       3.272   2.460  19.614  0.00  0.00    +0.000 A 
ATOM      4  C   UNL     1       1.971   2.932  19.686  0.00  0.00    +0.000 A 
ATOM      5  C   UNL     1       1.716   4.304  19.595  0.00  0.00    +0.000 A 
ATOM      6  C   UNL     1       2.738   5.261  19.387  0.00  0.00    +0.000 A 
ENDROOT
BRANCH   6   7
ATOM      7  C   UNL     1       2.363   6.688  19.171  0.00  0.00    +0.000 A 
ATOM      8  C   UNL     1       2.527   7.348  17.943  0.00  0.00    +0.000 A 
ATOM      9  C   UNL     1       2.094   8.673  17.746  0.00  0.00    +0.000 A 
ATOM     10  C   UNL     1       1.500   9.405  18.785  0.00  0.00    +0.000 A 
ATOM     11  C   UNL     1       1.375   8.786  20.028  0.00  0.00    +0.000 A 
ATOM     12  C   UNL     1       1.791   7.462  20.206  0.00  0.00    +0.000 A 
ATOM     13  F   UNL     1       1.594   6.939  21.426  0.00  0.00    +0.000 F 
BRANCH  10  14
ATOM     14  C   UNL     1       0.900  10.777  18.514  0.00  0.00    +0.000 C 
ATOM     15  C   UNL     1      -0.274  11.007  19.473  0.00  0.00    +0.000 C 
BRANCH  14  16
ATOM     16  C   UNL     1       1.889  11.935  18.603  0.00  0.00    +0.000 C 
ATOM     17  O   UNL     1       2.114  12.597  19.608  0.00  0.00    +0.000 OA
BRANCH  16  18
ATOM     18  O   UNL     1       2.503  12.208  17.429  0.00  0.00    +0.000 OA
ATOM     19  H   UNL     1       3.332  12.713  17.524  0.00  0.00    +0.000 HD
ENDBRANCH  16  18
ENDBRANCH  14  16
ENDBRANCH  10  14
ENDBRANCH   6   7
BRANCH   1  20
ATOM     20  O   UNL     1       5.179   5.596  19.292  0.00  0.00    +0.000 OA
BRANCH  20  22
ATOM     21  N   UNL     1       5.922   5.298  17.178  0.00  0.00    +0.000 N 
ATOM     22  C   UNL     1       6.240   5.166  18.504  0.00  0.00    +0.000 C 
ATOM     23  O   UNL     1       7.313   4.747  18.916  0.00  0.00    +0.000 OA
ATOM     24  H   UNL     1       5.087   5.821  16.954  0.00  0.00    +0.000 HD
BRANCH  21  25
ATOM     25  C   UNL     1       6.799   4.838  16.122  0.00  0.00    +0.000 C 
BRANCH  25  26
ATOM     26  C   UNL     1       6.169   3.721  15.285  0.00  0.00    +0.000 C 
BRANCH  26  27
ATOM     27  C   UNL     1       5.599   4.243  13.963  0.00  0.00    +0.000 C 
BRANCH  27  28
ATOM     28  C   UNL     1       6.451   3.798  12.776  0.00  0.00    +0.000 C 
BRANCH  28  30
ATOM     29  C   UNL     1       4.350   3.269  11.497  0.00  0.00    +0.000 C 
ATOM     30  C   UNL     1       5.714   2.759  11.931  0.00  0.00    +0.000 C 
ENDBRANCH  28  30
ENDBRANCH  27  28
ENDBRANCH  26  27
ENDBRANCH  25  26
ENDBRANCH  21  25
ENDBRANCH  20  22
ENDBRANCH   1  20
TORSDOF 11
ENDMDL
MODEL 2
REMARK VINA RESULT:      -8.1      1.278      1.449
REMARK  Name = 
REMARK  13 active torsions:
REMARK  status: ('A' for Active; 'I' for Inactive)
REMARK    1  A    between atoms: C_1  and  C_2
REMARK    2  A    between atoms: C_2  and  C_3
REMARK    3  A    between atoms: C_3  and  C_4
REMARK    4  A    between atoms: C_4  and  C_5
REMARK    5  A    between atoms: C_5  and  C_6
REMARK    6  A    between atoms: C_6  and  N_7
REMARK    7  A    between atoms: C_8  and  O_10
REMARK    8  A    between atoms: O_10  and  C_11
REMARK    9  A    between atoms: C_16  and  C_17
REMARK   10  A    between atoms: C_20  and  C_21
REMARK   11  A    between atoms: C_21  and  C_22
REMARK   12  A    between atoms: C_21  and  C_23
REMARK   13  A    between atoms: C_23  and  O_25
REMARK                            x       y       z     vdW  Elec       q    Type
REMARK                         _______ _______ _______ _____ _____    ______ ____
ROOT
ATOM      1  C   UNL     1       4.034   4.127  18.901  0.00  0.00    +0.000 A 
ATOM      2  C   UNL     1       4.300   2.764  18.661  0.00  0.00    +0.000 A 
ATOM      3  C   UNL     1       3.304   1.925  18.187  0.00  0.00    +0.000 A 
ATOM      4  C   UNL     1       2.022   2.424  18.017  0.00  0.00    +0.000 A 
ATOM      5  C   UNL     1       1.750   3.768  18.292  0.00  0.00    +0.000 A 
ATOM      6  C   UNL     1       2.748   4.682  18.709  0.00  0.00    +0.000 A 
ENDROOT
BRANCH   6   7
ATOM      7  C   UNL     1       2.397   6.124  18.854  0.00  0.00    +0.000 A 
ATOM      8  C   UNL     1       2.429   7.034  17.786  0.00  0.00    +0.000 A 
ATOM      9  C   UNL     1       2.020   8.372  17.935  0.00  0.00    +0.000 A 
ATOM     10  C   UNL     1       1.583   8.865  19.174  0.00  0.00    +0.000 A 
ATOM     11  C   UNL     1       1.592   7.991  20.261  0.00  0.00    +0.000 A 
ATOM     12  C   UNL     1       1.982   6.658  20.096  0.00  0.00    +0.000 A 
ATOM     13  F   UNL     1       1.921   5.883  21.190  0.00  0.00    +0.000 F 
BRANCH  10  14
ATOM     14  C   UNL     1       1.000  10.266  19.283  0.00  0.00    +0.000 C 
ATOM     15  C   UNL     1      -0.251  10.356  18.399  0.00  0.00    +0.000 C 
BRANCH  14  16
ATOM     16  C   UNL     1       0.674  10.713  20.704  0.00  0.00    +0.000 C 
ATOM     17  O   UNL     1       1.436  11.316  21.449  0.00  0.00    +0.000 OA
BRANCH  16  18
ATOM     18  O   UNL     1      -0.564  10.349  21.110  0.00  0.00    +0.000 OA
ATOM     19  H   UNL     1      -0.709  10.443  22.071  0.00  0.00    +0.000 HD
ENDBRANCH  16  18
ENDBRANCH  14  16
ENDBRANCH  10  14
ENDBRANCH   6   7
BRANCH   1  20
ATOM     20  O   UNL     1       5.090   4.889  19.449  0.00  0.00    +0.000 OA
BRANCH  20  22
ATOM     21  N   UNL     1       5.833   5.520  17.410  0.00  0.00    +0.000 N 
ATOM     22  C   UNL     1       6.210   5.063  18.645  0.00  0.00    +0.000 C 
ATOM     23  O   UNL     1       7.370   4.862  18.980  0.00  0.00    +0.000 OA
ATOM     24  H   UNL     1       4.875   5.823  17.303  0.00  0.00    +0.000 HD
BRANCH  21  25
ATOM     25  C   UNL     1       6.779   5.699  16.329  0.00  0.00    +0.000 C 
BRANCH  25  26
ATOM     26  C   UNL     1       6.977   4.423  15.507  0.00  0.00    +0.000 C 
BRANCH  26  27
ATOM     27  C   UNL     1       5.865   4.224  14.473  0.00  0.00    +0.000 C 
BRANCH  27  28
ATOM     28  C   UNL     1       6.426   4.196  13.053  0.00  0.00    +0.000 C 
BRANCH  28  30
ATOM     29  C   UNL     1       4.518   3.375  11.634  0.00  0.00    +0.000 C 
ATOM     30  C   UNL     1       5.855   3.020  12.261  0.00  0.00    +0.000 C 
ENDBRANCH  28  30
ENDBRANCH  27  28
ENDBRANCH  26  27
ENDBRANCH  25  26
ENDBRANCH  21  25
ENDBRANCH  20  22
ENDBRANCH   1  20
TORSDOF 11
ENDMDL
MODEL 3
REMARK VINA RESULT:      -8.0      2.775      4.220
REMARK  Name = 
REMARK  13 active torsions:
REMARK  status: ('A' for Active; 'I' for Inactive)
REMARK    1  A    between atoms: C_1  and  C_2
REMARK    2  A    between atoms: C_2  and  C_3
REMARK    3  A    between atoms: C_3  and  C_4
REMARK    4  A    between atoms: C_4  and  C_5
REMARK    5  A    between atoms: C_5  and  C_6
REMARK    6  A    between atoms: C_6  and  N_7
REMARK    7  A    between atoms: C_8  and  O_10
REMARK    8  A    between atoms: O_10  and  C_11
REMARK    9  A    between atoms: C_16  and  C_17
REMARK   10  A    between atoms: C_20  and  C_21
REMARK   11  A    between atoms: C_21  and  C_22
REMARK   12  A    between atoms: C_21  and  C_23
REMARK   13  A    between atoms: C_23  and  O_25
REMARK                            x       y       z     vdW  Elec       q    Type
REMARK                         _______ _______ _______ _____ _____    ______ ____
ROOT
ATOM      1  C   UNL     1       3.961   4.628  18.913  0.00  0.00    +0.000 A 
ATOM      2  C   UNL     1       4.325   3.323  18.522  0.00  0.00    +0.000 A 
ATOM      3  C   UNL     1       3.494   2.576  17.702  0.00  0.00    +0.000 A 
ATOM      4  C   UNL     1       2.267   3.098  17.325  0.00  0.00    +0.000 A 
ATOM      5  C   UNL     1       1.890   4.378  17.745  0.00  0.00    +0.000 A 
ATOM      6  C   UNL     1       2.732   5.208  18.523  0.00  0.00    +0.000 A 
ENDROOT
BRANCH   6   7
ATOM      7  C   UNL     1       2.304   6.606  18.816  0.00  0.00    +0.000 A 
ATOM      8  C   UNL     1       2.316   7.631  17.856  0.00  0.00    +0.000 A 
ATOM      9  C   UNL     1       1.834   8.923  18.141  0.00  0.00    +0.000 A 
ATOM     10  C   UNL     1       1.342   9.251  19.412  0.00  0.00    +0.000 A 
ATOM     11  C   UNL     1       1.369   8.263  20.396  0.00  0.00    +0.000 A 
ATOM     12  C   UNL     1       1.831   6.977  20.096  0.00  0.00    +0.000 A 
ATOM     13  F   UNL     1       1.782   6.082  21.095  0.00  0.00    +0.000 F 
BRANCH  10  14
ATOM     14  C   UNL     1       0.685  10.602  19.658  0.00  0.00    +0.000 C 
ATOM     15  C   UNL     1      -0.820  10.480  19.389  0.00  0.00    +0.000 C 
BRANCH  14  16
ATOM     16  C   UNL     1       0.928  11.187  21.045  0.00  0.00    +0.000 C 
ATOM     17  O   UNL     1       0.420  10.781  22.083  0.00  0.00    +0.000 OA
BRANCH  16  18
ATOM     18  O   UNL     1       1.760  12.254  21.039  0.00  0.00    +0.000 OA
ATOM     19  H   UNL     1       1.492  12.961  20.421  0.00  0.00    +0.000 HD
ENDBRANCH  16  18
ENDBRANCH  14  16
ENDBRANCH  10  14
ENDBRANCH   6   7
BRANCH   1  20
ATOM     20  O   UNL     1       4.835   5.286  19.806  0.00  0.00    +0.000 OA
BRANCH  20  22
ATOM     21  N   UNL     1       6.059   6.359  18.239  0.00  0.00    +0.000 N 
ATOM     22  C   UNL     1       6.118   5.544  19.338  0.00  0.00    +0.000 C 
ATOM     23  O   UNL     1       7.157   5.131  19.834  0.00  0.00    +0.000 OA
ATOM     24  H   UNL     1       5.168   6.786  18.028  0.00  0.00    +0.000 HD
BRANCH  21  25
ATOM     25  C   UNL     1       7.237   6.719  17.478  0.00  0.00    +0.000 C 
BRANCH  25  26
ATOM     26  C   UNL     1       8.214   7.579  18.283  0.00  0.00    +0.000 C 
BRANCH  26  27
ATOM     27  C   UNL     1       8.132   9.059  17.898  0.00  0.00    +0.000 C 
BRANCH  27  28
ATOM     28  C   UNL     1       9.037   9.914  18.783  0.00  0.00    +0.000 C 
BRANCH  28  30
ATOM     29  C   UNL     1      10.849  11.615  18.393  0.00  0.00    +0.000 C 
ATOM     30  C   UNL     1       9.416  11.218  18.082  0.00  0.00    +0.000 C 
ENDBRANCH  28  30
ENDBRANCH  27  28
ENDBRANCH  26  27
ENDBRANCH  25  26
ENDBRANCH  21  25
ENDBRANCH  20  22
ENDBRANCH   1  20
TORSDOF 11
ENDMDL
MODEL 4
REMARK VINA RESULT:      -8.0      3.617      6.875
REMARK  Name = 
REMARK  13 active torsions:
REMARK  status: ('A' for Active; 'I' for Inactive)
REMARK    1  A    between atoms: C_1  and  C_2
REMARK    2  A    between atoms: C_2  and  C_3
REMARK    3  A    between atoms: C_3  and  C_4
REMARK    4  A    between atoms: C_4  and  C_5
REMARK    5  A    between atoms: C_5  and  C_6
REMARK    6  A    between atoms: C_6  and  N_7
REMARK    7  A    between atoms: C_8  and  O_10
REMARK    8  A    between atoms: O_10  and  C_11
REMARK    9  A    between atoms: C_16  and  C_17
REMARK   10  A    between atoms: C_20  and  C_21
REMARK   11  A    between atoms: C_21  and  C_22
REMARK   12  A    between atoms: C_21  and  C_23
REMARK   13  A    between atoms: C_23  and  O_25
REMARK                            x       y       z     vdW  Elec       q    Type
REMARK                         _______ _______ _______ _____ _____    ______ ____
ROOT
ATOM      1  C   UNL     1       6.911   4.696  15.853  0.00  0.00    +0.000 A 
ATOM      2  C   UNL     1       7.644   4.759  14.651  0.00  0.00    +0.000 A 
ATOM      3  C   UNL     1       7.015   4.559  13.432  0.00  0.00    +0.000 A 
ATOM      4  C   UNL     1       5.670   4.228  13.410  0.00  0.00    +0.000 A 
ATOM      5  C   UNL     1       4.952   4.127  14.606  0.00  0.00    +0.000 A 
ATOM      6  C   UNL     1       5.530   4.392  15.871  0.00  0.00    +0.000 A 
ENDROOT
BRANCH   6   7
ATOM      7  C   UNL     1       4.660   4.388  17.082  0.00  0.00    +0.000 A 
ATOM      8  C   UNL     1       4.483   3.260  17.898  0.00  0.00    +0.000 A 
ATOM      9  C   UNL     1       3.717   3.307  19.078  0.00  0.00    +0.000 A 
ATOM     10  C   UNL     1       3.070   4.486  19.478  0.00  0.00    +0.000 A 
ATOM     11  C   UNL     1       3.190   5.605  18.654  0.00  0.00    +0.000 A 
ATOM     12  C   UNL     1       3.970   5.552  17.495  0.00  0.00    +0.000 A 
ATOM     13  F   UNL     1       4.058   6.689  16.787  0.00  0.00    +0.000 F 
BRANCH  10  14
ATOM     14  C   UNL     1       2.376   4.561  20.830  0.00  0.00    +0.000 C 
ATOM     15  C   UNL     1       1.489   5.812  20.866  0.00  0.00    +0.000 C 
BRANCH  14  16
ATOM     16  C   UNL     1       1.561   3.326  21.198  0.00  0.00    +0.000 C 
ATOM     17  O   UNL     1       1.829   2.546  22.104  0.00  0.00    +0.000 OA
BRANCH  16  18
ATOM     18  O   UNL     1       0.490   3.131  20.395  0.00  0.00    +0.000 OA
ATOM     19  H   UNL     1       0.578   3.537  19.513  0.00  0.00    +0.000 HD
ENDBRANCH  16  18
ENDBRANCH  14  16
ENDBRANCH  10  14
ENDBRANCH   6   7
BRANCH   1  20
ATOM     20  O   UNL     1       7.648   4.842  17.050  0.00  0.00    +0.000 OA
BRANCH  20  22
ATOM     21  N   UNL     1       7.591   7.101  17.026  0.00  0.00    +0.000 N 
ATOM     22  C   UNL     1       7.394   5.986  17.797  0.00  0.00    +0.000 C 
ATOM     23  O   UNL     1       7.028   6.012  18.964  0.00  0.00    +0.000 OA
ATOM     24  H   UNL     1       7.713   6.959  16.033  0.00  0.00    +0.000 HD
BRANCH  21  25
ATOM     25  C   UNL     1       7.496   8.441  17.565  0.00  0.00    +0.000 C 
BRANCH  25  26
ATOM     26  C   UNL     1       8.713   8.818  18.413  0.00  0.00    +0.000 C 
BRANCH  26  27
ATOM     27  C   UNL     1       8.793  10.326  18.670  0.00  0.00    +0.000 C 
BRANCH  27  28
ATOM     28  C   UNL     1      10.063  10.925  18.068  0.00  0.00    +0.000 C 
BRANCH  28  30
ATOM     29  C   UNL     1      10.217  11.570  20.495  0.00  0.00    +0.000 C 
ATOM     30  C   UNL     1      10.887  11.647  19.134  0.00  0.00    +0.000 C 
ENDBRANCH  28  30
ENDBRANCH  27  28
ENDBRANCH  26  27
ENDBRANCH  25  26
ENDBRANCH  21  25
ENDBRANCH  20  22
ENDBRANCH   1  20
TORSDOF 11
ENDMDL
MODEL 5
REMARK VINA RESULT:      -7.9      1.337      1.624
REMARK  Name = 
REMARK  13 active torsions:
REMARK  status: ('A' for Active; 'I' for Inactive)
REMARK    1  A    between atoms: C_1  and  C_2
REMARK    2  A    between atoms: C_2  and  C_3
REMARK    3  A    between atoms: C_3  and  C_4
REMARK    4  A    between atoms: C_4  and  C_5
REMARK    5  A    between atoms: C_5  and  C_6
REMARK    6  A    between atoms: C_6  and  N_7
REMARK    7  A    between atoms: C_8  and  O_10
REMARK    8  A    between atoms: O_10  and  C_11
REMARK    9  A    between atoms: C_16  and  C_17
REMARK   10  A    between atoms: C_20  and  C_21
REMARK   11  A    between atoms: C_21  and  C_22
REMARK   12  A    between atoms: C_21  and  C_23
REMARK   13  A    between atoms: C_23  and  O_25
REMARK                            x       y       z     vdW  Elec       q    Type
REMARK                         _______ _______ _______ _____ _____    ______ ____
ROOT
ATOM      1  C   UNL     1       3.996   4.171  19.157  0.00  0.00    +0.000 A 
ATOM      2  C   UNL     1       4.233   2.796  18.956  0.00  0.00    +0.000 A 
ATOM      3  C   UNL     1       3.313   2.017  18.271  0.00  0.00    +0.000 A 
ATOM      4  C   UNL     1       2.124   2.588  17.846  0.00  0.00    +0.000 A 
ATOM      5  C   UNL     1       1.874   3.944  18.081  0.00  0.00    +0.000 A 
ATOM      6  C   UNL     1       2.810   4.798  18.710  0.00  0.00    +0.000 A 
ENDROOT
BRANCH   6   7
ATOM      7  C   UNL     1       2.515   6.257  18.803  0.00  0.00    +0.000 A 
ATOM      8  C   UNL     1       2.706   7.149  17.736  0.00  0.00    +0.000 A 
ATOM      9  C   UNL     1       2.347   8.506  17.827  0.00  0.00    +0.000 A 
ATOM     10  C   UNL     1       1.804   9.037  19.006  0.00  0.00    +0.000 A 
ATOM     11  C   UNL     1       1.654   8.180  20.096  0.00  0.00    +0.000 A 
ATOM     12  C   UNL     1       1.995   6.828  19.987  0.00  0.00    +0.000 A 
ATOM     13  F   UNL     1       1.779   6.073  21.076  0.00  0.00    +0.000 F 
BRANCH  10  14
ATOM     14  C   UNL     1       1.280  10.465  19.038  0.00  0.00    +0.000 C 
ATOM     15  C   UNL     1       2.069  11.309  18.029  0.00  0.00    +0.000 C 
BRANCH  14  16
ATOM     16  C   UNL     1      -0.217  10.601  18.781  0.00  0.00    +0.000 C 
ATOM     17  O   UNL     1      -1.049  10.946  19.611  0.00  0.00    +0.000 OA
BRANCH  16  18
ATOM     18  O   UNL     1      -0.578  10.268  17.520  0.00  0.00    +0.000 OA
ATOM     19  H   UNL     1       0.162  10.265  16.884  0.00  0.00    +0.000 HD
ENDBRANCH  16  18
ENDBRANCH  14  16
ENDBRANCH  10  14
ENDBRANCH   6   7
BRANCH   1  20
ATOM     20  O   UNL     1       4.954   4.870  19.926  0.00  0.00    +0.000 OA
BRANCH  20  22
ATOM     21  N   UNL     1       6.177   4.612  18.044  0.00  0.00    +0.000 N 
ATOM     22  C   UNL     1       6.195   5.070  19.334  0.00  0.00    +0.000 C 
ATOM     23  O   UNL     1       7.165   5.594  19.866  0.00  0.00    +0.000 OA
ATOM     24  H   UNL     1       5.278   4.368  17.653  0.00  0.00    +0.000 HD
BRANCH  21  25
ATOM     25  C   UNL     1       7.361   4.599  17.210  0.00  0.00    +0.000 C 
BRANCH  25  26
ATOM     26  C   UNL     1       7.029   4.718  15.721  0.00  0.00    +0.000 C 
BRANCH  26  27
ATOM     27  C   UNL     1       5.523   4.634  15.457  0.00  0.00    +0.000 C 
BRANCH  27  28
ATOM     28  C   UNL     1       5.232   4.291  13.997  0.00  0.00    +0.000 C 
BRANCH  28  30
ATOM     29  C   UNL     1       6.197   3.058  12.028  0.00  0.00    +0.000 C 
ATOM     30  C   UNL     1       6.510   3.882  13.265  0.00  0.00    +0.000 C 
ENDBRANCH  28  30
ENDBRANCH  27  28
ENDBRANCH  26  27
ENDBRANCH  25  26
ENDBRANCH  21  25
ENDBRANCH  20  22
ENDBRANCH   1  20
TORSDOF 11
ENDMDL
MODEL 6
REMARK VINA RESULT:      -7.8      1.493      1.811
REMARK  Name = 
REMARK  13 active torsions:
REMARK  status: ('A' for Active; 'I' for Inactive)
REMARK    1  A    between atoms: C_1  and  C_2
REMARK    2  A    between atoms: C_2  and  C_3
REMARK    3  A    between atoms: C_3  and  C_4
REMARK    4  A    between atoms: C_4  and  C_5
REMARK    5  A    between atoms: C_5  and  C_6
REMARK    6  A    between atoms: C_6  and  N_7
REMARK    7  A    between atoms: C_8  and  O_10
REMARK    8  A    between atoms: O_10  and  C_11
REMARK    9  A    between atoms: C_16  and  C_17
REMARK   10  A    between atoms: C_20  and  C_21
REMARK   11  A    between atoms: C_21  and  C_22
REMARK   12  A    between atoms: C_21  and  C_23
REMARK   13  A    between atoms: C_23  and  O_25
REMARK                            x       y       z     vdW  Elec       q    Type
REMARK                         _______ _______ _______ _____ _____    ______ ____
ROOT
ATOM      1  C   UNL     1       3.859   4.267  18.051  0.00  0.00    +0.000 A 
ATOM      2  C   UNL     1       4.031   2.896  17.769  0.00  0.00    +0.000 A 
ATOM      3  C   UNL     1       2.952   2.027  17.817  0.00  0.00    +0.000 A 
ATOM      4  C   UNL     1       1.713   2.506  18.214  0.00  0.00    +0.000 A 
ATOM      5  C   UNL     1       1.553   3.859  18.531  0.00  0.00    +0.000 A 
ATOM      6  C   UNL     1       2.605   4.800  18.428  0.00  0.00    +0.000 A 
ENDROOT
BRANCH   6   7
ATOM      7  C   UNL     1       2.313   6.244  18.660  0.00  0.00    +0.000 A 
ATOM      8  C   UNL     1       2.357   7.210  17.642  0.00  0.00    +0.000 A 
ATOM      9  C   UNL     1       2.003   8.552  17.874  0.00  0.00    +0.000 A 
ATOM     10  C   UNL     1       1.613   8.991  19.148  0.00  0.00    +0.000 A 
ATOM     11  C   UNL     1       1.612   8.059  20.185  0.00  0.00    +0.000 A 
ATOM     12  C   UNL     1       1.947   6.724  19.938  0.00  0.00    +0.000 A 
ATOM     13  F   UNL     1       1.879   5.892  20.990  0.00  0.00    +0.000 F 
BRANCH  10  14
ATOM     14  C   UNL     1       1.086  10.405  19.346  0.00  0.00    +0.000 C 
ATOM     15  C   UNL     1      -0.008  10.681  18.307  0.00  0.00    +0.000 C 
BRANCH  14  16
ATOM     16  C   UNL     1       0.568  10.701  20.750  0.00  0.00    +0.000 C 
ATOM     17  O   UNL     1       1.208  11.246  21.640  0.00  0.00    +0.000 OA
BRANCH  16  18
ATOM     18  O   UNL     1      -0.698  10.270  20.956  0.00  0.00    +0.000 OA
ATOM     19  H   UNL     1      -0.753   9.375  21.342  0.00  0.00    +0.000 HD
ENDBRANCH  16  18
ENDBRANCH  14  16
ENDBRANCH  10  14
ENDBRANCH   6   7
BRANCH   1  20
ATOM     20  O   UNL     1       5.026   5.063  18.046  0.00  0.00    +0.000 OA
BRANCH  20  22
ATOM     21  N   UNL     1       5.511   4.700  15.869  0.00  0.00    +0.000 N 
ATOM     22  C   UNL     1       6.017   4.701  17.142  0.00  0.00    +0.000 C 
ATOM     23  O   UNL     1       7.180   4.440  17.421  0.00  0.00    +0.000 OA
ATOM     24  H   UNL     1       4.596   5.106  15.737  0.00  0.00    +0.000 HD
BRANCH  21  25
ATOM     25  C   UNL     1       6.289   4.268  14.727  0.00  0.00    +0.000 C 
BRANCH  25  26
ATOM     26  C   UNL     1       5.427   4.052  13.481  0.00  0.00    +0.000 C 
BRANCH  26  27
ATOM     27  C   UNL     1       6.149   3.221  12.417  0.00  0.00    +0.000 C 
BRANCH  27  28
ATOM     28  C   UNL     1       5.169   2.672  11.380  0.00  0.00    +0.000 C 
BRANCH  28  30
ATOM     29  C   UNL     1       3.292   3.738  10.089  0.00  0.00    +0.000 C 
ATOM     30  C   UNL     1       3.821   3.386  11.469  0.00  0.00    +0.000 C 
ENDBRANCH  28  30
ENDBRANCH  27  28
ENDBRANCH  26  27
ENDBRANCH  25  26
ENDBRANCH  21  25
ENDBRANCH  20  22
ENDBRANCH   1  20
TORSDOF 11
ENDMDL
MODEL 7
REMARK VINA RESULT:      -7.7      1.310      1.501
REMARK  Name = 
REMARK  13 active torsions:
REMARK  status: ('A' for Active; 'I' for Inactive)
REMARK    1  A    between atoms: C_1  and  C_2
REMARK    2  A    between atoms: C_2  and  C_3
REMARK    3  A    between atoms: C_3  and  C_4
REMARK    4  A    between atoms: C_4  and  C_5
REMARK    5  A    between atoms: C_5  and  C_6
REMARK    6  A    between atoms: C_6  and  N_7
REMARK    7  A    between atoms: C_8  and  O_10
REMARK    8  A    between atoms: O_10  and  C_11
REMARK    9  A    between atoms: C_16  and  C_17
REMARK   10  A    between atoms: C_20  and  C_21
REMARK   11  A    between atoms: C_21  and  C_22
REMARK   12  A    between atoms: C_21  and  C_23
REMARK   13  A    between atoms: C_23  and  O_25
REMARK                            x       y       z     vdW  Elec       q    Type
REMARK                         _______ _______ _______ _____ _____    ______ ____
ROOT
ATOM      1  C   UNL     1       3.882   4.135  18.537  0.00  0.00    +0.000 A 
ATOM      2  C   UNL     1       4.044   2.755  18.305  0.00  0.00    +0.000 A 
ATOM      3  C   UNL     1       2.940   1.936  18.124  0.00  0.00    +0.000 A 
ATOM      4  C   UNL     1       1.669   2.477  18.242  0.00  0.00    +0.000 A 
ATOM      5  C   UNL     1       1.509   3.841  18.510  0.00  0.00    +0.000 A 
ATOM      6  C   UNL     1       2.603   4.731  18.632  0.00  0.00    +0.000 A 
ENDROOT
BRANCH   6   7
ATOM      7  C   UNL     1       2.338   6.190  18.788  0.00  0.00    +0.000 A 
ATOM      8  C   UNL     1       2.484   7.114  17.742  0.00  0.00    +0.000 A 
ATOM      9  C   UNL     1       2.154   8.474  17.897  0.00  0.00    +0.000 A 
ATOM     10  C   UNL     1       1.685   8.972  19.122  0.00  0.00    +0.000 A 
ATOM     11  C   UNL     1       1.581   8.082  20.190  0.00  0.00    +0.000 A 
ATOM     12  C   UNL     1       1.894   6.729  20.018  0.00  0.00    +0.000 A 
ATOM     13  F   UNL     1       1.725   5.941  21.091  0.00  0.00    +0.000 F 
BRANCH  10  14
ATOM     14  C   UNL     1       1.188  10.407  19.228  0.00  0.00    +0.000 C 
ATOM     15  C   UNL     1       2.015  11.293  18.289  0.00  0.00    +0.000 C 
BRANCH  14  16
ATOM     16  C   UNL     1      -0.301  10.588  18.950  0.00  0.00    +0.000 C 
ATOM     17  O   UNL     1      -1.146  10.887  19.784  0.00  0.00    +0.000 OA
BRANCH  16  18
ATOM     18  O   UNL     1      -0.637  10.352  17.661  0.00  0.00    +0.000 OA
ATOM     19  H   UNL     1       0.116  10.101  17.094  0.00  0.00    +0.000 HD
ENDBRANCH  16  18
ENDBRANCH  14  16
ENDBRANCH  10  14
ENDBRANCH   6   7
BRANCH   1  20
ATOM     20  O   UNL     1       5.060   4.877  18.780  0.00  0.00    +0.000 OA
BRANCH  20  22
ATOM     21  N   UNL     1       5.562   5.294  16.617  0.00  0.00    +0.000 N 
ATOM     22  C   UNL     1       6.045   4.810  17.803  0.00  0.00    +0.000 C 
ATOM     23  O   UNL     1       7.187   4.401  17.965  0.00  0.00    +0.000 OA
ATOM     24  H   UNL     1       4.672   5.772  16.642  0.00  0.00    +0.000 HD
BRANCH  21  25
ATOM     25  C   UNL     1       6.335   5.259  15.393  0.00  0.00    +0.000 C 
BRANCH  25  26
ATOM     26  C   UNL     1       6.175   3.936  14.639  0.00  0.00    +0.000 C 
BRANCH  26  27
ATOM     27  C   UNL     1       6.541   4.068  13.158  0.00  0.00    +0.000 C 
BRANCH  27  28
ATOM     28  C   UNL     1       6.046   2.867  12.354  0.00  0.00    +0.000 C 
BRANCH  28  30
ATOM     29  C   UNL     1       3.768   3.320  11.388  0.00  0.00    +0.000 C 
ATOM     30  C   UNL     1       5.264   3.318  11.121  0.00  0.00    +0.000 C 
ENDBRANCH  28  30
ENDBRANCH  27  28
ENDBRANCH  26  27
ENDBRANCH  25  26
ENDBRANCH  21  25
ENDBRANCH  20  22
ENDBRANCH   1  20
TORSDOF 11
ENDMDL
MODEL 8
REMARK VINA RESULT:      -7.6      1.718      2.243
REMARK  Name = 
REMARK  13 active torsions:
REMARK  status: ('A' for Active; 'I' for Inactive)
REMARK    1  A    between atoms: C_1  and  C_2
REMARK    2  A    between atoms: C_2  and  C_3
REMARK    3  A    between atoms: C_3  and  C_4
REMARK    4  A    between atoms: C_4  and  C_5
REMARK    5  A    between atoms: C_5  and  C_6
REMARK    6  A    between atoms: C_6  and  N_7
REMARK    7  A    between atoms: C_8  and  O_10
REMARK    8  A    between atoms: O_10  and  C_11
REMARK    9  A    between atoms: C_16  and  C_17
REMARK   10  A    between atoms: C_20  and  C_21
REMARK   11  A    between atoms: C_21  and  C_22
REMARK   12  A    between atoms: C_21  and  C_23
REMARK   13  A    between atoms: C_23  and  O_25
REMARK                            x       y       z     vdW  Elec       q    Type
REMARK                         _______ _______ _______ _____ _____    ______ ____
ROOT
ATOM      1  C   UNL     1       4.029   4.419  19.202  0.00  0.00    +0.000 A 
ATOM      2  C   UNL     1       4.409   3.112  18.836  0.00  0.00    +0.000 A 
ATOM      3  C   UNL     1       3.527   2.286  18.157  0.00  0.00    +0.000 A 
ATOM      4  C   UNL     1       2.241   2.734  17.901  0.00  0.00    +0.000 A 
ATOM      5  C   UNL     1       1.852   4.017  18.299  0.00  0.00    +0.000 A 
ATOM      6  C   UNL     1       2.736   4.924  18.930  0.00  0.00    +0.000 A 
ENDROOT
BRANCH   6   7
ATOM      7  C   UNL     1       2.276   6.316  19.202  0.00  0.00    +0.000 A 
ATOM      8  C   UNL     1       1.656   6.701  20.401  0.00  0.00    +0.000 A 
ATOM      9  C   UNL     1       1.302   8.038  20.661  0.00  0.00    +0.000 A 
ATOM     10  C   UNL     1       1.531   9.047  19.714  0.00  0.00    +0.000 A 
ATOM     11  C   UNL     1       2.098   8.679  18.494  0.00  0.00    +0.000 A 
ATOM     12  C   UNL     1       2.464   7.350  18.255  0.00  0.00    +0.000 A 
ATOM     13  F   UNL     1       3.039   7.098  17.069  0.00  0.00    +0.000 F 
BRANCH  10  14
ATOM     14  C   UNL     1       1.284  10.506  20.070  0.00  0.00    +0.000 C 
ATOM     15  C   UNL     1       1.265  11.338  18.781  0.00  0.00    +0.000 C 
BRANCH  14  16
ATOM     16  C   UNL     1       0.018  10.760  20.880  0.00  0.00    +0.000 C 
ATOM     17  O   UNL     1      -1.118  10.795  20.426  0.00  0.00    +0.000 OA
BRANCH  16  18
ATOM     18  O   UNL     1       0.258  10.984  22.193  0.00  0.00    +0.000 OA
ATOM     19  H   UNL     1      -0.323  11.660  22.591  0.00  0.00    +0.000 HD
ENDBRANCH  16  18
ENDBRANCH  14  16
ENDBRANCH  10  14
ENDBRANCH   6   7
BRANCH   1  20
ATOM     20  O   UNL     1       4.967   5.162  19.953  0.00  0.00    +0.000 OA
BRANCH  20  22
ATOM     21  N   UNL     1       5.957   5.939  18.076  0.00  0.00    +0.000 N 
ATOM     22  C   UNL     1       6.179   5.437  19.331  0.00  0.00    +0.000 C 
ATOM     23  O   UNL     1       7.287   5.279  19.823  0.00  0.00    +0.000 OA
ATOM     24  H   UNL     1       5.008   6.197  17.843  0.00  0.00    +0.000 HD
BRANCH  21  25
ATOM     25  C   UNL     1       7.037   6.225  17.154  0.00  0.00    +0.000 C 
BRANCH  25  26
ATOM     26  C   UNL     1       7.065   5.258  15.968  0.00  0.00    +0.000 C 
BRANCH  26  27
ATOM     27  C   UNL     1       5.761   4.466  15.839  0.00  0.00    +0.000 C 
BRANCH  27  28
ATOM     28  C   UNL     1       5.342   4.321  14.377  0.00  0.00    +0.000 C 
BRANCH  28  30
ATOM     29  C   UNL     1       6.236   3.325  12.247  0.00  0.00    +0.000 C 
ATOM     30  C   UNL     1       6.561   4.166  13.469  0.00  0.00    +0.000 C 
ENDBRANCH  28  30
ENDBRANCH  27  28
ENDBRANCH  26  27
ENDBRANCH  25  26
ENDBRANCH  21  25
ENDBRANCH  20  22
ENDBRANCH   1  20
TORSDOF 11
ENDMDL
MODEL 9
REMARK VINA RESULT:      -7.5      1.271      1.612
REMARK  Name = 
REMARK  13 active torsions:
REMARK  status: ('A' for Active; 'I' for Inactive)
REMARK    1  A    between atoms: C_1  and  C_2
REMARK    2  A    between atoms: C_2  and  C_3
REMARK    3  A    between atoms: C_3  and  C_4
REMARK    4  A    between atoms: C_4  and  C_5
REMARK    5  A    between atoms: C_5  and  C_6
REMARK    6  A    between atoms: C_6  and  N_7
REMARK    7  A    between atoms: C_8  and  O_10
REMARK    8  A    between atoms: O_10  and  C_11
REMARK    9  A    between atoms: C_16  and  C_17
REMARK   10  A    between atoms: C_20  and  C_21
REMARK   11  A    between atoms: C_21  and  C_22
REMARK   12  A    between atoms: C_21  and  C_23
REMARK   13  A    between atoms: C_23  and  O_25
REMARK                            x       y       z     vdW  Elec       q    Type
REMARK                         _______ _______ _______ _____ _____    ______ ____
ROOT
ATOM      1  C   UNL     1       4.002   4.701  18.854  0.00  0.00    +0.000 A 
ATOM      2  C   UNL     1       4.407   3.443  18.366  0.00  0.00    +0.000 A 
ATOM      3  C   UNL     1       3.567   2.698  17.553  0.00  0.00    +0.000 A 
ATOM      4  C   UNL     1       2.294   3.173  17.280  0.00  0.00    +0.000 A 
ATOM      5  C   UNL     1       1.878   4.405  17.796  0.00  0.00    +0.000 A 
ATOM      6  C   UNL     1       2.723   5.235  18.571  0.00  0.00    +0.000 A 
ENDROOT
BRANCH   6   7
ATOM      7  C   UNL     1       2.243   6.589  18.971  0.00  0.00    +0.000 A 
ATOM      8  C   UNL     1       2.195   7.679  18.088  0.00  0.00    +0.000 A 
ATOM      9  C   UNL     1       1.666   8.925  18.472  0.00  0.00    +0.000 A 
ATOM     10  C   UNL     1       1.184   9.141  19.772  0.00  0.00    +0.000 A 
ATOM     11  C   UNL     1       1.271   8.087  20.681  0.00  0.00    +0.000 A 
ATOM     12  C   UNL     1       1.780   6.847  20.282  0.00  0.00    +0.000 A 
ATOM     13  F   UNL     1       1.787   5.881  21.215  0.00  0.00    +0.000 F 
BRANCH  10  14
ATOM     14  C   UNL     1       0.476  10.441  20.124  0.00  0.00    +0.000 C 
ATOM     15  C   UNL     1       0.892  10.869  21.537  0.00  0.00    +0.000 C 
BRANCH  14  16
ATOM     16  C   UNL     1       0.709  11.581  19.138  0.00  0.00    +0.000 C 
ATOM     17  O   UNL     1      -0.081  11.943  18.276  0.00  0.00    +0.000 OA
BRANCH  16  18
ATOM     18  O   UNL     1       1.920  12.168  19.273  0.00  0.00    +0.000 OA
ATOM     19  H   UNL     1       2.349  11.999  20.133  0.00  0.00    +0.000 HD
ENDBRANCH  16  18
ENDBRANCH  14  16
ENDBRANCH  10  14
ENDBRANCH   6   7
BRANCH   1  20
ATOM     20  O   UNL     1       4.895   5.355  19.732  0.00  0.00    +0.000 OA
BRANCH  20  22
ATOM     21  N   UNL     1       6.133   6.120  18.004  0.00  0.00    +0.000 N 
ATOM     22  C   UNL     1       6.183   5.570  19.257  0.00  0.00    +0.000 C 
ATOM     23  O   UNL     1       7.219   5.330  19.862  0.00  0.00    +0.000 OA
ATOM     24  H   UNL     1       5.233   6.444  17.678  0.00  0.00    +0.000 HD
BRANCH  21  25
ATOM     25  C   UNL     1       7.324   6.365  17.217  0.00  0.00    +0.000 C 
BRANCH  25  26
ATOM     26  C   UNL     1       7.443   5.411  16.026  0.00  0.00    +0.000 C 
BRANCH  26  27
ATOM     27  C   UNL     1       6.107   5.223  15.301  0.00  0.00    +0.000 C 
BRANCH  27  28
ATOM     28  C   UNL     1       5.900   3.768  14.885  0.00  0.00    +0.000 C 
BRANCH  28  30
ATOM     29  C   UNL     1       6.804   4.117  12.563  0.00  0.00    +0.000 C 
ATOM     30  C   UNL     1       5.612   3.661  13.388  0.00  0.00    +0.000 C 
ENDBRANCH  28  30
ENDBRANCH  27  28
ENDBRANCH  26  27
ENDBRANCH  25  26
ENDBRANCH  21  25
ENDBRANCH  20  22
ENDBRANCH   1  20
TORSDOF 11
ENDMDL
