MODEL 1
REMARK VINA RESULT:      -8.0      0.000      0.000
REMARK  Name = 
REMARK  12 active torsions:
REMARK  status: ('A' for Active; 'I' for Inactive)
REMARK    1  A    between atoms: C_1  and  C_2
REMARK    2  A    between atoms: C_2  and  O_3
REMARK    3  A    between atoms: O_3  and  C_4
REMARK    4  A    between atoms: C_4  and  C_6
REMARK    5  A    between atoms: C_6  and  C_7
REMARK    6  A    between atoms: C_12  and  C_13
REMARK    7  A    between atoms: C_13  and  C_14
REMARK    8  A    between atoms: C_13  and  O_20
REMARK    9  A    between atoms: C_14  and  N_15
REMARK   10  A    between atoms: O_20  and  C_21
REMARK   11  A    between atoms: C_21  and  C_22
REMARK   12  A    between atoms: N_31  and  C_32
REMARK                            x       y       z     vdW  Elec       q    Type
REMARK                         _______ _______ _______ _____ _____    ______ ____
ROOT
ATOM      1  C   UNL     1       4.784   5.011  18.140  0.00  0.00    +0.000 C 
ATOM      2  O   UNL     1       4.364   6.076  17.317  0.00  0.00    +0.000 OA
ATOM      3  C   UNL     1       3.474   6.910  17.926  0.00  0.00    +0.000 A 
ATOM      4  C   UNL     1       3.348   8.148  17.312  0.00  0.00    +0.000 A 
ATOM      5  C   UNL     1       2.459   9.086  17.818  0.00  0.00    +0.000 A 
ATOM      6  C   UNL     1       1.591   8.755  18.866  0.00  0.00    +0.000 A 
ATOM      7  C   UNL     1       1.745   7.498  19.496  0.00  0.00    +0.000 A 
ATOM      8  C   UNL     1       2.717   6.582  19.066  0.00  0.00    +0.000 A 
ATOM      9  N   UNL     1       2.931   5.330  19.705  0.00  0.00    +0.000 N 
ATOM     10  C   UNL     1       2.317   4.973  20.970  0.00  0.00    +0.000 C 
ATOM     11  C   UNL     1       3.788   4.394  19.126  0.00  0.00    +0.000 C 
ATOM     12  O   UNL     1       3.852   3.216  19.489  0.00  0.00    +0.000 OA
ENDROOT
BRANCH   1  13
ATOM     13  C   UNL     1       5.488   3.973  17.284  0.00  0.00    +0.000 C 
BRANCH  13  14
ATOM     14  C   UNL     1       6.828   4.443  16.788  0.00  0.00    +0.000 C 
ATOM     15  O   UNL     1       7.867   4.486  17.427  0.00  0.00    +0.000 OA
BRANCH  14  16
ATOM     16  O   UNL     1       6.670   4.887  15.505  0.00  0.00    +0.000 OA
BRANCH  16  18
ATOM     17  C   UNL     1       6.256   3.774  13.432  0.00  0.00    +0.000 C 
ATOM     18  C   UNL     1       5.650   4.227  14.748  0.00  0.00    +0.000 C 
ENDBRANCH  16  18
ENDBRANCH  14  16
ENDBRANCH  13  14
ENDBRANCH   1  13
BRANCH   6  19
ATOM     19  C   UNL     1       0.478   9.699  19.302  0.00  0.00    +0.000 C 
BRANCH  19  20
ATOM     20  C   UNL     1       0.935  10.717  20.370  0.00  0.00    +0.000 C 
BRANCH  20  21
ATOM     21  N   UNL     1       0.239  10.596  21.638  0.00  0.00    +0.000 N 
ATOM     22  C   UNL     1      -0.807  11.364  22.066  0.00  0.00    +0.000 A 
ATOM     23  C   UNL     1      -1.159  10.829  23.283  0.00  0.00    +0.000 A 
ATOM     24  N   UNL     1      -0.313   9.808  23.630  0.00  0.00    +0.000 NA
ATOM     25  C   UNL     1       0.528   9.700  22.626  0.00  0.00    +0.000 A 
ENDBRANCH  20  21
ENDBRANCH  19  20
BRANCH  19  26
ATOM     26  O   UNL     1      -0.098  10.436  18.212  0.00  0.00    +0.000 OA
BRANCH  26  27
ATOM     27  C   UNL     1      -1.035   9.702  17.420  0.00  0.00    +0.000 C 
BRANCH  27  28
ATOM     28  C   UNL     1      -2.348  10.448  17.358  0.00  0.00    +0.000 A 
ATOM     29  C   UNL     1      -2.892  11.103  18.477  0.00  0.00    +0.000 A 
ATOM     30  C   UNL     1      -4.132  11.743  18.396  0.00  0.00    +0.000 A 
ATOM     31  C   UNL     1      -4.826  11.753  17.189  0.00  0.00    +0.000 A 
ATOM     32 CL   UNL     1      -6.378  12.488  17.099  0.00  0.00    +0.000 Cl
ATOM     33  C   UNL     1      -4.274  11.162  16.054  0.00  0.00    +0.000 A 
ATOM     34  C   UNL     1      -3.035  10.520  16.137  0.00  0.00    +0.000 A 
ENDBRANCH  27  28
ENDBRANCH  26  27
ENDBRANCH  19  26
ENDBRANCH   6  19
TORSDOF 10
ENDMDL
MODEL 2
REMARK VINA RESULT:      -7.7      3.717      9.080
REMARK  Name = 
REMARK  12 active torsions:
REMARK  status: ('A' for Active; 'I' for Inactive)
REMARK    1  A    between atoms: C_1  and  C_2
REMARK    2  A    between atoms: C_2  and  O_3
REMARK    3  A    between atoms: O_3  and  C_4
REMARK    4  A    between atoms: C_4  and  C_6
REMARK    5  A    between atoms: C_6  and  C_7
REMARK    6  A    between atoms: C_12  and  C_13
REMARK    7  A    between atoms: C_13  and  C_14
REMARK    8  A    between atoms: C_13  and  O_20
REMARK    9  A    between atoms: C_14  and  N_15
REMARK   10  A    between atoms: O_20  and  C_21
REMARK   11  A    between atoms: C_21  and  C_22
REMARK   12  A    between atoms: N_31  and  C_32
REMARK                            x       y       z     vdW  Elec       q    Type
REMARK                         _______ _______ _______ _____ _____    ______ ____
ROOT
ATOM      1  C   UNL     1      -0.011  11.597  19.170  0.00  0.00    +0.000 C 
ATOM      2  O   UNL     1       0.912  10.908  18.357  0.00  0.00    +0.000 OA
ATOM      3  C   UNL     1       1.260   9.686  18.853  0.00  0.00    +0.000 A 
ATOM      4  C   UNL     1       1.837   8.840  17.916  0.00  0.00    +0.000 A 
ATOM      5  C   UNL     1       2.258   7.573  18.293  0.00  0.00    +0.000 A 
ATOM      6  C   UNL     1       2.227   7.180  19.637  0.00  0.00    +0.000 A 
ATOM      7  C   UNL     1       1.616   8.043  20.577  0.00  0.00    +0.000 A 
ATOM      8  C   UNL     1       1.085   9.283  20.189  0.00  0.00    +0.000 A 
ATOM      9  N   UNL     1       0.425  10.155  21.097  0.00  0.00    +0.000 N 
ATOM     10  C   UNL     1       0.057   9.762  22.445  0.00  0.00    +0.000 C 
ATOM     11  C   UNL     1       0.074  11.443  20.692  0.00  0.00    +0.000 C 
ATOM     12  O   UNL     1      -0.289  12.326  21.473  0.00  0.00    +0.000 OA
ENDROOT
BRANCH   1  13
ATOM     13  C   UNL     1      -0.074  13.048  18.726  0.00  0.00    +0.000 C 
BRANCH  13  14
ATOM     14  C   UNL     1       1.283  13.693  18.656  0.00  0.00    +0.000 C 
ATOM     15  O   UNL     1       2.175  13.426  17.866  0.00  0.00    +0.000 OA
BRANCH  14  16
ATOM     16  O   UNL     1       1.378  14.589  19.683  0.00  0.00    +0.000 OA
BRANCH  16  18
ATOM     17  C   UNL     1       3.107  13.958  21.206  0.00  0.00    +0.000 C 
ATOM     18  C   UNL     1       2.710  14.913  20.094  0.00  0.00    +0.000 C 
ENDBRANCH  16  18
ENDBRANCH  14  16
ENDBRANCH  13  14
ENDBRANCH   1  13
BRANCH   6  19
ATOM     19  C   UNL     1       2.864   5.875  20.098  0.00  0.00    +0.000 C 
BRANCH  19  20
ATOM     20  C   UNL     1       1.843   4.887  20.705  0.00  0.00    +0.000 C 
BRANCH  20  21
ATOM     21  N   UNL     1       1.667   3.672  19.934  0.00  0.00    +0.000 N 
ATOM     22  C   UNL     1       2.427   2.540  20.017  0.00  0.00    +0.000 A 
ATOM     23  C   UNL     1       1.835   1.654  19.147  0.00  0.00    +0.000 A 
ATOM     24  N   UNL     1       0.783   2.243  18.494  0.00  0.00    +0.000 NA
ATOM     25  C   UNL     1       0.715   3.463  18.978  0.00  0.00    +0.000 A 
ENDBRANCH  20  21
ENDBRANCH  19  20
BRANCH  19  26
ATOM     26  O   UNL     1       3.567   5.190  19.050  0.00  0.00    +0.000 OA
BRANCH  26  27
ATOM     27  C   UNL     1       4.992   5.299  19.112  0.00  0.00    +0.000 C 
BRANCH  27  28
ATOM     28  C   UNL     1       5.569   5.253  17.715  0.00  0.00    +0.000 A 
ATOM     29  C   UNL     1       4.913   5.826  16.612  0.00  0.00    +0.000 A 
ATOM     30  C   UNL     1       5.454   5.723  15.328  0.00  0.00    +0.000 A 
ATOM     31  C   UNL     1       6.667   5.066  15.140  0.00  0.00    +0.000 A 
ATOM     32 CL   UNL     1       7.307   4.885  13.554  0.00  0.00    +0.000 Cl
ATOM     33  C   UNL     1       7.361   4.545  16.230  0.00  0.00    +0.000 A 
ATOM     34  C   UNL     1       6.818   4.647  17.513  0.00  0.00    +0.000 A 
ENDBRANCH  27  28
ENDBRANCH  26  27
ENDBRANCH  19  26
ENDBRANCH   6  19
TORSDOF 10
ENDMDL
MODEL 3
REMARK VINA RESULT:      -7.7      3.683      9.280
REMARK  Name = 
REMARK  12 active torsions:
REMARK  status: ('A' for Active; 'I' for Inactive)
REMARK    1  A    between atoms: C_1  and  C_2
REMARK    2  A    between atoms: C_2  and  O_3
REMARK    3  A    between atoms: O_3  and  C_4
REMARK    4  A    between atoms: C_4  and  C_6
REMARK    5  A    between atoms: C_6  and  C_7
REMARK    6  A    between atoms: C_12  and  C_13
REMARK    7  A    between atoms: C_13  and  C_14
REMARK    8  A    between atoms: C_13  and  O_20
REMARK    9  A    between atoms: C_14  and  N_15
REMARK   10  A    between atoms: O_20  and  C_21
REMARK   11  A    between atoms: C_21  and  C_22
REMARK   12  A    between atoms: N_31  and  C_32
REMARK                            x       y       z     vdW  Elec       q    Type
REMARK                         _______ _______ _______ _____ _____    ______ ____
ROOT
ATOM      1  C   UNL     1      -0.441  11.123  19.361  0.00  0.00    +0.000 C 
ATOM      2  O   UNL     1       0.682  10.787  18.578  0.00  0.00    +0.000 OA
ATOM      3  C   UNL     1       1.211   9.569  18.887  0.00  0.00    +0.000 A 
ATOM      4  C   UNL     1       2.042   9.047  17.905  0.00  0.00    +0.000 A 
ATOM      5  C   UNL     1       2.663   7.823  18.102  0.00  0.00    +0.000 A 
ATOM      6  C   UNL     1       2.567   7.162  19.333  0.00  0.00    +0.000 A 
ATOM      7  C   UNL     1       1.700   7.694  20.317  0.00  0.00    +0.000 A 
ATOM      8  C   UNL     1       0.978   8.875  20.089  0.00  0.00    +0.000 A 
ATOM      9  N   UNL     1       0.065   9.413  21.036  0.00  0.00    +0.000 N 
ATOM     10  C   UNL     1      -0.359   8.694  22.222  0.00  0.00    +0.000 C 
ATOM     11  C   UNL     1      -0.489  10.676  20.825  0.00  0.00    +0.000 C 
ATOM     12  O   UNL     1      -1.102  11.303  21.693  0.00  0.00    +0.000 OA
ENDROOT
BRANCH   1  13
ATOM     13  C   UNL     1      -0.743  12.601  19.184  0.00  0.00    +0.000 C 
BRANCH  13  14
ATOM     14  C   UNL     1       0.444  13.475  19.483  0.00  0.00    +0.000 C 
ATOM     15  O   UNL     1       1.139  13.441  20.486  0.00  0.00    +0.000 OA
BRANCH  14  16
ATOM     16  O   UNL     1       0.573  14.375  18.462  0.00  0.00    +0.000 OA
BRANCH  16  18
ATOM     17  C   UNL     1      -0.365  16.572  18.501  0.00  0.00    +0.000 C 
ATOM     18  C   UNL     1       0.841  15.723  18.862  0.00  0.00    +0.000 C 
ENDBRANCH  16  18
ENDBRANCH  14  16
ENDBRANCH  13  14
ENDBRANCH   1  13
BRANCH   6  19
ATOM     19  C   UNL     1       3.398   5.921  19.635  0.00  0.00    +0.000 C 
BRANCH  19  20
ATOM     20  C   UNL     1       2.681   4.931  20.580  0.00  0.00    +0.000 C 
BRANCH  20  21
ATOM     21  N   UNL     1       2.141   3.763  19.912  0.00  0.00    +0.000 N 
ATOM     22  C   UNL     1       0.965   3.694  19.221  0.00  0.00    +0.000 A 
ATOM     23  C   UNL     1       0.923   2.413  18.723  0.00  0.00    +0.000 A 
ATOM     24  N   UNL     1       2.006   1.689  19.152  0.00  0.00    +0.000 NA
ATOM     25  C   UNL     1       2.715   2.524  19.879  0.00  0.00    +0.000 A 
ENDBRANCH  20  21
ENDBRANCH  19  20
BRANCH  19  26
ATOM     26  O   UNL     1       3.784   5.199  18.455  0.00  0.00    +0.000 OA
BRANCH  26  27
ATOM     27  C   UNL     1       5.161   4.817  18.409  0.00  0.00    +0.000 C 
BRANCH  27  28
ATOM     28  C   UNL     1       5.627   4.758  16.972  0.00  0.00    +0.000 A 
ATOM     29  C   UNL     1       4.811   4.270  15.937  0.00  0.00    +0.000 A 
ATOM     30  C   UNL     1       5.292   4.186  14.628  0.00  0.00    +0.000 A 
ATOM     31  C   UNL     1       6.586   4.611  14.339  0.00  0.00    +0.000 A 
ATOM     32 CL   UNL     1       7.203   4.454  12.741  0.00  0.00    +0.000 Cl
ATOM     33  C   UNL     1       7.388   5.153  15.340  0.00  0.00    +0.000 A 
ATOM     34  C   UNL     1       6.907   5.235  16.650  0.00  0.00    +0.000 A 
ENDBRANCH  27  28
ENDBRANCH  26  27
ENDBRANCH  19  26
ENDBRANCH   6  19
TORSDOF 10
ENDMDL
MODEL 4
REMARK VINA RESULT:      -7.6      3.900      8.739
REMARK  Name = 
REMARK  12 active torsions:
REMARK  status: ('A' for Active; 'I' for Inactive)
REMARK    1  A    between atoms: C_1  and  C_2
REMARK    2  A    between atoms: C_2  and  O_3
REMARK    3  A    between atoms: O_3  and  C_4
REMARK    4  A    between atoms: C_4  and  C_6
REMARK    5  A    between atoms: C_6  and  C_7
REMARK    6  A    between atoms: C_12  and  C_13
REMARK    7  A    between atoms: C_13  and  C_14
REMARK    8  A    between atoms: C_13  and  O_20
REMARK    9  A    between atoms: C_14  and  N_15
REMARK   10  A    between atoms: O_20  and  C_21
REMARK   11  A    between atoms: C_21  and  C_22
REMARK   12  A    between atoms: N_31  and  C_32
REMARK                            x       y       z     vdW  Elec       q    Type
REMARK                         _______ _______ _______ _____ _____    ______ ____
ROOT
ATOM      1  C   UNL     1       0.403  11.116  19.802  0.00  0.00    +0.000 C 
ATOM      2  O   UNL     1       1.330  10.782  18.794  0.00  0.00    +0.000 OA
ATOM      3  C   UNL     1       1.673   9.461  18.792  0.00  0.00    +0.000 A 
ATOM      4  C   UNL     1       2.254   9.030  17.608  0.00  0.00    +0.000 A 
ATOM      5  C   UNL     1       2.670   7.713  17.480  0.00  0.00    +0.000 A 
ATOM      6  C   UNL     1       2.629   6.841  18.575  0.00  0.00    +0.000 A 
ATOM      7  C   UNL     1       2.015   7.287  19.768  0.00  0.00    +0.000 A 
ATOM      8  C   UNL     1       1.488   8.583  19.876  0.00  0.00    +0.000 A 
ATOM      9  N   UNL     1       0.824   9.050  21.043  0.00  0.00    +0.000 N 
ATOM     10  C   UNL     1       0.448   8.178  22.140  0.00  0.00    +0.000 C 
ATOM     11  C   UNL     1       0.479  10.397  21.153  0.00  0.00    +0.000 C 
ATOM     12  O   UNL     1       0.112  10.920  22.208  0.00  0.00    +0.000 OA
ENDROOT
BRANCH   1  13
ATOM     13  C   UNL     1       0.345  12.627  19.940  0.00  0.00    +0.000 C 
BRANCH  13  14
ATOM     14  C   UNL     1       1.697  13.239  20.189  0.00  0.00    +0.000 C 
ATOM     15  O   UNL     1       2.449  12.987  21.117  0.00  0.00    +0.000 OA
BRANCH  14  16
ATOM     16  O   UNL     1       1.914  14.187  19.230  0.00  0.00    +0.000 OA
BRANCH  16  18
ATOM     17  C   UNL     1       3.842  14.941  18.037  0.00  0.00    +0.000 C 
ATOM     18  C   UNL     1       2.834  13.817  18.198  0.00  0.00    +0.000 C 
ENDBRANCH  16  18
ENDBRANCH  14  16
ENDBRANCH  13  14
ENDBRANCH   1  13
BRANCH   6  19
ATOM     19  C   UNL     1       3.261   5.456  18.511  0.00  0.00    +0.000 C 
BRANCH  19  20
ATOM     20  C   UNL     1       2.226   4.315  18.623  0.00  0.00    +0.000 C 
BRANCH  20  21
ATOM     21  N   UNL     1       2.206   3.661  19.918  0.00  0.00    +0.000 N 
ATOM     22  C   UNL     1       1.150   3.606  20.783  0.00  0.00    +0.000 A 
ATOM     23  C   UNL     1       1.593   2.831  21.829  0.00  0.00    +0.000 A 
ATOM     24  N   UNL     1       2.905   2.477  21.651  0.00  0.00    +0.000 NA
ATOM     25  C   UNL     1       3.252   3.004  20.497  0.00  0.00    +0.000 A 
ENDBRANCH  20  21
ENDBRANCH  19  20
BRANCH  19  26
ATOM     26  O   UNL     1       4.025   5.239  17.314  0.00  0.00    +0.000 OA
BRANCH  26  27
ATOM     27  C   UNL     1       5.360   4.773  17.530  0.00  0.00    +0.000 C 
BRANCH  27  28
ATOM     28  C   UNL     1       6.275   5.947  17.792  0.00  0.00    +0.000 A 
ATOM     29  C   UNL     1       6.123   7.180  17.136  0.00  0.00    +0.000 A 
ATOM     30  C   UNL     1       7.016   8.228  17.369  0.00  0.00    +0.000 A 
ATOM     31  C   UNL     1       8.057   8.058  18.278  0.00  0.00    +0.000 A 
ATOM     32 CL   UNL     1       9.195   9.325  18.524  0.00  0.00    +0.000 Cl
ATOM     33  C   UNL     1       8.188   6.865  18.984  0.00  0.00    +0.000 A 
ATOM     34  C   UNL     1       7.294   5.816  18.748  0.00  0.00    +0.000 A 
ENDBRANCH  27  28
ENDBRANCH  26  27
ENDBRANCH  19  26
ENDBRANCH   6  19
TORSDOF 10
ENDMDL
MODEL 5
REMARK VINA RESULT:      -7.6      0.725      1.239
REMARK  Name = 
REMARK  12 active torsions:
REMARK  status: ('A' for Active; 'I' for Inactive)
REMARK    1  A    between atoms: C_1  and  C_2
REMARK    2  A    between atoms: C_2  and  O_3
REMARK    3  A    between atoms: O_3  and  C_4
REMARK    4  A    between atoms: C_4  and  C_6
REMARK    5  A    between atoms: C_6  and  C_7
REMARK    6  A    between atoms: C_12  and  C_13
REMARK    7  A    between atoms: C_13  and  C_14
REMARK    8  A    between atoms: C_13  and  O_20
REMARK    9  A    between atoms: C_14  and  N_15
REMARK   10  A    between atoms: O_20  and  C_21
REMARK   11  A    between atoms: C_21  and  C_22
REMARK   12  A    between atoms: N_31  and  C_32
REMARK                            x       y       z     vdW  Elec       q    Type
REMARK                         _______ _______ _______ _____ _____    ______ ____
ROOT
ATOM      1  C   UNL     1       4.810   5.222  17.824  0.00  0.00    +0.000 C 
ATOM      2  O   UNL     1       4.274   6.331  17.139  0.00  0.00    +0.000 OA
ATOM      3  C   UNL     1       3.422   7.076  17.900  0.00  0.00    +0.000 A 
ATOM      4  C   UNL     1       3.193   8.353  17.407  0.00  0.00    +0.000 A 
ATOM      5  C   UNL     1       2.329   9.209  18.075  0.00  0.00    +0.000 A 
ATOM      6  C   UNL     1       1.581   8.758  19.170  0.00  0.00    +0.000 A 
ATOM      7  C   UNL     1       1.841   7.462  19.675  0.00  0.00    +0.000 A 
ATOM      8  C   UNL     1       2.795   6.625  19.076  0.00  0.00    +0.000 A 
ATOM      9  N   UNL     1       3.113   5.336  19.583  0.00  0.00    +0.000 N 
ATOM     10  C   UNL     1       2.642   4.853  20.867  0.00  0.00    +0.000 C 
ATOM     11  C   UNL     1       3.939   4.486  18.847  0.00  0.00    +0.000 C 
ATOM     12  O   UNL     1       4.078   3.287  19.101  0.00  0.00    +0.000 OA
ENDROOT
BRANCH   1  13
ATOM     13  C   UNL     1       5.460   4.287  16.820  0.00  0.00    +0.000 C 
BRANCH  13  14
ATOM     14  C   UNL     1       6.644   4.908  16.131  0.00  0.00    +0.000 C 
ATOM     15  O   UNL     1       7.304   5.854  16.531  0.00  0.00    +0.000 OA
BRANCH  14  16
ATOM     16  O   UNL     1       6.816   4.274  14.933  0.00  0.00    +0.000 OA
BRANCH  16  18
ATOM     17  C   UNL     1       6.034   3.520  12.805  0.00  0.00    +0.000 C 
ATOM     18  C   UNL     1       5.705   4.350  14.033  0.00  0.00    +0.000 C 
ENDBRANCH  16  18
ENDBRANCH  14  16
ENDBRANCH  13  14
ENDBRANCH   1  13
BRANCH   6  19
ATOM     19  C   UNL     1       0.486   9.617  19.791  0.00  0.00    +0.000 C 
BRANCH  19  20
ATOM     20  C   UNL     1       0.990  10.474  20.974  0.00  0.00    +0.000 C 
BRANCH  20  21
ATOM     21  N   UNL     1      -0.069  11.016  21.803  0.00  0.00    +0.000 N 
ATOM     22  C   UNL     1      -0.768  10.346  22.768  0.00  0.00    +0.000 A 
ATOM     23  C   UNL     1      -1.607  11.290  23.313  0.00  0.00    +0.000 A 
ATOM     24  N   UNL     1      -1.482  12.488  22.659  0.00  0.00    +0.000 NA
ATOM     25  C   UNL     1      -0.558  12.289  21.745  0.00  0.00    +0.000 A 
ENDBRANCH  20  21
ENDBRANCH  19  20
BRANCH  19  26
ATOM     26  O   UNL     1      -0.143  10.497  18.848  0.00  0.00    +0.000 OA
BRANCH  26  27
ATOM     27  C   UNL     1      -0.789   9.842  17.753  0.00  0.00    +0.000 C 
BRANCH  27  28
ATOM     28  C   UNL     1      -2.151  10.456  17.520  0.00  0.00    +0.000 A 
ATOM     29  C   UNL     1      -2.806  10.380  16.279  0.00  0.00    +0.000 A 
ATOM     30  C   UNL     1      -4.044  11.000  16.087  0.00  0.00    +0.000 A 
ATOM     31  C   UNL     1      -4.646  11.682  17.142  0.00  0.00    +0.000 A 
ATOM     32 CL   UNL     1      -6.140  12.497  16.893  0.00  0.00    +0.000 Cl
ATOM     33  C   UNL     1      -4.039  11.716  18.395  0.00  0.00    +0.000 A 
ATOM     34  C   UNL     1      -2.801  11.097  18.586  0.00  0.00    +0.000 A 
ENDBRANCH  27  28
ENDBRANCH  26  27
ENDBRANCH  19  26
ENDBRANCH   6  19
TORSDOF 10
ENDMDL
MODEL 6
REMARK VINA RESULT:      -7.6      3.652      9.281
REMARK  Name = 
REMARK  12 active torsions:
REMARK  status: ('A' for Active; 'I' for Inactive)
REMARK    1  A    between atoms: C_1  and  C_2
REMARK    2  A    between atoms: C_2  and  O_3
REMARK    3  A    between atoms: O_3  and  C_4
REMARK    4  A    between atoms: C_4  and  C_6
REMARK    5  A    between atoms: C_6  and  C_7
REMARK    6  A    between atoms: C_12  and  C_13
REMARK    7  A    between atoms: C_13  and  C_14
REMARK    8  A    between atoms: C_13  and  O_20
REMARK    9  A    between atoms: C_14  and  N_15
REMARK   10  A    between atoms: O_20  and  C_21
REMARK   11  A    between atoms: C_21  and  C_22
REMARK   12  A    between atoms: N_31  and  C_32
REMARK                            x       y       z     vdW  Elec       q    Type
REMARK                         _______ _______ _______ _____ _____    ______ ____
ROOT
ATOM      1  C   UNL     1      -0.898  11.570  20.142  0.00  0.00    +0.000 C 
ATOM      2  O   UNL     1      -0.041  11.302  19.055  0.00  0.00    +0.000 OA
ATOM      3  C   UNL     1       0.600  10.102  19.157  0.00  0.00    +0.000 A 
ATOM      4  C   UNL     1       1.126   9.639  17.958  0.00  0.00    +0.000 A 
ATOM      5  C   UNL     1       1.822   8.440  17.925  0.00  0.00    +0.000 A 
ATOM      6  C   UNL     1       2.115   7.750  19.108  0.00  0.00    +0.000 A 
ATOM      7  C   UNL     1       1.555   8.221  20.318  0.00  0.00    +0.000 A 
ATOM      8  C   UNL     1       0.754   9.374  20.350  0.00  0.00    +0.000 A 
ATOM      9  N   UNL     1       0.138   9.850  21.539  0.00  0.00    +0.000 N 
ATOM     10  C   UNL     1       0.107   9.088  22.773  0.00  0.00    +0.000 C 
ATOM     11  C   UNL     1      -0.499  11.091  21.541  0.00  0.00    +0.000 C 
ATOM     12  O   UNL     1      -0.855  11.671  22.571  0.00  0.00    +0.000 OA
ENDROOT
BRANCH   1  13
ATOM     13  C   UNL     1      -1.293  13.036  20.110  0.00  0.00    +0.000 C 
BRANCH  13  14
ATOM     14  C   UNL     1      -0.115  13.950  19.912  0.00  0.00    +0.000 C 
ATOM     15  O   UNL     1       0.853  14.059  20.649  0.00  0.00    +0.000 OA
BRANCH  14  16
ATOM     16  O   UNL     1      -0.345  14.699  18.793  0.00  0.00    +0.000 OA
BRANCH  16  18
ATOM     17  C   UNL     1      -1.050  16.962  19.097  0.00  0.00    +0.000 C 
ATOM     18  C   UNL     1       0.136  16.046  18.846  0.00  0.00    +0.000 C 
ENDBRANCH  16  18
ENDBRANCH  14  16
ENDBRANCH  13  14
ENDBRANCH   1  13
BRANCH   6  19
ATOM     19  C   UNL     1       3.043   6.542  19.114  0.00  0.00    +0.000 C 
BRANCH  19  20
ATOM     20  C   UNL     1       2.340   5.240  18.671  0.00  0.00    +0.000 C 
BRANCH  20  21
ATOM     21  N   UNL     1       2.098   4.303  19.751  0.00  0.00    +0.000 N 
ATOM     22  C   UNL     1       0.886   3.801  20.134  0.00  0.00    +0.000 A 
ATOM     23  C   UNL     1       1.175   2.916  21.146  0.00  0.00    +0.000 A 
ATOM     24  N   UNL     1       2.517   2.921  21.428  0.00  0.00    +0.000 NA
ATOM     25  C   UNL     1       3.045   3.777  20.582  0.00  0.00    +0.000 A 
ENDBRANCH  20  21
ENDBRANCH  19  20
BRANCH  19  26
ATOM     26  O   UNL     1       4.203   6.717  18.286  0.00  0.00    +0.000 OA
BRANCH  26  27
ATOM     27  C   UNL     1       5.143   5.641  18.333  0.00  0.00    +0.000 C 
BRANCH  27  28
ATOM     28  C   UNL     1       5.407   5.130  16.934  0.00  0.00    +0.000 A 
ATOM     29  C   UNL     1       5.702   3.782  16.670  0.00  0.00    +0.000 A 
ATOM     30  C   UNL     1       5.986   3.355  15.371  0.00  0.00    +0.000 A 
ATOM     31  C   UNL     1       5.955   4.269  14.321  0.00  0.00    +0.000 A 
ATOM     32 CL   UNL     1       6.362   3.760  12.730  0.00  0.00    +0.000 Cl
ATOM     33  C   UNL     1       5.605   5.597  14.555  0.00  0.00    +0.000 A 
ATOM     34  C   UNL     1       5.322   6.023  15.855  0.00  0.00    +0.000 A 
ENDBRANCH  27  28
ENDBRANCH  26  27
ENDBRANCH  19  26
ENDBRANCH   6  19
TORSDOF 10
ENDMDL
MODEL 7
REMARK VINA RESULT:      -7.6      3.825      9.043
REMARK  Name = 
REMARK  12 active torsions:
REMARK  status: ('A' for Active; 'I' for Inactive)
REMARK    1  A    between atoms: C_1  and  C_2
REMARK    2  A    between atoms: C_2  and  O_3
REMARK    3  A    between atoms: O_3  and  C_4
REMARK    4  A    between atoms: C_4  and  C_6
REMARK    5  A    between atoms: C_6  and  C_7
REMARK    6  A    between atoms: C_12  and  C_13
REMARK    7  A    between atoms: C_13  and  C_14
REMARK    8  A    between atoms: C_13  and  O_20
REMARK    9  A    between atoms: C_14  and  N_15
REMARK   10  A    between atoms: O_20  and  C_21
REMARK   11  A    between atoms: C_21  and  C_22
REMARK   12  A    between atoms: N_31  and  C_32
REMARK                            x       y       z     vdW  Elec       q    Type
REMARK                         _______ _______ _______ _____ _____    ______ ____
ROOT
ATOM      1  C   UNL     1      -0.101  12.617  19.764  0.00  0.00    +0.000 C 
ATOM      2  O   UNL     1       0.842  11.992  18.922  0.00  0.00    +0.000 OA
ATOM      3  C   UNL     1       1.059  10.682  19.233  0.00  0.00    +0.000 A 
ATOM      4  C   UNL     1       1.659   9.952  18.216  0.00  0.00    +0.000 A 
ATOM      5  C   UNL     1       1.955   8.611  18.409  0.00  0.00    +0.000 A 
ATOM      6  C   UNL     1       1.775   8.012  19.662  0.00  0.00    +0.000 A 
ATOM      7  C   UNL     1       1.143   8.761  20.682  0.00  0.00    +0.000 A 
ATOM      8  C   UNL     1       0.736  10.087  20.466  0.00  0.00    +0.000 A 
ATOM      9  N   UNL     1       0.058  10.854  21.452  0.00  0.00    +0.000 N 
ATOM     10  C   UNL     1      -0.455  10.283  22.683  0.00  0.00    +0.000 C 
ATOM     11  C   UNL     1      -0.164  12.215  21.240  0.00  0.00    +0.000 C 
ATOM     12  O   UNL     1      -0.535  12.989  22.127  0.00  0.00    +0.000 OA
ENDROOT
BRANCH   1  13
ATOM     13  C   UNL     1      -0.023  14.120  19.564  0.00  0.00    +0.000 C 
BRANCH  13  14
ATOM     14  C   UNL     1       1.385  14.643  19.635  0.00  0.00    +0.000 C 
ATOM     15  O   UNL     1       2.099  14.677  20.625  0.00  0.00    +0.000 OA
BRANCH  14  16
ATOM     16  O   UNL     1       1.712  15.145  18.408  0.00  0.00    +0.000 OA
BRANCH  16  18
ATOM     17  C   UNL     1       3.188  16.650  17.282  0.00  0.00    +0.000 C 
ATOM     18  C   UNL     1       3.096  15.461  18.222  0.00  0.00    +0.000 C 
ENDBRANCH  16  18
ENDBRANCH  14  16
ENDBRANCH  13  14
ENDBRANCH   1  13
BRANCH   6  19
ATOM     19  C   UNL     1       2.276   6.601  19.948  0.00  0.00    +0.000 C 
BRANCH  19  20
ATOM     20  C   UNL     1       1.177   5.673  20.509  0.00  0.00    +0.000 C 
BRANCH  20  21
ATOM     21  N   UNL     1       1.582   4.285  20.632  0.00  0.00    +0.000 N 
ATOM     22  C   UNL     1       2.325   3.743  21.642  0.00  0.00    +0.000 A 
ATOM     23  C   UNL     1       2.388   2.400  21.350  0.00  0.00    +0.000 A 
ATOM     24  N   UNL     1       1.763   2.132  20.160  0.00  0.00    +0.000 NA
ATOM     25  C   UNL     1       1.299   3.289  19.743  0.00  0.00    +0.000 A 
ENDBRANCH  20  21
ENDBRANCH  19  20
BRANCH  19  26
ATOM     26  O   UNL     1       2.845   5.961  18.795  0.00  0.00    +0.000 OA
BRANCH  26  27
ATOM     27  C   UNL     1       4.266   5.803  18.835  0.00  0.00    +0.000 C 
BRANCH  27  28
ATOM     28  C   UNL     1       4.772   5.378  17.476  0.00  0.00    +0.000 A 
ATOM     29  C   UNL     1       4.980   6.296  16.431  0.00  0.00    +0.000 A 
ATOM     30  C   UNL     1       5.404   5.861  15.173  0.00  0.00    +0.000 A 
ATOM     31  C   UNL     1       5.645   4.506  14.956  0.00  0.00    +0.000 A 
ATOM     32 CL   UNL     1       6.110   3.959  13.393  0.00  0.00    +0.000 Cl
ATOM     33  C   UNL     1       5.503   3.591  15.996  0.00  0.00    +0.000 A 
ATOM     34  C   UNL     1       5.077   4.027  17.253  0.00  0.00    +0.000 A 
ENDBRANCH  27  28
ENDBRANCH  26  27
ENDBRANCH  19  26
ENDBRANCH   6  19
TORSDOF 10
ENDMDL
MODEL 8
REMARK VINA RESULT:      -7.6      3.454      9.531
REMARK  Name = 
REMARK  12 active torsions:
REMARK  status: ('A' for Active; 'I' for Inactive)
REMARK    1  A    between atoms: C_1  and  C_2
REMARK    2  A    between atoms: C_2  and  O_3
REMARK    3  A    between atoms: O_3  and  C_4
REMARK    4  A    between atoms: C_4  and  C_6
REMARK    5  A    between atoms: C_6  and  C_7
REMARK    6  A    between atoms: C_12  and  C_13
REMARK    7  A    between atoms: C_13  and  C_14
REMARK    8  A    between atoms: C_13  and  O_20
REMARK    9  A    between atoms: C_14  and  N_15
REMARK   10  A    between atoms: O_20  and  C_21
REMARK   11  A    between atoms: C_21  and  C_22
REMARK   12  A    between atoms: N_31  and  C_32
REMARK                            x       y       z     vdW  Elec       q    Type
REMARK                         _______ _______ _______ _____ _____    ______ ____
ROOT
ATOM      1  C   UNL     1      -0.754  11.804  20.613  0.00  0.00    +0.000 C 
ATOM      2  O   UNL     1       0.053  11.585  19.478  0.00  0.00    +0.000 OA
ATOM      3  C   UNL     1       0.626  10.347  19.454  0.00  0.00    +0.000 A 
ATOM      4  C   UNL     1       1.089   9.964  18.203  0.00  0.00    +0.000 A 
ATOM      5  C   UNL     1       1.713   8.735  18.042  0.00  0.00    +0.000 A 
ATOM      6  C   UNL     1       1.999   7.928  19.151  0.00  0.00    +0.000 A 
ATOM      7  C   UNL     1       1.503   8.321  20.415  0.00  0.00    +0.000 A 
ATOM      8  C   UNL     1       0.772   9.509  20.574  0.00  0.00    +0.000 A 
ATOM      9  N   UNL     1       0.219   9.912  21.820  0.00  0.00    +0.000 N 
ATOM     10  C   UNL     1       0.180   9.047  22.984  0.00  0.00    +0.000 C 
ATOM     11  C   UNL     1      -0.344  11.181  21.951  0.00  0.00    +0.000 C 
ATOM     12  O   UNL     1      -0.635  11.687  23.038  0.00  0.00    +0.000 OA
ENDROOT
BRANCH   1  13
ATOM     13  C   UNL     1      -1.064  13.286  20.721  0.00  0.00    +0.000 C 
BRANCH  13  14
ATOM     14  C   UNL     1      -2.506  13.554  21.057  0.00  0.00    +0.000 C 
ATOM     15  O   UNL     1      -2.932  14.060  22.083  0.00  0.00    +0.000 OA
BRANCH  14  16
ATOM     16  O   UNL     1      -3.274  13.066  20.038  0.00  0.00    +0.000 OA
BRANCH  16  18
ATOM     17  C   UNL     1      -5.248  11.960  19.272  0.00  0.00    +0.000 C 
ATOM     18  C   UNL     1      -4.647  12.825  20.365  0.00  0.00    +0.000 C 
ENDBRANCH  16  18
ENDBRANCH  14  16
ENDBRANCH  13  14
ENDBRANCH   1  13
BRANCH   6  19
ATOM     19  C   UNL     1       2.855   6.674  19.020  0.00  0.00    +0.000 C 
BRANCH  19  20
ATOM     20  C   UNL     1       2.074   5.468  18.454  0.00  0.00    +0.000 C 
BRANCH  20  21
ATOM     21  N   UNL     1       1.915   4.374  19.394  0.00  0.00    +0.000 N 
ATOM     22  C   UNL     1       1.323   4.441  20.623  0.00  0.00    +0.000 A 
ATOM     23  C   UNL     1       1.356   3.150  21.099  0.00  0.00    +0.000 A 
ATOM     24  N   UNL     1       2.010   2.325  20.222  0.00  0.00    +0.000 NA
ATOM     25  C   UNL     1       2.348   3.093  19.210  0.00  0.00    +0.000 A 
ENDBRANCH  20  21
ENDBRANCH  19  20
BRANCH  19  26
ATOM     26  O   UNL     1       4.018   6.868  18.201  0.00  0.00    +0.000 OA
BRANCH  26  27
ATOM     27  C   UNL     1       5.001   5.833  18.299  0.00  0.00    +0.000 C 
BRANCH  27  28
ATOM     28  C   UNL     1       5.313   5.292  16.922  0.00  0.00    +0.000 A 
ATOM     29  C   UNL     1       5.447   6.128  15.800  0.00  0.00    +0.000 A 
ATOM     30  C   UNL     1       5.689   5.588  14.534  0.00  0.00    +0.000 A 
ATOM     31  C   UNL     1       5.823   4.210  14.385  0.00  0.00    +0.000 A 
ATOM     32 CL   UNL     1       6.062   3.537  12.820  0.00  0.00    +0.000 Cl
ATOM     33  C   UNL     1       5.755   3.372  15.495  0.00  0.00    +0.000 A 
ATOM     34  C   UNL     1       5.510   3.913  16.760  0.00  0.00    +0.000 A 
ENDBRANCH  27  28
ENDBRANCH  26  27
ENDBRANCH  19  26
ENDBRANCH   6  19
TORSDOF 10
ENDMDL
MODEL 9
REMARK VINA RESULT:      -7.6      3.636      9.774
REMARK  Name = 
REMARK  12 active torsions:
REMARK  status: ('A' for Active; 'I' for Inactive)
REMARK    1  A    between atoms: C_1  and  C_2
REMARK    2  A    between atoms: C_2  and  O_3
REMARK    3  A    between atoms: O_3  and  C_4
REMARK    4  A    between atoms: C_4  and  C_6
REMARK    5  A    between atoms: C_6  and  C_7
REMARK    6  A    between atoms: C_12  and  C_13
REMARK    7  A    between atoms: C_13  and  C_14
REMARK    8  A    between atoms: C_13  and  O_20
REMARK    9  A    between atoms: C_14  and  N_15
REMARK   10  A    between atoms: O_20  and  C_21
REMARK   11  A    between atoms: C_21  and  C_22
REMARK   12  A    between atoms: N_31  and  C_32
REMARK                            x       y       z     vdW  Elec       q    Type
REMARK                         _______ _______ _______ _____ _____    ______ ____
ROOT
ATOM      1  C   UNL     1      -0.468  11.465  20.096  0.00  0.00    +0.000 C 
ATOM      2  O   UNL     1       0.357  11.065  19.026  0.00  0.00    +0.000 OA
ATOM      3  C   UNL     1       0.932   9.843  19.214  0.00  0.00    +0.000 A 
ATOM      4  C   UNL     1       1.415   9.260  18.051  0.00  0.00    +0.000 A 
ATOM      5  C   UNL     1       2.043   8.024  18.104  0.00  0.00    +0.000 A 
ATOM      6  C   UNL     1       2.312   7.412  19.335  0.00  0.00    +0.000 A 
ATOM      7  C   UNL     1       1.795   8.006  20.510  0.00  0.00    +0.000 A 
ATOM      8  C   UNL     1       1.061   9.200  20.459  0.00  0.00    +0.000 A 
ATOM      9  N   UNL     1       0.488   9.801  21.614  0.00  0.00    +0.000 N 
ATOM     10  C   UNL     1       0.430   9.139  22.903  0.00  0.00    +0.000 C 
ATOM     11  C   UNL     1      -0.079  11.072  21.525  0.00  0.00    +0.000 C 
ATOM     12  O   UNL     1      -0.388  11.749  22.509  0.00  0.00    +0.000 OA
ENDROOT
BRANCH   1  13
ATOM     13  C   UNL     1      -0.782  12.944  19.954  0.00  0.00    +0.000 C 
BRANCH  13  14
ATOM     14  C   UNL     1      -2.246  13.245  20.122  0.00  0.00    +0.000 C 
ATOM     15  O   UNL     1      -3.178  12.538  19.773  0.00  0.00    +0.000 OA
BRANCH  14  16
ATOM     16  O   UNL     1      -2.360  14.490  20.672  0.00  0.00    +0.000 OA
BRANCH  16  18
ATOM     17  C   UNL     1      -1.490  16.360  21.878  0.00  0.00    +0.000 C 
ATOM     18  C   UNL     1      -1.158  15.025  21.235  0.00  0.00    +0.000 C 
ENDBRANCH  16  18
ENDBRANCH  14  16
ENDBRANCH  13  14
ENDBRANCH   1  13
BRANCH   6  19
ATOM     19  C   UNL     1       3.171   6.157  19.426  0.00  0.00    +0.000 C 
BRANCH  19  20
ATOM     20  C   UNL     1       2.409   4.945  20.005  0.00  0.00    +0.000 C 
BRANCH  20  21
ATOM     21  N   UNL     1       2.574   3.723  19.240  0.00  0.00    +0.000 N 
ATOM     22  C   UNL     1       1.786   3.299  18.208  0.00  0.00    +0.000 A 
ATOM     23  C   UNL     1       2.376   2.136  17.770  0.00  0.00    +0.000 A 
ATOM     24  N   UNL     1       3.454   1.813  18.553  0.00  0.00    +0.000 NA
ATOM     25  C   UNL     1       3.541   2.780  19.439  0.00  0.00    +0.000 A 
ENDBRANCH  20  21
ENDBRANCH  19  20
BRANCH  19  26
ATOM     26  O   UNL     1       3.729   5.762  18.163  0.00  0.00    +0.000 OA
BRANCH  26  27
ATOM     27  C   UNL     1       5.158   5.739  18.118  0.00  0.00    +0.000 C 
BRANCH  27  28
ATOM     28  C   UNL     1       5.620   5.240  16.768  0.00  0.00    +0.000 A 
ATOM     29  C   UNL     1       6.898   5.526  16.258  0.00  0.00    +0.000 A 
ATOM     30  C   UNL     1       7.274   5.089  14.986  0.00  0.00    +0.000 A 
ATOM     31  C   UNL     1       6.382   4.341  14.222  0.00  0.00    +0.000 A 
ATOM     32 CL   UNL     1       6.817   3.851  12.632  0.00  0.00    +0.000 Cl
ATOM     33  C   UNL     1       5.133   3.996  14.734  0.00  0.00    +0.000 A 
ATOM     34  C   UNL     1       4.758   4.436  16.006  0.00  0.00    +0.000 A 
ENDBRANCH  27  28
ENDBRANCH  26  27
ENDBRANCH  19  26
ENDBRANCH   6  19
TORSDOF 10
ENDMDL
