MODEL 1
REMARK VINA RESULT:      -8.0      0.000      0.000
REMARK  Name = 
REMARK  6 active torsions:
REMARK  status: ('A' for Active; 'I' for Inactive)
REMARK    1  A    between atoms: C_2  and  C_3
REMARK    2  A    between atoms: C_3  and  S_4
REMARK    3  A    between atoms: S_4  and  C_6
REMARK    4  A    between atoms: C_6  and  C_7
REMARK    5  A    between atoms: N_9  and  C_10
REMARK    6  A    between atoms: N_20  and  C_21
REMARK                            x       y       z     vdW  Elec       q    Type
REMARK                         _______ _______ _______ _____ _____    ______ ____
ROOT
ATOM      1  C   UNL     1       3.204   2.678  18.935  0.00  0.00    +0.000 C 
ENDROOT
BRANCH   1   2
ATOM      2  C   UNL     1       3.848   3.243  17.699  0.00  0.00    +0.000 C 
ATOM      3  O   UNL     1       3.141   3.394  16.716  0.00  0.00    +0.000 OA
ATOM      4  N   UNL     1       5.194   3.517  17.664  0.00  0.00    +0.000 N 
ATOM      5  H   UNL     1       5.743   3.285  18.509  0.00  0.00    +0.000 HD
BRANCH   4   6
ATOM      6  C   UNL     1       5.923   4.013  16.526  0.00  0.00    +0.000 A 
ATOM      7  C   UNL     1       6.850   5.077  16.610  0.00  0.00    +0.000 A 
ATOM      8  N   UNL     1       7.471   5.544  15.501  0.00  0.00    +0.000 NA
ATOM      9  C   UNL     1       7.245   5.023  14.270  0.00  0.00    +0.000 A 
ATOM     10  C   UNL     1       7.884   5.579  13.158  0.00  0.00    +0.000 A 
ATOM     11  C   UNL     1       7.646   5.053  11.886  0.00  0.00    +0.000 A 
ATOM     12  C   UNL     1       6.773   3.977  11.725  0.00  0.00    +0.000 A 
ATOM     13  C   UNL     1       6.130   3.413  12.836  0.00  0.00    +0.000 A 
ATOM     14  C   UNL     1       6.356   3.939  14.120  0.00  0.00    +0.000 A 
ATOM     15  C   UNL     1       5.707   3.433  15.261  0.00  0.00    +0.000 A 
ENDBRANCH   4   6
ENDBRANCH   1   2
BRANCH   1  16
ATOM     16  S   UNL     1       4.003   3.402  20.399  0.00  0.00    +0.000 S 
ATOM     17  O   UNL     1       4.156   1.871  21.171  0.00  0.00    +0.000 OA
BRANCH  16  18
ATOM     18  C   UNL     1       2.478   3.842  21.340  0.00  0.00    +0.000 C 
BRANCH  18  20
ATOM     19  O   UNL     1       0.657   5.032  20.456  0.00  0.00    +0.000 OA
ATOM     20  C   UNL     1       1.844   5.073  20.729  0.00  0.00    +0.000 C 
ATOM     21  N   UNL     1       2.580   6.202  20.480  0.00  0.00    +0.000 N 
ATOM     22  H   UNL     1       3.597   6.155  20.648  0.00  0.00    +0.000 HD
BRANCH  21  23
ATOM     23  C   UNL     1       2.036   7.453  20.007  0.00  0.00    +0.000 A 
ATOM     24  C   UNL     1       2.184   7.907  18.673  0.00  0.00    +0.000 A 
ATOM     25  C   UNL     1       1.634   9.118  18.258  0.00  0.00    +0.000 A 
ATOM     26  C   UNL     1       0.923   9.908  19.154  0.00  0.00    +0.000 A 
ATOM     27 CL   UNL     1       0.243  11.431  18.612  0.00  0.00    +0.000 Cl
ATOM     28  C   UNL     1       0.749   9.478  20.472  0.00  0.00    +0.000 A 
ATOM     29  C   UNL     1       1.294   8.258  20.896  0.00  0.00    +0.000 A 
ENDBRANCH  21  23
ENDBRANCH  18  20
ENDBRANCH  16  18
ENDBRANCH   1  16
TORSDOF 6
ENDMDL
MODEL 2
REMARK VINA RESULT:      -7.8      3.692      7.739
REMARK  Name = 
REMARK  6 active torsions:
REMARK  status: ('A' for Active; 'I' for Inactive)
REMARK    1  A    between atoms: C_2  and  C_3
REMARK    2  A    between atoms: C_3  and  S_4
REMARK    3  A    between atoms: S_4  and  C_6
REMARK    4  A    between atoms: C_6  and  C_7
REMARK    5  A    between atoms: N_9  and  C_10
REMARK    6  A    between atoms: N_20  and  C_21
REMARK                            x       y       z     vdW  Elec       q    Type
REMARK                         _______ _______ _______ _____ _____    ______ ____
ROOT
ATOM      1  C   UNL     1       5.302   5.917  16.482  0.00  0.00    +0.000 C 
ENDROOT
BRANCH   1   2
ATOM      2  C   UNL     1       4.549   6.990  17.221  0.00  0.00    +0.000 C 
ATOM      3  O   UNL     1       5.187   7.953  17.613  0.00  0.00    +0.000 OA
ATOM      4  N   UNL     1       3.210   6.854  17.496  0.00  0.00    +0.000 N 
ATOM      5  H   UNL     1       2.758   5.972  17.205  0.00  0.00    +0.000 HD
BRANCH   4   6
ATOM      6  C   UNL     1       2.404   7.791  18.235  0.00  0.00    +0.000 A 
ATOM      7  C   UNL     1       1.863   8.963  17.657  0.00  0.00    +0.000 A 
ATOM      8  N   UNL     1       1.155   9.841  18.406  0.00  0.00    +0.000 NA
ATOM      9  C   UNL     1       0.926   9.647  19.728  0.00  0.00    +0.000 A 
ATOM     10  C   UNL     1       0.226  10.613  20.456  0.00  0.00    +0.000 A 
ATOM     11  C   UNL     1      -0.002  10.424  21.821  0.00  0.00    +0.000 A 
ATOM     12  C   UNL     1       0.467   9.273  22.456  0.00  0.00    +0.000 A 
ATOM     13  C   UNL     1       1.168   8.298  21.732  0.00  0.00    +0.000 A 
ATOM     14  C   UNL     1       1.411   8.483  20.360  0.00  0.00    +0.000 A 
ATOM     15  C   UNL     1       2.141   7.553  19.598  0.00  0.00    +0.000 A 
ENDBRANCH   4   6
ENDBRANCH   1   2
BRANCH   1  16
ATOM     16  S   UNL     1       7.085   6.227  16.649  0.00  0.00    +0.000 S 
ATOM     17  O   UNL     1       7.437   5.489  15.135  0.00  0.00    +0.000 OA
BRANCH  16  18
ATOM     18  C   UNL     1       7.526   4.715  17.609  0.00  0.00    +0.000 C 
BRANCH  18  20
ATOM     19  O   UNL     1       6.526   5.121  19.694  0.00  0.00    +0.000 OA
ATOM     20  C   UNL     1       6.476   4.464  18.669  0.00  0.00    +0.000 C 
ATOM     21  N   UNL     1       5.497   3.522  18.490  0.00  0.00    +0.000 N 
ATOM     22  H   UNL     1       5.550   2.934  17.644  0.00  0.00    +0.000 HD
BRANCH  21  23
ATOM     23  C   UNL     1       4.393   3.297  19.394  0.00  0.00    +0.000 A 
ATOM     24  C   UNL     1       3.184   4.033  19.338  0.00  0.00    +0.000 A 
ATOM     25  C   UNL     1       2.141   3.775  20.225  0.00  0.00    +0.000 A 
ATOM     26  C   UNL     1       2.271   2.780  21.188  0.00  0.00    +0.000 A 
ATOM     27 CL   UNL     1       0.948   2.475  22.298  0.00  0.00    +0.000 Cl
ATOM     28  C   UNL     1       3.447   2.029  21.256  0.00  0.00    +0.000 A 
ATOM     29  C   UNL     1       4.498   2.279  20.364  0.00  0.00    +0.000 A 
ENDBRANCH  21  23
ENDBRANCH  18  20
ENDBRANCH  16  18
ENDBRANCH   1  16
TORSDOF 6
ENDMDL
MODEL 3
REMARK VINA RESULT:      -7.8      1.206      1.295
REMARK  Name = 
REMARK  6 active torsions:
REMARK  status: ('A' for Active; 'I' for Inactive)
REMARK    1  A    between atoms: C_2  and  C_3
REMARK    2  A    between atoms: C_3  and  S_4
REMARK    3  A    between atoms: S_4  and  C_6
REMARK    4  A    between atoms: C_6  and  C_7
REMARK    5  A    between atoms: N_9  and  C_10
REMARK    6  A    between atoms: N_20  and  C_21
REMARK                            x       y       z     vdW  Elec       q    Type
REMARK                         _______ _______ _______ _____ _____    ______ ____
ROOT
ATOM      1  C   UNL     1       4.304   4.526  20.070  0.00  0.00    +0.000 C 
ENDROOT
BRANCH   1   2
ATOM      2  C   UNL     1       5.218   4.448  18.877  0.00  0.00    +0.000 C 
ATOM      3  O   UNL     1       6.361   4.067  19.069  0.00  0.00    +0.000 OA
ATOM      4  N   UNL     1       4.795   4.852  17.634  0.00  0.00    +0.000 N 
ATOM      5  H   UNL     1       3.840   5.240  17.565  0.00  0.00    +0.000 HD
BRANCH   4   6
ATOM      6  C   UNL     1       5.595   4.866  16.437  0.00  0.00    +0.000 A 
ATOM      7  C   UNL     1       6.765   5.647  16.303  0.00  0.00    +0.000 A 
ATOM      8  N   UNL     1       7.455   5.668  15.138  0.00  0.00    +0.000 NA
ATOM      9  C   UNL     1       7.070   4.950  14.054  0.00  0.00    +0.000 A 
ATOM     10  C   UNL     1       7.800   5.049  12.867  0.00  0.00    +0.000 A 
ATOM     11  C   UNL     1       7.401   4.319  11.744  0.00  0.00    +0.000 A 
ATOM     12  C   UNL     1       6.278   3.495  11.808  0.00  0.00    +0.000 A 
ATOM     13  C   UNL     1       5.542   3.388  12.997  0.00  0.00    +0.000 A 
ATOM     14  C   UNL     1       5.930   4.124  14.130  0.00  0.00    +0.000 A 
ATOM     15  C   UNL     1       5.204   4.081  15.334  0.00  0.00    +0.000 A 
ENDBRANCH   4   6
ENDBRANCH   1   2
BRANCH   1  16
ATOM     16  S   UNL     1       3.602   2.878  20.381  0.00  0.00    +0.000 S 
ATOM     17  O   UNL     1       2.835   2.826  18.841  0.00  0.00    +0.000 OA
BRANCH  16  18
ATOM     18  C   UNL     1       2.062   3.408  21.248  0.00  0.00    +0.000 C 
BRANCH  18  20
ATOM     19  O   UNL     1       0.566   4.687  19.968  0.00  0.00    +0.000 OA
ATOM     20  C   UNL     1       1.571   4.711  20.656  0.00  0.00    +0.000 C 
ATOM     21  N   UNL     1       2.237   5.888  20.878  0.00  0.00    +0.000 N 
ATOM     22  H   UNL     1       3.130   5.841  21.394  0.00  0.00    +0.000 HD
BRANCH  21  23
ATOM     23  C   UNL     1       1.780   7.189  20.449  0.00  0.00    +0.000 A 
ATOM     24  C   UNL     1       2.073   7.731  19.172  0.00  0.00    +0.000 A 
ATOM     25  C   UNL     1       1.603   8.987  18.797  0.00  0.00    +0.000 A 
ATOM     26  C   UNL     1       0.829   9.736  19.676  0.00  0.00    +0.000 A 
ATOM     27 CL   UNL     1       0.251  11.318  19.186  0.00  0.00    +0.000 Cl
ATOM     28  C   UNL     1       0.513   9.220  20.936  0.00  0.00    +0.000 A 
ATOM     29  C   UNL     1       0.977   7.955  21.319  0.00  0.00    +0.000 A 
ENDBRANCH  21  23
ENDBRANCH  18  20
ENDBRANCH  16  18
ENDBRANCH   1  16
TORSDOF 6
ENDMDL
MODEL 4
REMARK VINA RESULT:      -7.7      5.051      7.628
REMARK  Name = 
REMARK  6 active torsions:
REMARK  status: ('A' for Active; 'I' for Inactive)
REMARK    1  A    between atoms: C_2  and  C_3
REMARK    2  A    between atoms: C_3  and  S_4
REMARK    3  A    between atoms: S_4  and  C_6
REMARK    4  A    between atoms: C_6  and  C_7
REMARK    5  A    between atoms: N_9  and  C_10
REMARK    6  A    between atoms: N_20  and  C_21
REMARK                            x       y       z     vdW  Elec       q    Type
REMARK                         _______ _______ _______ _____ _____    ______ ____
ROOT
ATOM      1  C   UNL     1       1.055  10.541  21.455  0.00  0.00    +0.000 C 
ENDROOT
BRANCH   1   2
ATOM      2  C   UNL     1       1.227   9.374  20.521  0.00  0.00    +0.000 C 
ATOM      3  O   UNL     1       0.765   9.482  19.397  0.00  0.00    +0.000 OA
ATOM      4  N   UNL     1       1.825   8.212  20.943  0.00  0.00    +0.000 N 
ATOM      5  H   UNL     1       2.117   8.166  21.933  0.00  0.00    +0.000 HD
BRANCH   4   6
ATOM      6  C   UNL     1       2.000   7.021  20.153  0.00  0.00    +0.000 A 
ATOM      7  C   UNL     1       2.606   7.027  18.876  0.00  0.00    +0.000 A 
ATOM      8  N   UNL     1       2.700   5.889  18.148  0.00  0.00    +0.000 NA
ATOM      9  C   UNL     1       2.229   4.700  18.597  0.00  0.00    +0.000 A 
ATOM     10  C   UNL     1       2.316   3.570  17.779  0.00  0.00    +0.000 A 
ATOM     11  C   UNL     1       1.822   2.345  18.233  0.00  0.00    +0.000 A 
ATOM     12  C   UNL     1       1.243   2.249  19.499  0.00  0.00    +0.000 A 
ATOM     13  C   UNL     1       1.155   3.377  20.326  0.00  0.00    +0.000 A 
ATOM     14  C   UNL     1       1.641   4.617  19.877  0.00  0.00    +0.000 A 
ATOM     15  C   UNL     1       1.543   5.786  20.653  0.00  0.00    +0.000 A 
ENDBRANCH   4   6
ENDBRANCH   1   2
BRANCH   1  16
ATOM     16  S   UNL     1       0.923  12.065  20.474  0.00  0.00    +0.000 S 
ATOM     17  O   UNL     1       1.107  13.068  21.861  0.00  0.00    +0.000 OA
BRANCH  16  18
ATOM     18  C   UNL     1      -0.915  12.221  20.474  0.00  0.00    +0.000 C 
BRANCH  18  20
ATOM     19  O   UNL     1      -0.988  12.818  18.205  0.00  0.00    +0.000 OA
ATOM     20  C   UNL     1      -1.434  12.074  19.060  0.00  0.00    +0.000 C 
ATOM     21  N   UNL     1      -2.384  11.138  18.746  0.00  0.00    +0.000 N 
ATOM     22  H   UNL     1      -2.791  10.593  19.521  0.00  0.00    +0.000 HD
BRANCH  21  23
ATOM     23  C   UNL     1      -2.851  10.853  17.409  0.00  0.00    +0.000 A 
ATOM     24  C   UNL     1      -4.003  11.457  16.847  0.00  0.00    +0.000 A 
ATOM     25  C   UNL     1      -4.412  11.159  15.549  0.00  0.00    +0.000 A 
ATOM     26  C   UNL     1      -3.689  10.257  14.776  0.00  0.00    +0.000 A 
ATOM     27 CL   UNL     1      -4.224   9.893  13.147  0.00  0.00    +0.000 Cl
ATOM     28  C   UNL     1      -2.541   9.658  15.301  0.00  0.00    +0.000 A 
ATOM     29  C   UNL     1      -2.120   9.956  16.604  0.00  0.00    +0.000 A 
ENDBRANCH  21  23
ENDBRANCH  18  20
ENDBRANCH  16  18
ENDBRANCH   1  16
TORSDOF 6
ENDMDL
MODEL 5
REMARK VINA RESULT:      -7.7      2.591      7.732
REMARK  Name = 
REMARK  6 active torsions:
REMARK  status: ('A' for Active; 'I' for Inactive)
REMARK    1  A    between atoms: C_2  and  C_3
REMARK    2  A    between atoms: C_3  and  S_4
REMARK    3  A    between atoms: S_4  and  C_6
REMARK    4  A    between atoms: C_6  and  C_7
REMARK    5  A    between atoms: N_9  and  C_10
REMARK    6  A    between atoms: N_20  and  C_21
REMARK                            x       y       z     vdW  Elec       q    Type
REMARK                         _______ _______ _______ _____ _____    ______ ____
ROOT
ATOM      1  C   UNL     1       2.929   3.054  21.188  0.00  0.00    +0.000 C 
ENDROOT
BRANCH   1   2
ATOM      2  C   UNL     1       2.206   4.299  20.749  0.00  0.00    +0.000 C 
ATOM      3  O   UNL     1       1.008   4.207  20.539  0.00  0.00    +0.000 OA
ATOM      4  N   UNL     1       2.886   5.473  20.534  0.00  0.00    +0.000 N 
ATOM      5  H   UNL     1       3.912   5.451  20.653  0.00  0.00    +0.000 HD
BRANCH   4   6
ATOM      6  C   UNL     1       2.307   6.707  20.070  0.00  0.00    +0.000 A 
ATOM      7  C   UNL     1       2.519   7.214  18.767  0.00  0.00    +0.000 A 
ATOM      8  N   UNL     1       1.996   8.406  18.394  0.00  0.00    +0.000 NA
ATOM      9  C   UNL     1       1.250   9.165  19.234  0.00  0.00    +0.000 A 
ATOM     10  C   UNL     1       0.776  10.407  18.803  0.00  0.00    +0.000 A 
ATOM     11  C   UNL     1       0.015  11.198  19.668  0.00  0.00    +0.000 A 
ATOM     12  C   UNL     1      -0.270  10.749  20.958  0.00  0.00    +0.000 A 
ATOM     13  C   UNL     1       0.200   9.503  21.396  0.00  0.00    +0.000 A 
ATOM     14  C   UNL     1       0.973   8.703  20.537  0.00  0.00    +0.000 A 
ATOM     15  C   UNL     1       1.499   7.463  20.941  0.00  0.00    +0.000 A 
ENDBRANCH   4   6
ENDBRANCH   1   2
BRANCH   1  16
ATOM     16  S   UNL     1       3.771   2.326  19.751  0.00  0.00    +0.000 S 
ATOM     17  O   UNL     1       4.926   3.601  19.681  0.00  0.00    +0.000 OA
BRANCH  16  18
ATOM     18  C   UNL     1       2.719   3.064  18.427  0.00  0.00    +0.000 C 
BRANCH  18  20
ATOM     19  O   UNL     1       3.425   4.994  17.293  0.00  0.00    +0.000 OA
ATOM     20  C   UNL     1       3.595   3.795  17.434  0.00  0.00    +0.000 C 
ATOM     21  N   UNL     1       4.550   3.135  16.707  0.00  0.00    +0.000 N 
ATOM     22  H   UNL     1       4.594   2.108  16.800  0.00  0.00    +0.000 HD
BRANCH  21  23
ATOM     23  C   UNL     1       5.501   3.769  15.825  0.00  0.00    +0.000 A 
ATOM     24  C   UNL     1       6.639   4.474  16.291  0.00  0.00    +0.000 A 
ATOM     25  C   UNL     1       7.536   5.062  15.403  0.00  0.00    +0.000 A 
ATOM     26  C   UNL     1       7.329   4.966  14.032  0.00  0.00    +0.000 A 
ATOM     27 CL   UNL     1       8.468   5.718  12.931  0.00  0.00    +0.000 Cl
ATOM     28  C   UNL     1       6.224   4.264  13.544  0.00  0.00    +0.000 A 
ATOM     29  C   UNL     1       5.319   3.664  14.430  0.00  0.00    +0.000 A 
ENDBRANCH  21  23
ENDBRANCH  18  20
ENDBRANCH  16  18
ENDBRANCH   1  16
TORSDOF 6
ENDMDL
MODEL 6
REMARK VINA RESULT:      -7.6      1.802      2.364
REMARK  Name = 
REMARK  6 active torsions:
REMARK  status: ('A' for Active; 'I' for Inactive)
REMARK    1  A    between atoms: C_2  and  C_3
REMARK    2  A    between atoms: C_3  and  S_4
REMARK    3  A    between atoms: S_4  and  C_6
REMARK    4  A    between atoms: C_6  and  C_7
REMARK    5  A    between atoms: N_9  and  C_10
REMARK    6  A    between atoms: N_20  and  C_21
REMARK                            x       y       z     vdW  Elec       q    Type
REMARK                         _______ _______ _______ _____ _____    ______ ____
ROOT
ATOM      1  C   UNL     1       3.204   3.492  19.595  0.00  0.00    +0.000 C 
ENDROOT
BRANCH   1   2
ATOM      2  C   UNL     1       3.972   3.491  18.300  0.00  0.00    +0.000 C 
ATOM      3  O   UNL     1       3.919   2.481  17.618  0.00  0.00    +0.000 OA
ATOM      4  N   UNL     1       4.751   4.563  17.938  0.00  0.00    +0.000 N 
ATOM      5  H   UNL     1       4.811   5.348  18.608  0.00  0.00    +0.000 HD
BRANCH   4   6
ATOM      6  C   UNL     1       5.562   4.651  16.752  0.00  0.00    +0.000 A 
ATOM      7  C   UNL     1       6.768   5.386  16.697  0.00  0.00    +0.000 A 
ATOM      8  N   UNL     1       7.469   5.482  15.543  0.00  0.00    +0.000 NA
ATOM      9  C   UNL     1       7.062   4.886  14.395  0.00  0.00    +0.000 A 
ATOM     10  C   UNL     1       7.806   5.061  13.226  0.00  0.00    +0.000 A 
ATOM     11  C   UNL     1       7.385   4.458  12.038  0.00  0.00    +0.000 A 
ATOM     12  C   UNL     1       6.225   3.683  12.020  0.00  0.00    +0.000 A 
ATOM     13  C   UNL     1       5.474   3.501  13.189  0.00  0.00    +0.000 A 
ATOM     14  C   UNL     1       5.884   4.111  14.389  0.00  0.00    +0.000 A 
ATOM     15  C   UNL     1       5.146   3.990  15.580  0.00  0.00    +0.000 A 
ENDBRANCH   4   6
ENDBRANCH   1   2
BRANCH   1  16
ATOM     16  S   UNL     1       1.924   4.780  19.517  0.00  0.00    +0.000 S 
ATOM     17  O   UNL     1       1.914   4.779  17.796  0.00  0.00    +0.000 OA
BRANCH  16  18
ATOM     18  C   UNL     1       3.028   6.255  19.616  0.00  0.00    +0.000 C 
BRANCH  18  20
ATOM     19  O   UNL     1       2.021   8.258  18.919  0.00  0.00    +0.000 OA
ATOM     20  C   UNL     1       2.195   7.495  19.853  0.00  0.00    +0.000 C 
ATOM     21  N   UNL     1       1.653   7.763  21.083  0.00  0.00    +0.000 N 
ATOM     22  H   UNL     1       1.902   7.132  21.861  0.00  0.00    +0.000 HD
BRANCH  21  23
ATOM     23  C   UNL     1       0.756   8.858  21.369  0.00  0.00    +0.000 A 
ATOM     24  C   UNL     1       0.165   9.659  20.361  0.00  0.00    +0.000 A 
ATOM     25  C   UNL     1      -0.703  10.700  20.683  0.00  0.00    +0.000 A 
ATOM     26  C   UNL     1      -1.008  10.971  22.012  0.00  0.00    +0.000 A 
ATOM     27 CL   UNL     1      -2.099  12.289  22.397  0.00  0.00    +0.000 Cl
ATOM     28  C   UNL     1      -0.451  10.188  23.026  0.00  0.00    +0.000 A 
ATOM     29  C   UNL     1       0.419   9.135  22.710  0.00  0.00    +0.000 A 
ENDBRANCH  21  23
ENDBRANCH  18  20
ENDBRANCH  16  18
ENDBRANCH   1  16
TORSDOF 6
ENDMDL
MODEL 7
REMARK VINA RESULT:      -7.6      6.551      8.311
REMARK  Name = 
REMARK  6 active torsions:
REMARK  status: ('A' for Active; 'I' for Inactive)
REMARK    1  A    between atoms: C_2  and  C_3
REMARK    2  A    between atoms: C_3  and  S_4
REMARK    3  A    between atoms: S_4  and  C_6
REMARK    4  A    between atoms: C_6  and  C_7
REMARK    5  A    between atoms: N_9  and  C_10
REMARK    6  A    between atoms: N_20  and  C_21
REMARK                            x       y       z     vdW  Elec       q    Type
REMARK                         _______ _______ _______ _____ _____    ______ ____
ROOT
ATOM      1  C   UNL     1       8.102   7.438  18.402  0.00  0.00    +0.000 C 
ENDROOT
BRANCH   1   2
ATOM      2  C   UNL     1       8.343   8.923  18.383  0.00  0.00    +0.000 C 
ATOM      3  O   UNL     1       7.687   9.588  17.597  0.00  0.00    +0.000 OA
ATOM      4  N   UNL     1       9.310   9.494  19.174  0.00  0.00    +0.000 N 
ATOM      5  H   UNL     1       9.881   8.856  19.752  0.00  0.00    +0.000 HD
BRANCH   4   6
ATOM      6  C   UNL     1       9.657  10.891  19.202  0.00  0.00    +0.000 A 
ATOM      7  C   UNL     1       9.378  11.731  20.304  0.00  0.00    +0.000 A 
ATOM      8  N   UNL     1       9.677  13.051  20.262  0.00  0.00    +0.000 NA
ATOM      9  C   UNL     1      10.254  13.630  19.181  0.00  0.00    +0.000 A 
ATOM     10  C   UNL     1      10.496  15.006  19.182  0.00  0.00    +0.000 A 
ATOM     11  C   UNL     1      11.081  15.609  18.066  0.00  0.00    +0.000 A 
ATOM     12  C   UNL     1      11.422  14.840  16.953  0.00  0.00    +0.000 A 
ATOM     13  C   UNL     1      11.184  13.459  16.945  0.00  0.00    +0.000 A 
ATOM     14  C   UNL     1      10.589  12.842  18.060  0.00  0.00    +0.000 A 
ATOM     15  C   UNL     1      10.296  11.467  18.087  0.00  0.00    +0.000 A 
ENDBRANCH   4   6
ENDBRANCH   1   2
BRANCH   1  16
ATOM     16  S   UNL     1       7.349   6.944  16.823  0.00  0.00    +0.000 S 
ATOM     17  O   UNL     1       5.767   6.902  17.500  0.00  0.00    +0.000 OA
BRANCH  16  18
ATOM     18  C   UNL     1       7.579   5.120  16.981  0.00  0.00    +0.000 C 
BRANCH  18  20
ATOM     19  O   UNL     1       6.404   4.286  18.834  0.00  0.00    +0.000 OA
ATOM     20  C   UNL     1       6.360   4.511  17.637  0.00  0.00    +0.000 C 
ATOM     21  N   UNL     1       5.237   4.212  16.911  0.00  0.00    +0.000 N 
ATOM     22  H   UNL     1       5.282   4.341  15.888  0.00  0.00    +0.000 HD
BRANCH  21  23
ATOM     23  C   UNL     1       3.994   3.737  17.472  0.00  0.00    +0.000 A 
ATOM     24  C   UNL     1       3.762   2.379  17.803  0.00  0.00    +0.000 A 
ATOM     25  C   UNL     1       2.550   1.967  18.351  0.00  0.00    +0.000 A 
ATOM     26  C   UNL     1       1.538   2.891  18.586  0.00  0.00    +0.000 A 
ATOM     27 CL   UNL     1       0.017   2.350  19.272  0.00  0.00    +0.000 Cl
ATOM     28  C   UNL     1       1.744   4.239  18.283  0.00  0.00    +0.000 A 
ATOM     29  C   UNL     1       2.963   4.662  17.737  0.00  0.00    +0.000 A 
ENDBRANCH  21  23
ENDBRANCH  18  20
ENDBRANCH  16  18
ENDBRANCH   1  16
TORSDOF 6
ENDMDL
MODEL 8
REMARK VINA RESULT:      -7.5      1.352      1.579
REMARK  Name = 
REMARK  6 active torsions:
REMARK  status: ('A' for Active; 'I' for Inactive)
REMARK    1  A    between atoms: C_2  and  C_3
REMARK    2  A    between atoms: C_3  and  S_4
REMARK    3  A    between atoms: S_4  and  C_6
REMARK    4  A    between atoms: C_6  and  C_7
REMARK    5  A    between atoms: N_9  and  C_10
REMARK    6  A    between atoms: N_20  and  C_21
REMARK                            x       y       z     vdW  Elec       q    Type
REMARK                         _______ _______ _______ _____ _____    ______ ____
ROOT
ATOM      1  C   UNL     1       2.801   2.760  18.928  0.00  0.00    +0.000 C 
ENDROOT
BRANCH   1   2
ATOM      2  C   UNL     1       3.529   3.400  17.777  0.00  0.00    +0.000 C 
ATOM      3  O   UNL     1       2.852   3.905  16.897  0.00  0.00    +0.000 OA
ATOM      4  N   UNL     1       4.899   3.357  17.695  0.00  0.00    +0.000 N 
ATOM      5  H   UNL     1       5.399   2.839  18.436  0.00  0.00    +0.000 HD
BRANCH   4   6
ATOM      6  C   UNL     1       5.694   3.891  16.620  0.00  0.00    +0.000 A 
ATOM      7  C   UNL     1       6.614   4.950  16.795  0.00  0.00    +0.000 A 
ATOM      8  N   UNL     1       7.300   5.454  15.743  0.00  0.00    +0.000 NA
ATOM      9  C   UNL     1       7.149   4.976  14.483  0.00  0.00    +0.000 A 
ATOM     10  C   UNL     1       7.853   5.569  13.432  0.00  0.00    +0.000 A 
ATOM     11  C   UNL     1       7.693   5.087  12.130  0.00  0.00    +0.000 A 
ATOM     12  C   UNL     1       6.832   4.018  11.880  0.00  0.00    +0.000 A 
ATOM     13  C   UNL     1       6.124   3.417  12.930  0.00  0.00    +0.000 A 
ATOM     14  C   UNL     1       6.272   3.899  14.243  0.00  0.00    +0.000 A 
ATOM     15  C   UNL     1       5.556   3.354  15.325  0.00  0.00    +0.000 A 
ENDBRANCH   4   6
ENDBRANCH   1   2
BRANCH   1  16
ATOM     16  S   UNL     1       2.745   3.935  20.314  0.00  0.00    +0.000 S 
ATOM     17  O   UNL     1       1.213   4.555  19.831  0.00  0.00    +0.000 OA
BRANCH  16  18
ATOM     18  C   UNL     1       3.673   5.320  19.523  0.00  0.00    +0.000 C 
BRANCH  18  20
ATOM     19  O   UNL     1       2.377   6.809  18.253  0.00  0.00    +0.000 OA
ATOM     20  C   UNL     1       2.762   6.518  19.372  0.00  0.00    +0.000 C 
ATOM     21  N   UNL     1       2.382   7.263  20.457  0.00  0.00    +0.000 N 
ATOM     22  H   UNL     1       2.805   7.028  21.369  0.00  0.00    +0.000 HD
BRANCH  21  23
ATOM     23  C   UNL     1       1.430   8.349  20.421  0.00  0.00    +0.000 A 
ATOM     24  C   UNL     1       1.349   9.273  19.350  0.00  0.00    +0.000 A 
ATOM     25  C   UNL     1       0.408  10.299  19.353  0.00  0.00    +0.000 A 
ATOM     26  C   UNL     1      -0.478  10.435  20.416  0.00  0.00    +0.000 A 
ATOM     27 CL   UNL     1      -1.652  11.737  20.402  0.00  0.00    +0.000 Cl
ATOM     28  C   UNL     1      -0.430   9.529  21.479  0.00  0.00    +0.000 A 
ATOM     29  C   UNL     1       0.510   8.490  21.481  0.00  0.00    +0.000 A 
ENDBRANCH  21  23
ENDBRANCH  18  20
ENDBRANCH  16  18
ENDBRANCH   1  16
TORSDOF 6
ENDMDL
MODEL 9
REMARK VINA RESULT:      -7.5      6.335      8.122
REMARK  Name = 
REMARK  6 active torsions:
REMARK  status: ('A' for Active; 'I' for Inactive)
REMARK    1  A    between atoms: C_2  and  C_3
REMARK    2  A    between atoms: C_3  and  S_4
REMARK    3  A    between atoms: S_4  and  C_6
REMARK    4  A    between atoms: C_6  and  C_7
REMARK    5  A    between atoms: N_9  and  C_10
REMARK    6  A    between atoms: N_20  and  C_21
REMARK                            x       y       z     vdW  Elec       q    Type
REMARK                         _______ _______ _______ _____ _____    ______ ____
ROOT
ATOM      1  C   UNL     1       7.825   7.127  18.091  0.00  0.00    +0.000 C 
ENDROOT
BRANCH   1   2
ATOM      2  C   UNL     1       8.187   8.586  18.151  0.00  0.00    +0.000 C 
ATOM      3  O   UNL     1       7.654   9.330  17.345  0.00  0.00    +0.000 OA
ATOM      4  N   UNL     1       9.129   9.046  19.039  0.00  0.00    +0.000 N 
ATOM      5  H   UNL     1       9.597   8.342  19.634  0.00  0.00    +0.000 HD
BRANCH   4   6
ATOM      6  C   UNL     1       9.586  10.407  19.151  0.00  0.00    +0.000 A 
ATOM      7  C   UNL     1       9.405  11.185  20.317  0.00  0.00    +0.000 A 
ATOM      8  N   UNL     1       9.805  12.478  20.356  0.00  0.00    +0.000 NA
ATOM      9  C   UNL     1      10.395  13.087  19.298  0.00  0.00    +0.000 A 
ATOM     10  C   UNL     1      10.744  14.437  19.385  0.00  0.00    +0.000 A 
ATOM     11  C   UNL     1      11.341  15.072  18.294  0.00  0.00    +0.000 A 
ATOM     12  C   UNL     1      11.589  14.360  17.119  0.00  0.00    +0.000 A 
ATOM     13  C   UNL     1      11.243  13.005  17.025  0.00  0.00    +0.000 A 
ATOM     14  C   UNL     1      10.634  12.358  18.114  0.00  0.00    +0.000 A 
ATOM     15  C   UNL     1      10.235  11.011  18.057  0.00  0.00    +0.000 A 
ENDBRANCH   4   6
ENDBRANCH   1   2
BRANCH   1  16
ATOM     16  S   UNL     1       7.306   6.719  16.398  0.00  0.00    +0.000 S 
ATOM     17  O   UNL     1       5.636   6.819  16.800  0.00  0.00    +0.000 OA
BRANCH  16  18
ATOM     18  C   UNL     1       7.340   4.880  16.547  0.00  0.00    +0.000 C 
BRANCH  18  20
ATOM     19  O   UNL     1       6.992   4.375  18.813  0.00  0.00    +0.000 OA
ATOM     20  C   UNL     1       6.475   4.452  17.713  0.00  0.00    +0.000 C 
ATOM     21  N   UNL     1       5.150   4.151  17.541  0.00  0.00    +0.000 N 
ATOM     22  H   UNL     1       4.783   4.148  16.577  0.00  0.00    +0.000 HD
BRANCH  21  23
ATOM     23  C   UNL     1       4.228   3.845  18.610  0.00  0.00    +0.000 A 
ATOM     24  C   UNL     1       3.694   4.830  19.478  0.00  0.00    +0.000 A 
ATOM     25  C   UNL     1       2.799   4.490  20.490  0.00  0.00    +0.000 A 
ATOM     26  C   UNL     1       2.410   3.167  20.666  0.00  0.00    +0.000 A 
ATOM     27 CL   UNL     1       1.287   2.760  21.949  0.00  0.00    +0.000 Cl
ATOM     28  C   UNL     1       2.909   2.178  19.815  0.00  0.00    +0.000 A 
ATOM     29  C   UNL     1       3.805   2.512  18.790  0.00  0.00    +0.000 A 
ENDBRANCH  21  23
ENDBRANCH  18  20
ENDBRANCH  16  18
ENDBRANCH   1  16
TORSDOF 6
ENDMDL
