MODEL 1
REMARK VINA RESULT:      -7.2      0.000      0.000
REMARK  Name = 
REMARK  8 active torsions:
REMARK  status: ('A' for Active; 'I' for Inactive)
REMARK    1  A    between atoms: C_1  and  O_2
REMARK    2  A    between atoms: O_2  and  C_3
REMARK    3  A    between atoms: C_6  and  S_7
REMARK    4  A    between atoms: S_7  and  N_10
REMARK    5  A    between atoms: N_10  and  C_11
REMARK    6  A    between atoms: C_11  and  C_12
REMARK    7  A    between atoms: C_12  and  N_13
REMARK    8  A    between atoms: N_16  and  C_17
REMARK                            x       y       z     vdW  Elec       q    Type
REMARK                         _______ _______ _______ _____ _____    ______ ____
ROOT
ATOM      1  C   UNL     1       1.935   3.439  21.373  0.00  0.00    +0.000 C 
ENDROOT
BRANCH   1   2
ATOM      2  N   UNL     1       2.540   4.756  21.162  0.00  0.00    +0.000 N 
ATOM      3  C   UNL     1       1.727   5.770  20.704  0.00  0.00    +0.000 C 
ATOM      4  O   UNL     1       0.547   5.567  20.466  0.00  0.00    +0.000 OA
ATOM      5  N   UNL     1       2.401   6.954  20.492  0.00  0.00    +0.000 N 
ATOM      6  H   UNL     1       3.293   5.029  21.774  0.00  0.00    +0.000 HD
ATOM      7  H   UNL     1       3.408   6.905  20.498  0.00  0.00    +0.000 HD
BRANCH   5   8
ATOM      8  C   UNL     1       1.802   8.134  19.984  0.00  0.00    +0.000 A 
ATOM      9  C   UNL     1       1.903   8.513  18.641  0.00  0.00    +0.000 A 
ATOM     10  C   UNL     1       1.341   9.703  18.177  0.00  0.00    +0.000 A 
ATOM     11  C   UNL     1       0.649  10.534  19.050  0.00  0.00    +0.000 A 
ATOM     12 CL   UNL     1      -0.021  11.987  18.409  0.00  0.00    +0.000 Cl
ATOM     13  C   UNL     1       0.521  10.162  20.394  0.00  0.00    +0.000 A 
ATOM     14 CL   UNL     1      -0.313  11.153  21.539  0.00  0.00    +0.000 Cl
ATOM     15  C   UNL     1       1.088   8.961  20.858  0.00  0.00    +0.000 A 
ENDBRANCH   5   8
ENDBRANCH   1   2
BRANCH   1  16
ATOM     16  C   UNL     1       2.616   2.346  20.527  0.00  0.00    +0.000 C 
BRANCH  16  17
ATOM     17  N   UNL     1       3.809   2.839  19.820  0.00  0.00    +0.000 NA
ATOM     18  H   UNL     1       4.312   3.626  20.224  0.00  0.00    +0.000 HD
BRANCH  17  19
ATOM     19  S   UNL     1       3.629   3.081  18.149  0.00  0.00    +0.000 S 
ATOM     20  O   UNL     1       2.355   3.752  17.996  0.00  0.00    +0.000 OA
ATOM     21  O   UNL     1       3.901   1.827  17.480  0.00  0.00    +0.000 OA
BRANCH  19  25
ATOM     22  C   UNL     1       6.801   6.221  17.142  0.00  0.00    +0.000 A 
ATOM     23  C   UNL     1       5.790   5.916  16.226  0.00  0.00    +0.000 A 
ATOM     24  C   UNL     1       4.833   4.940  16.520  0.00  0.00    +0.000 A 
ATOM     25  C   UNL     1       4.910   4.239  17.725  0.00  0.00    +0.000 A 
ATOM     26  C   UNL     1       5.916   4.537  18.649  0.00  0.00    +0.000 A 
ATOM     27  C   UNL     1       6.864   5.527  18.352  0.00  0.00    +0.000 A 
BRANCH  22  29
ATOM     28  C   UNL     1       7.908   8.255  17.641  0.00  0.00    +0.000 C 
ATOM     29  O   UNL     1       7.683   7.183  16.732  0.00  0.00    +0.000 OA
ENDBRANCH  22  29
ENDBRANCH  19  25
ENDBRANCH  17  19
ENDBRANCH  16  17
ENDBRANCH   1  16
TORSDOF 7
ENDMDL
MODEL 2
REMARK VINA RESULT:      -7.1      4.264      6.908
REMARK  Name = 
REMARK  8 active torsions:
REMARK  status: ('A' for Active; 'I' for Inactive)
REMARK    1  A    between atoms: C_1  and  O_2
REMARK    2  A    between atoms: O_2  and  C_3
REMARK    3  A    between atoms: C_6  and  S_7
REMARK    4  A    between atoms: S_7  and  N_10
REMARK    5  A    between atoms: N_10  and  C_11
REMARK    6  A    between atoms: C_11  and  C_12
REMARK    7  A    between atoms: C_12  and  N_13
REMARK    8  A    between atoms: N_16  and  C_17
REMARK                            x       y       z     vdW  Elec       q    Type
REMARK                         _______ _______ _______ _____ _____    ______ ____
ROOT
ATOM      1  C   UNL     1       7.491   6.326  18.135  0.00  0.00    +0.000 C 
ENDROOT
BRANCH   1   2
ATOM      2  N   UNL     1       8.308   7.302  18.860  0.00  0.00    +0.000 N 
ATOM      3  C   UNL     1       8.392   8.578  18.347  0.00  0.00    +0.000 C 
ATOM      4  O   UNL     1       7.818   8.874  17.311  0.00  0.00    +0.000 OA
ATOM      5  N   UNL     1       9.222   9.404  19.075  0.00  0.00    +0.000 N 
ATOM      6  H   UNL     1       8.353   7.221  19.864  0.00  0.00    +0.000 HD
ATOM      7  H   UNL     1       9.814   8.957  19.758  0.00  0.00    +0.000 HD
BRANCH   5   8
ATOM      8  C   UNL     1       9.509  10.749  18.733  0.00  0.00    +0.000 A 
ATOM      9  C   UNL     1      10.517  11.097  17.826  0.00  0.00    +0.000 A 
ATOM     10  C   UNL     1      10.808  12.432  17.541  0.00  0.00    +0.000 A 
ATOM     11  C   UNL     1      10.083  13.449  18.149  0.00  0.00    +0.000 A 
ATOM     12 CL   UNL     1      10.496  15.074  17.750  0.00  0.00    +0.000 Cl
ATOM     13  C   UNL     1       9.059  13.120  19.046  0.00  0.00    +0.000 A 
ATOM     14 CL   UNL     1       8.126  14.333  19.851  0.00  0.00    +0.000 Cl
ATOM     15  C   UNL     1       8.767  11.774  19.330  0.00  0.00    +0.000 A 
ENDBRANCH   5   8
ENDBRANCH   1   2
BRANCH   1  16
ATOM     16  C   UNL     1       6.634   5.467  19.084  0.00  0.00    +0.000 C 
BRANCH  16  17
ATOM     17  N   UNL     1       6.249   4.177  18.489  0.00  0.00    +0.000 NA
ATOM     18  H   UNL     1       6.988   3.588  18.109  0.00  0.00    +0.000 HD
BRANCH  17  19
ATOM     19  S   UNL     1       4.949   4.228  17.399  0.00  0.00    +0.000 S 
ATOM     20  O   UNL     1       4.273   2.956  17.552  0.00  0.00    +0.000 OA
ATOM     21  O   UNL     1       5.454   4.658  16.113  0.00  0.00    +0.000 OA
BRANCH  19  25
ATOM     22  C   UNL     1       2.364   7.565  19.167  0.00  0.00    +0.000 A 
ATOM     23  C   UNL     1       2.460   6.327  19.808  0.00  0.00    +0.000 A 
ATOM     24  C   UNL     1       3.230   5.297  19.259  0.00  0.00    +0.000 A 
ATOM     25  C   UNL     1       3.879   5.495  18.039  0.00  0.00    +0.000 A 
ATOM     26  C   UNL     1       3.791   6.731  17.390  0.00  0.00    +0.000 A 
ATOM     27  C   UNL     1       3.029   7.763  17.954  0.00  0.00    +0.000 A 
BRANCH  22  29
ATOM     28  C   UNL     1       1.176   8.165  21.126  0.00  0.00    +0.000 C 
ATOM     29  O   UNL     1       1.571   8.485  19.797  0.00  0.00    +0.000 OA
ENDBRANCH  22  29
ENDBRANCH  19  25
ENDBRANCH  17  19
ENDBRANCH  16  17
ENDBRANCH   1  16
TORSDOF 7
ENDMDL
MODEL 3
REMARK VINA RESULT:      -7.0      4.288      6.788
REMARK  Name = 
REMARK  8 active torsions:
REMARK  status: ('A' for Active; 'I' for Inactive)
REMARK    1  A    between atoms: C_1  and  O_2
REMARK    2  A    between atoms: O_2  and  C_3
REMARK    3  A    between atoms: C_6  and  S_7
REMARK    4  A    between atoms: S_7  and  N_10
REMARK    5  A    between atoms: N_10  and  C_11
REMARK    6  A    between atoms: C_11  and  C_12
REMARK    7  A    between atoms: C_12  and  N_13
REMARK    8  A    between atoms: N_16  and  C_17
REMARK                            x       y       z     vdW  Elec       q    Type
REMARK                         _______ _______ _______ _____ _____    ______ ____
ROOT
ATOM      1  C   UNL     1       7.160   6.289  17.395  0.00  0.00    +0.000 C 
ENDROOT
BRANCH   1   2
ATOM      2  N   UNL     1       8.046   7.002  18.317  0.00  0.00    +0.000 N 
ATOM      3  C   UNL     1       8.126   8.374  18.200  0.00  0.00    +0.000 C 
ATOM      4  O   UNL     1       7.492   8.966  17.341  0.00  0.00    +0.000 OA
ATOM      5  N   UNL     1       9.022   8.942  19.080  0.00  0.00    +0.000 N 
ATOM      6  H   UNL     1       8.155   6.626  19.247  0.00  0.00    +0.000 HD
ATOM      7  H   UNL     1       9.647   8.311  19.557  0.00  0.00    +0.000 HD
BRANCH   5   8
ATOM      8  C   UNL     1       9.318  10.328  19.132  0.00  0.00    +0.000 A 
ATOM      9  C   UNL     1       9.656  11.070  17.994  0.00  0.00    +0.000 A 
ATOM     10  C   UNL     1       9.987  12.423  18.081  0.00  0.00    +0.000 A 
ATOM     11  C   UNL     1       9.970  13.067  19.311  0.00  0.00    +0.000 A 
ATOM     12 CL   UNL     1      10.388  14.739  19.345  0.00  0.00    +0.000 Cl
ATOM     13  C   UNL     1       9.616  12.346  20.459  0.00  0.00    +0.000 A 
ATOM     14 CL   UNL     1       9.589  13.078  22.025  0.00  0.00    +0.000 Cl
ATOM     15  C   UNL     1       9.283  10.983  20.368  0.00  0.00    +0.000 A 
ENDBRANCH   5   8
ENDBRANCH   1   2
BRANCH   1  16
ATOM     16  C   UNL     1       6.670   4.950  17.980  0.00  0.00    +0.000 C 
BRANCH  16  17
ATOM     17  N   UNL     1       5.543   4.380  17.224  0.00  0.00    +0.000 NA
ATOM     18  H   UNL     1       5.244   4.862  16.379  0.00  0.00    +0.000 HD
BRANCH  17  19
ATOM     19  S   UNL     1       4.182   3.951  18.144  0.00  0.00    +0.000 S 
ATOM     20  O   UNL     1       4.710   3.345  19.348  0.00  0.00    +0.000 OA
ATOM     21  O   UNL     1       3.265   3.234  17.284  0.00  0.00    +0.000 OA
BRANCH  19  25
ATOM     22  C   UNL     1       2.084   7.875  19.209  0.00  0.00    +0.000 A 
ATOM     23  C   UNL     1       2.737   7.731  17.982  0.00  0.00    +0.000 A 
ATOM     24  C   UNL     1       3.399   6.542  17.662  0.00  0.00    +0.000 A 
ATOM     25  C   UNL     1       3.439   5.503  18.593  0.00  0.00    +0.000 A 
ATOM     26  C   UNL     1       2.788   5.636  19.823  0.00  0.00    +0.000 A 
ATOM     27  C   UNL     1       2.114   6.826  20.130  0.00  0.00    +0.000 A 
BRANCH  22  29
ATOM     28  C   UNL     1       1.010   9.753  18.242  0.00  0.00    +0.000 C 
ATOM     29  O   UNL     1       1.485   9.089  19.408  0.00  0.00    +0.000 OA
ENDBRANCH  22  29
ENDBRANCH  19  25
ENDBRANCH  17  19
ENDBRANCH  16  17
ENDBRANCH   1  16
TORSDOF 7
ENDMDL
MODEL 4
REMARK VINA RESULT:      -7.0      2.538      3.706
REMARK  Name = 
REMARK  8 active torsions:
REMARK  status: ('A' for Active; 'I' for Inactive)
REMARK    1  A    between atoms: C_1  and  O_2
REMARK    2  A    between atoms: O_2  and  C_3
REMARK    3  A    between atoms: C_6  and  S_7
REMARK    4  A    between atoms: S_7  and  N_10
REMARK    5  A    between atoms: N_10  and  C_11
REMARK    6  A    between atoms: C_11  and  C_12
REMARK    7  A    between atoms: C_12  and  N_13
REMARK    8  A    between atoms: N_16  and  C_17
REMARK                            x       y       z     vdW  Elec       q    Type
REMARK                         _______ _______ _______ _____ _____    ______ ____
ROOT
ATOM      1  C   UNL     1       3.274   4.610  18.962  0.00  0.00    +0.000 C 
ENDROOT
BRANCH   1   2
ATOM      2  N   UNL     1       3.062   6.058  18.904  0.00  0.00    +0.000 N 
ATOM      3  C   UNL     1       2.238   6.625  19.853  0.00  0.00    +0.000 C 
ATOM      4  O   UNL     1       1.691   5.935  20.699  0.00  0.00    +0.000 OA
ATOM      5  N   UNL     1       2.067   7.982  19.682  0.00  0.00    +0.000 N 
ATOM      6  H   UNL     1       3.825   6.630  18.575  0.00  0.00    +0.000 HD
ATOM      7  H   UNL     1       2.380   8.368  18.805  0.00  0.00    +0.000 HD
BRANCH   5   8
ATOM      8  C   UNL     1       1.235   8.790  20.499  0.00  0.00    +0.000 A 
ATOM      9  C   UNL     1       1.231   8.696  21.895  0.00  0.00    +0.000 A 
ATOM     10  C   UNL     1       0.370   9.471  22.673  0.00  0.00    +0.000 A 
ATOM     11  C   UNL     1      -0.496  10.373  22.066  0.00  0.00    +0.000 A 
ATOM     12 CL   UNL     1      -1.531  11.299  23.087  0.00  0.00    +0.000 Cl
ATOM     13  C   UNL     1      -0.493  10.494  20.670  0.00  0.00    +0.000 A 
ATOM     14 CL   UNL     1      -1.553  11.583  19.847  0.00  0.00    +0.000 Cl
ATOM     15  C   UNL     1       0.377   9.711  19.890  0.00  0.00    +0.000 A 
ENDBRANCH   5   8
ENDBRANCH   1   2
BRANCH   1  16
ATOM     16  C   UNL     1       4.602   4.245  19.653  0.00  0.00    +0.000 C 
BRANCH  16  17
ATOM     17  N   UNL     1       5.604   3.717  18.714  0.00  0.00    +0.000 NA
ATOM     18  H   UNL     1       6.156   2.914  19.007  0.00  0.00    +0.000 HD
BRANCH  17  19
ATOM     19  S   UNL     1       6.620   4.871  17.994  0.00  0.00    +0.000 S 
ATOM     20  O   UNL     1       7.964   4.482  18.368  0.00  0.00    +0.000 OA
ATOM     21  O   UNL     1       6.105   6.185  18.310  0.00  0.00    +0.000 OA
BRANCH  19  25
ATOM     22  C   UNL     1       6.281   3.988  13.517  0.00  0.00    +0.000 A 
ATOM     23  C   UNL     1       7.323   4.780  14.007  0.00  0.00    +0.000 A 
ATOM     24  C   UNL     1       7.417   5.072  15.370  0.00  0.00    +0.000 A 
ATOM     25  C   UNL     1       6.439   4.597  16.246  0.00  0.00    +0.000 A 
ATOM     26  C   UNL     1       5.394   3.802  15.768  0.00  0.00    +0.000 A 
ATOM     27  C   UNL     1       5.315   3.502  14.401  0.00  0.00    +0.000 A 
BRANCH  22  29
ATOM     28  C   UNL     1       5.622   2.619  11.700  0.00  0.00    +0.000 C 
ATOM     29  O   UNL     1       6.292   3.786  12.164  0.00  0.00    +0.000 OA
ENDBRANCH  22  29
ENDBRANCH  19  25
ENDBRANCH  17  19
ENDBRANCH  16  17
ENDBRANCH   1  16
TORSDOF 7
ENDMDL
MODEL 5
REMARK VINA RESULT:      -6.9      1.691      2.585
REMARK  Name = 
REMARK  8 active torsions:
REMARK  status: ('A' for Active; 'I' for Inactive)
REMARK    1  A    between atoms: C_1  and  O_2
REMARK    2  A    between atoms: O_2  and  C_3
REMARK    3  A    between atoms: C_6  and  S_7
REMARK    4  A    between atoms: S_7  and  N_10
REMARK    5  A    between atoms: N_10  and  C_11
REMARK    6  A    between atoms: C_11  and  C_12
REMARK    7  A    between atoms: C_12  and  N_13
REMARK    8  A    between atoms: N_16  and  C_17
REMARK                            x       y       z     vdW  Elec       q    Type
REMARK                         _______ _______ _______ _____ _____    ______ ____
ROOT
ATOM      1  C   UNL     1       2.476   5.750  19.823  0.00  0.00    +0.000 C 
ENDROOT
BRANCH   1   2
ATOM      2  N   UNL     1       2.411   6.826  18.831  0.00  0.00    +0.000 N 
ATOM      3  C   UNL     1       1.928   8.050  19.241  0.00  0.00    +0.000 C 
ATOM      4  O   UNL     1       1.551   8.221  20.390  0.00  0.00    +0.000 OA
ATOM      5  N   UNL     1       1.863   8.977  18.223  0.00  0.00    +0.000 N 
ATOM      6  H   UNL     1       3.117   6.843  18.112  0.00  0.00    +0.000 HD
ATOM      7  H   UNL     1       1.976   8.624  17.285  0.00  0.00    +0.000 HD
BRANCH   5   8
ATOM      8  C   UNL     1       1.364  10.296  18.375  0.00  0.00    +0.000 A 
ATOM      9  C   UNL     1       0.012  10.567  18.616  0.00  0.00    +0.000 A 
ATOM     10  C   UNL     1      -0.460  11.876  18.717  0.00  0.00    +0.000 A 
ATOM     11  C   UNL     1       0.419  12.945  18.595  0.00  0.00    +0.000 A 
ATOM     12 CL   UNL     1      -0.231  14.535  18.732  0.00  0.00    +0.000 Cl
ATOM     13  C   UNL     1       1.779  12.694  18.373  0.00  0.00    +0.000 A 
ATOM     14 CL   UNL     1       2.927  13.974  18.196  0.00  0.00    +0.000 Cl
ATOM     15  C   UNL     1       2.251  11.372  18.272  0.00  0.00    +0.000 A 
ENDBRANCH   5   8
ENDBRANCH   1   2
BRANCH   1  16
ATOM     16  C   UNL     1       1.717   4.491  19.363  0.00  0.00    +0.000 C 
BRANCH  16  17
ATOM     17  N   UNL     1       2.508   3.260  19.531  0.00  0.00    +0.000 NA
ATOM     18  H   UNL     1       3.178   3.226  20.296  0.00  0.00    +0.000 HD
BRANCH  17  19
ATOM     19  S   UNL     1       3.226   2.647  18.120  0.00  0.00    +0.000 S 
ATOM     20  O   UNL     1       2.183   2.682  17.115  0.00  0.00    +0.000 OA
ATOM     21  O   UNL     1       3.900   1.412  18.458  0.00  0.00    +0.000 OA
BRANCH  19  25
ATOM     22  C   UNL     1       6.502   5.602  16.909  0.00  0.00    +0.000 A 
ATOM     23  C   UNL     1       6.513   5.012  18.176  0.00  0.00    +0.000 A 
ATOM     24  C   UNL     1       5.501   4.127  18.558  0.00  0.00    +0.000 A 
ATOM     25  C   UNL     1       4.450   3.859  17.680  0.00  0.00    +0.000 A 
ATOM     26  C   UNL     1       4.430   4.443  16.409  0.00  0.00    +0.000 A 
ATOM     27  C   UNL     1       5.456   5.319  16.028  0.00  0.00    +0.000 A 
BRANCH  22  29
ATOM     28  C   UNL     1       7.597   7.625  17.474  0.00  0.00    +0.000 C 
ATOM     29  O   UNL     1       7.539   6.460  16.660  0.00  0.00    +0.000 OA
ENDBRANCH  22  29
ENDBRANCH  19  25
ENDBRANCH  17  19
ENDBRANCH  16  17
ENDBRANCH   1  16
TORSDOF 7
ENDMDL
MODEL 6
REMARK VINA RESULT:      -6.9      4.835      8.495
REMARK  Name = 
REMARK  8 active torsions:
REMARK  status: ('A' for Active; 'I' for Inactive)
REMARK    1  A    between atoms: C_1  and  O_2
REMARK    2  A    between atoms: O_2  and  C_3
REMARK    3  A    between atoms: C_6  and  S_7
REMARK    4  A    between atoms: S_7  and  N_10
REMARK    5  A    between atoms: N_10  and  C_11
REMARK    6  A    between atoms: C_11  and  C_12
REMARK    7  A    between atoms: C_12  and  N_13
REMARK    8  A    between atoms: N_16  and  C_17
REMARK                            x       y       z     vdW  Elec       q    Type
REMARK                         _______ _______ _______ _____ _____    ______ ____
ROOT
ATOM      1  C   UNL     1       0.668   8.255  21.251  0.00  0.00    +0.000 C 
ENDROOT
BRANCH   1   2
ATOM      2  N   UNL     1       1.619   7.141  21.213  0.00  0.00    +0.000 N 
ATOM      3  C   UNL     1       2.259   6.883  20.020  0.00  0.00    +0.000 C 
ATOM      4  O   UNL     1       2.024   7.552  19.026  0.00  0.00    +0.000 OA
ATOM      5  N   UNL     1       3.093   5.787  20.078  0.00  0.00    +0.000 N 
ATOM      6  H   UNL     1       2.141   6.942  22.053  0.00  0.00    +0.000 HD
ATOM      7  H   UNL     1       3.000   5.193  20.887  0.00  0.00    +0.000 HD
BRANCH   5   8
ATOM      8  C   UNL     1       3.833   5.289  18.975  0.00  0.00    +0.000 A 
ATOM      9  C   UNL     1       3.226   4.653  17.886  0.00  0.00    +0.000 A 
ATOM     10  C   UNL     1       3.983   4.132  16.835  0.00  0.00    +0.000 A 
ATOM     11  C   UNL     1       5.367   4.253  16.846  0.00  0.00    +0.000 A 
ATOM     12 CL   UNL     1       6.238   3.589  15.515  0.00  0.00    +0.000 Cl
ATOM     13  C   UNL     1       5.991   4.902  17.918  0.00  0.00    +0.000 A 
ATOM     14 CL   UNL     1       7.709   5.075  18.006  0.00  0.00    +0.000 Cl
ATOM     15  C   UNL     1       5.225   5.427  18.976  0.00  0.00    +0.000 A 
ENDBRANCH   5   8
ENDBRANCH   1   2
BRANCH   1  16
ATOM     16  C   UNL     1       1.274   9.511  21.905  0.00  0.00    +0.000 C 
BRANCH  16  17
ATOM     17  N   UNL     1       0.250  10.488  22.311  0.00  0.00    +0.000 NA
ATOM     18  H   UNL     1      -0.712  10.165  22.391  0.00  0.00    +0.000 HD
BRANCH  17  19
ATOM     19  S   UNL     1       0.283  11.974  21.489  0.00  0.00    +0.000 S 
ATOM     20  O   UNL     1       1.624  12.085  20.954  0.00  0.00    +0.000 OA
ATOM     21  O   UNL     1      -0.260  12.987  22.368  0.00  0.00    +0.000 OA
BRANCH  19  25
ATOM     22  C   UNL     1      -2.661  11.219  18.068  0.00  0.00    +0.000 A 
ATOM     23  C   UNL     1      -1.365  10.697  18.017  0.00  0.00    +0.000 A 
ATOM     24  C   UNL     1      -0.456  10.945  19.049  0.00  0.00    +0.000 A 
ATOM     25  C   UNL     1      -0.834  11.752  20.123  0.00  0.00    +0.000 A 
ATOM     26  C   UNL     1      -2.128  12.278  20.185  0.00  0.00    +0.000 A 
ATOM     27  C   UNL     1      -3.038  12.013  19.153  0.00  0.00    +0.000 A 
BRANCH  22  29
ATOM     28  C   UNL     1      -2.790  10.826  15.736  0.00  0.00    +0.000 C 
ATOM     29  O   UNL     1      -3.451  10.916  16.993  0.00  0.00    +0.000 OA
ENDBRANCH  22  29
ENDBRANCH  19  25
ENDBRANCH  17  19
ENDBRANCH  16  17
ENDBRANCH   1  16
TORSDOF 7
ENDMDL
MODEL 7
REMARK VINA RESULT:      -6.9      1.935      2.322
REMARK  Name = 
REMARK  8 active torsions:
REMARK  status: ('A' for Active; 'I' for Inactive)
REMARK    1  A    between atoms: C_1  and  O_2
REMARK    2  A    between atoms: O_2  and  C_3
REMARK    3  A    between atoms: C_6  and  S_7
REMARK    4  A    between atoms: S_7  and  N_10
REMARK    5  A    between atoms: N_10  and  C_11
REMARK    6  A    between atoms: C_11  and  C_12
REMARK    7  A    between atoms: C_12  and  N_13
REMARK    8  A    between atoms: N_16  and  C_17
REMARK                            x       y       z     vdW  Elec       q    Type
REMARK                         _______ _______ _______ _____ _____    ______ ____
ROOT
ATOM      1  C   UNL     1       2.392   3.332  20.720  0.00  0.00    +0.000 C 
ENDROOT
BRANCH   1   2
ATOM      2  N   UNL     1       2.753   4.744  20.871  0.00  0.00    +0.000 N 
ATOM      3  C   UNL     1       1.752   5.681  20.734  0.00  0.00    +0.000 C 
ATOM      4  O   UNL     1       0.608   5.341  20.476  0.00  0.00    +0.000 OA
ATOM      5  N   UNL     1       2.204   6.979  20.845  0.00  0.00    +0.000 N 
ATOM      6  H   UNL     1       3.493   4.971  21.517  0.00  0.00    +0.000 HD
ATOM      7  H   UNL     1       3.203   7.111  20.814  0.00  0.00    +0.000 HD
BRANCH   5   8
ATOM      8  C   UNL     1       1.381   8.125  20.702  0.00  0.00    +0.000 A 
ATOM      9  C   UNL     1       1.251   8.812  19.490  0.00  0.00    +0.000 A 
ATOM     10  C   UNL     1       0.470   9.964  19.388  0.00  0.00    +0.000 A 
ATOM     11  C   UNL     1      -0.212  10.444  20.498  0.00  0.00    +0.000 A 
ATOM     12 CL   UNL     1      -1.160  11.870  20.301  0.00  0.00    +0.000 Cl
ATOM     13  C   UNL     1      -0.109   9.759  21.716  0.00  0.00    +0.000 A 
ATOM     14 CL   UNL     1      -0.918  10.307  23.142  0.00  0.00    +0.000 Cl
ATOM     15  C   UNL     1       0.679   8.598  21.815  0.00  0.00    +0.000 A 
ENDBRANCH   5   8
ENDBRANCH   1   2
BRANCH   1  16
ATOM     16  C   UNL     1       2.936   2.732  19.409  0.00  0.00    +0.000 C 
BRANCH  16  17
ATOM     17  N   UNL     1       3.317   3.763  18.430  0.00  0.00    +0.000 NA
ATOM     18  H   UNL     1       3.179   3.557  17.442  0.00  0.00    +0.000 HD
BRANCH  17  19
ATOM     19  S   UNL     1       4.849   4.461  18.654  0.00  0.00    +0.000 S 
ATOM     20  O   UNL     1       5.575   3.528  19.489  0.00  0.00    +0.000 OA
ATOM     21  O   UNL     1       4.661   5.838  19.056  0.00  0.00    +0.000 OA
BRANCH  19  25
ATOM     22  C   UNL     1       6.685   4.611  14.465  0.00  0.00    +0.000 A 
ATOM     23  C   UNL     1       5.367   4.184  14.647  0.00  0.00    +0.000 A 
ATOM     24  C   UNL     1       4.810   4.114  15.927  0.00  0.00    +0.000 A 
ATOM     25  C   UNL     1       5.590   4.439  17.038  0.00  0.00    +0.000 A 
ATOM     26  C   UNL     1       6.910   4.869  16.868  0.00  0.00    +0.000 A 
ATOM     27  C   UNL     1       7.456   4.950  15.580  0.00  0.00    +0.000 A 
BRANCH  22  29
ATOM     28  C   UNL     1       8.214   5.485  12.881  0.00  0.00    +0.000 C 
ATOM     29  O   UNL     1       7.118   4.623  13.168  0.00  0.00    +0.000 OA
ENDBRANCH  22  29
ENDBRANCH  19  25
ENDBRANCH  17  19
ENDBRANCH  16  17
ENDBRANCH   1  16
TORSDOF 7
ENDMDL
MODEL 8
REMARK VINA RESULT:      -6.8      4.377      7.293
REMARK  Name = 
REMARK  8 active torsions:
REMARK  status: ('A' for Active; 'I' for Inactive)
REMARK    1  A    between atoms: C_1  and  O_2
REMARK    2  A    between atoms: O_2  and  C_3
REMARK    3  A    between atoms: C_6  and  S_7
REMARK    4  A    between atoms: S_7  and  N_10
REMARK    5  A    between atoms: N_10  and  C_11
REMARK    6  A    between atoms: C_11  and  C_12
REMARK    7  A    between atoms: C_12  and  N_13
REMARK    8  A    between atoms: N_16  and  C_17
REMARK                            x       y       z     vdW  Elec       q    Type
REMARK                         _______ _______ _______ _____ _____    ______ ____
ROOT
ATOM      1  C   UNL     1       6.999   6.462  17.150  0.00  0.00    +0.000 C 
ENDROOT
BRANCH   1   2
ATOM      2  N   UNL     1       7.918   7.079  18.109  0.00  0.00    +0.000 N 
ATOM      3  C   UNL     1       8.059   8.450  18.074  0.00  0.00    +0.000 C 
ATOM      4  O   UNL     1       7.450   9.120  17.254  0.00  0.00    +0.000 OA
ATOM      5  N   UNL     1       8.980   8.926  18.982  0.00  0.00    +0.000 N 
ATOM      6  H   UNL     1       8.012   6.644  19.014  0.00  0.00    +0.000 HD
ATOM      7  H   UNL     1       9.577   8.240  19.417  0.00  0.00    +0.000 HD
BRANCH   5   8
ATOM      8  C   UNL     1       9.337  10.291  19.115  0.00  0.00    +0.000 A 
ATOM      9  C   UNL     1       9.786  11.062  18.036  0.00  0.00    +0.000 A 
ATOM     10  C   UNL     1      10.174  12.391  18.204  0.00  0.00    +0.000 A 
ATOM     11  C   UNL     1      10.105  12.984  19.459  0.00  0.00    +0.000 A 
ATOM     12 CL   UNL     1      10.599  14.630  19.594  0.00  0.00    +0.000 Cl
ATOM     13  C   UNL     1       9.642  12.235  20.548  0.00  0.00    +0.000 A 
ATOM     14 CL   UNL     1       9.544  12.902  22.139  0.00  0.00    +0.000 Cl
ATOM     15  C   UNL     1       9.250  10.895  20.374  0.00  0.00    +0.000 A 
ENDBRANCH   5   8
ENDBRANCH   1   2
BRANCH   1  16
ATOM     16  C   UNL     1       5.826   5.748  17.848  0.00  0.00    +0.000 C 
BRANCH  16  17
ATOM     17  N   UNL     1       4.520   6.331  17.500  0.00  0.00    +0.000 NA
ATOM     18  H   UNL     1       4.482   7.328  17.297  0.00  0.00    +0.000 HD
BRANCH  17  19
ATOM     19  S   UNL     1       3.230   5.911  18.520  0.00  0.00    +0.000 S 
ATOM     20  O   UNL     1       3.847   5.452  19.747  0.00  0.00    +0.000 OA
ATOM     21  O   UNL     1       2.324   5.064  17.775  0.00  0.00    +0.000 OA
BRANCH  19  25
ATOM     22  C   UNL     1       0.935   9.785  19.337  0.00  0.00    +0.000 A 
ATOM     23  C   UNL     1       1.490   9.541  18.077  0.00  0.00    +0.000 A 
ATOM     24  C   UNL     1       2.212   8.370  17.830  0.00  0.00    +0.000 A 
ATOM     25  C   UNL     1       2.411   7.452  18.863  0.00  0.00    +0.000 A 
ATOM     26  C   UNL     1       1.860   7.684  20.126  0.00  0.00    +0.000 A 
ATOM     27  C   UNL     1       1.125   8.855  20.362  0.00  0.00    +0.000 A 
BRANCH  22  29
ATOM     28  C   UNL     1       0.988  12.140  19.086  0.00  0.00    +0.000 C 
ATOM     29  O   UNL     1       0.264  10.971  19.456  0.00  0.00    +0.000 OA
ENDBRANCH  22  29
ENDBRANCH  19  25
ENDBRANCH  17  19
ENDBRANCH  16  17
ENDBRANCH   1  16
TORSDOF 7
ENDMDL
MODEL 9
REMARK VINA RESULT:      -6.8      5.213      7.684
REMARK  Name = 
REMARK  8 active torsions:
REMARK  status: ('A' for Active; 'I' for Inactive)
REMARK    1  A    between atoms: C_1  and  O_2
REMARK    2  A    between atoms: O_2  and  C_3
REMARK    3  A    between atoms: C_6  and  S_7
REMARK    4  A    between atoms: S_7  and  N_10
REMARK    5  A    between atoms: N_10  and  C_11
REMARK    6  A    between atoms: C_11  and  C_12
REMARK    7  A    between atoms: C_12  and  N_13
REMARK    8  A    between atoms: N_16  and  C_17
REMARK                            x       y       z     vdW  Elec       q    Type
REMARK                         _______ _______ _______ _____ _____    ______ ____
ROOT
ATOM      1  C   UNL     1       8.128   7.926  18.104  0.00  0.00    +0.000 C 
ENDROOT
BRANCH   1   2
ATOM      2  N   UNL     1       8.185   9.337  17.715  0.00  0.00    +0.000 N 
ATOM      3  C   UNL     1       8.886  10.200  18.529  0.00  0.00    +0.000 C 
ATOM      4  O   UNL     1       9.424   9.799  19.549  0.00  0.00    +0.000 OA
ATOM      5  N   UNL     1       8.838  11.510  18.103  0.00  0.00    +0.000 N 
ATOM      6  H   UNL     1       8.187   9.552  16.730  0.00  0.00    +0.000 HD
ATOM      7  H   UNL     1       8.159  11.725  17.388  0.00  0.00    +0.000 HD
BRANCH   5   8
ATOM      8  C   UNL     1       9.442  12.595  18.787  0.00  0.00    +0.000 A 
ATOM      9  C   UNL     1      10.812  12.636  19.072  0.00  0.00    +0.000 A 
ATOM     10  C   UNL     1      11.373  13.695  19.787  0.00  0.00    +0.000 A 
ATOM     11  C   UNL     1      10.574  14.747  20.218  0.00  0.00    +0.000 A 
ATOM     12 CL   UNL     1      11.333  16.023  21.093  0.00  0.00    +0.000 Cl
ATOM     13  C   UNL     1       9.204  14.732  19.925  0.00  0.00    +0.000 A 
ATOM     14 CL   UNL     1       8.146  15.998  20.442  0.00  0.00    +0.000 Cl
ATOM     15  C   UNL     1       8.642  13.663  19.204  0.00  0.00    +0.000 A 
ENDBRANCH   5   8
ENDBRANCH   1   2
BRANCH   1  16
ATOM     16  C   UNL     1       6.929   7.197  17.467  0.00  0.00    +0.000 C 
BRANCH  16  17
ATOM     17  N   UNL     1       7.313   6.389  16.298  0.00  0.00    +0.000 NA
ATOM     18  H   UNL     1       7.013   6.707  15.379  0.00  0.00    +0.000 HD
BRANCH  17  19
ATOM     19  S   UNL     1       7.043   4.718  16.436  0.00  0.00    +0.000 S 
ATOM     20  O   UNL     1       8.143   4.218  17.235  0.00  0.00    +0.000 OA
ATOM     21  O   UNL     1       6.777   4.194  15.115  0.00  0.00    +0.000 OA
BRANCH  19  25
ATOM     22  C   UNL     1       3.256   4.584  19.001  0.00  0.00    +0.000 A 
ATOM     23  C   UNL     1       4.492   4.219  19.542  0.00  0.00    +0.000 A 
ATOM     24  C   UNL     1       5.647   4.236  18.755  0.00  0.00    +0.000 A 
ATOM     25  C   UNL     1       5.559   4.586  17.407  0.00  0.00    +0.000 A 
ATOM     26  C   UNL     1       4.328   4.955  16.856  0.00  0.00    +0.000 A 
ATOM     27  C   UNL     1       3.176   4.948  17.655  0.00  0.00    +0.000 A 
BRANCH  22  29
ATOM     28  C   UNL     1       1.794   5.741  20.463  0.00  0.00    +0.000 C 
ATOM     29  O   UNL     1       2.200   4.513  19.868  0.00  0.00    +0.000 OA
ENDBRANCH  22  29
ENDBRANCH  19  25
ENDBRANCH  17  19
ENDBRANCH  16  17
ENDBRANCH   1  16
TORSDOF 7
ENDMDL
