MODEL 1
REMARK VINA RESULT:      -7.8      0.000      0.000
REMARK  Name = 
REMARK  8 active torsions:
REMARK  status: ('A' for Active; 'I' for Inactive)
REMARK    1  A    between atoms: C_1  and  C_2
REMARK    2  A    between atoms: C_2  and  C_3
REMARK    3  A    between atoms: C_4  and  C_5
REMARK    4  A    between atoms: C_5  and  N_6
REMARK    5  A    between atoms: N_19  and  C_20
REMARK    6  A    between atoms: C_20  and  C_21
REMARK    7  A    between atoms: C_21  and  C_23
REMARK    8  A    between atoms: N_31  and  C_32
REMARK                            x       y       z     vdW  Elec       q    Type
REMARK                         _______ _______ _______ _____ _____    ______ ____
ROOT
ATOM      1  N   UNL     1       2.265   7.330  18.722  0.00  0.00    +0.000 N 
ATOM      2  C   UNL     1       2.157   6.411  19.768  0.00  0.00    +0.000 A 
ATOM      3  N   UNL     1       2.532   5.101  19.646  0.00  0.00    +0.000 N 
ATOM      4  C   UNL     1       3.077   4.429  20.850  0.00  0.00    +0.000 C 
ATOM      5  C   UNL     1       2.035   3.557  21.593  0.00  0.00    +0.000 C 
ATOM      6  N   UNL     1       1.341   2.598  20.713  0.00  0.00    +0.000 NA
ATOM      7  C   UNL     1       0.703   3.362  19.632  0.00  0.00    +0.000 C 
ATOM      8  C   UNL     1       1.707   4.201  18.816  0.00  0.00    +0.000 C 
ATOM      9  N   UNL     1       1.742   7.012  20.864  0.00  0.00    +0.000 NA
ATOM     10  C   UNL     1       1.521   8.305  20.504  0.00  0.00    +0.000 A 
ATOM     11  C   UNL     1       1.823   8.543  19.200  0.00  0.00    +0.000 A 
ATOM     12  C   UNL     1       1.640   9.824  18.585  0.00  0.00    +0.000 A 
ATOM     13  O   UNL     1       1.871  10.044  17.402  0.00  0.00    +0.000 OA
ATOM     14  N   UNL     1       1.102  10.786  19.458  0.00  0.00    +0.000 N 
ATOM     15  C   UNL     1       0.814  10.570  20.821  0.00  0.00    +0.000 A 
ATOM     16  O   UNL     1       0.351  11.479  21.519  0.00  0.00    +0.000 OA
ATOM     17  N   UNL     1       1.029   9.292  21.329  0.00  0.00    +0.000 N 
ATOM     18  C   UNL     1       0.690   8.967  22.702  0.00  0.00    +0.000 C 
ATOM     19  H   UNL     1       0.623   2.109  21.248  0.00  0.00    +0.000 HD
ENDROOT
BRANCH   1  20
ATOM     20  C   UNL     1       2.854   7.094  17.407  0.00  0.00    +0.000 C 
BRANCH  20  24
ATOM     21  C   UNL     1       6.692   6.439  17.098  0.00  0.00    +0.000 C 
ATOM     22  C   UNL     1       5.215   6.148  17.079  0.00  0.00    +0.000 C 
ATOM     23  C   UNL     1       4.780   4.783  16.636  0.00  0.00    +0.000 C 
ATOM     24  C   UNL     1       4.358   7.122  17.440  0.00  0.00    +0.000 C 
ENDBRANCH  20  24
ENDBRANCH   1  20
BRANCH  14  25
ATOM     25  C   UNL     1       0.678  12.069  18.892  0.00  0.00    +0.000 C 
BRANCH  25  26
ATOM     26  C   UNL     1      -0.835  12.324  18.864  0.00  0.00    +0.000 C 
ATOM     27  O   UNL     1      -1.376  13.222  19.508  0.00  0.00    +0.000 OA
BRANCH  26  28
ATOM     28  C   UNL     1      -1.673  11.426  17.990  0.00  0.00    +0.000 A 
ATOM     29  C   UNL     1      -1.902  11.786  16.652  0.00  0.00    +0.000 A 
ATOM     30  C   UNL     1      -2.735  11.009  15.836  0.00  0.00    +0.000 A 
ATOM     31  C   UNL     1      -3.333   9.856  16.342  0.00  0.00    +0.000 A 
ATOM     32  C   UNL     1      -3.079   9.466  17.656  0.00  0.00    +0.000 A 
ATOM     33  C   UNL     1      -2.251  10.242  18.474  0.00  0.00    +0.000 A 
ENDBRANCH  26  28
ENDBRANCH  25  26
ENDBRANCH  14  25
TORSDOF 5
ENDMDL
MODEL 2
REMARK VINA RESULT:      -7.5      1.897      3.052
REMARK  Name = 
REMARK  8 active torsions:
REMARK  status: ('A' for Active; 'I' for Inactive)
REMARK    1  A    between atoms: C_1  and  C_2
REMARK    2  A    between atoms: C_2  and  C_3
REMARK    3  A    between atoms: C_4  and  C_5
REMARK    4  A    between atoms: C_5  and  N_6
REMARK    5  A    between atoms: N_19  and  C_20
REMARK    6  A    between atoms: C_20  and  C_21
REMARK    7  A    between atoms: C_21  and  C_23
REMARK    8  A    between atoms: N_31  and  C_32
REMARK                            x       y       z     vdW  Elec       q    Type
REMARK                         _______ _______ _______ _____ _____    ______ ____
ROOT
ATOM      1  N   UNL     1       2.393   7.332  18.705  0.00  0.00    +0.000 N 
ATOM      2  C   UNL     1       2.173   6.408  19.728  0.00  0.00    +0.000 A 
ATOM      3  N   UNL     1       2.582   5.105  19.651  0.00  0.00    +0.000 N 
ATOM      4  C   UNL     1       2.987   4.436  20.911  0.00  0.00    +0.000 C 
ATOM      5  C   UNL     1       1.876   3.545  21.520  0.00  0.00    +0.000 C 
ATOM      6  N   UNL     1       1.311   2.578  20.560  0.00  0.00    +0.000 NA
ATOM      7  C   UNL     1       0.797   3.336  19.411  0.00  0.00    +0.000 C 
ATOM      8  C   UNL     1       1.879   4.194  18.725  0.00  0.00    +0.000 C 
ATOM      9  N   UNL     1       1.618   6.998  20.766  0.00  0.00    +0.000 NA
ATOM     10  C   UNL     1       1.421   8.289  20.383  0.00  0.00    +0.000 A 
ATOM     11  C   UNL     1       1.876   8.536  19.127  0.00  0.00    +0.000 A 
ATOM     12  C   UNL     1       1.749   9.816  18.497  0.00  0.00    +0.000 A 
ATOM     13  O   UNL     1       2.119  10.044  17.351  0.00  0.00    +0.000 OA
ATOM     14  N   UNL     1       1.092  10.766  19.298  0.00  0.00    +0.000 N 
ATOM     15  C   UNL     1       0.644  10.541  20.616  0.00  0.00    +0.000 A 
ATOM     16  O   UNL     1       0.084  11.439  21.253  0.00  0.00    +0.000 OA
ATOM     17  N   UNL     1       0.816   9.264  21.144  0.00  0.00    +0.000 N 
ATOM     18  C   UNL     1       0.317   8.929  22.465  0.00  0.00    +0.000 C 
ATOM     19  H   UNL     1       0.541   2.076  21.003  0.00  0.00    +0.000 HD
ENDROOT
BRANCH   1  20
ATOM     20  C   UNL     1       3.142   7.110  17.471  0.00  0.00    +0.000 C 
BRANCH  20  24
ATOM     21  C   UNL     1       7.030   6.799  17.277  0.00  0.00    +0.000 C 
ATOM     22  C   UNL     1       5.589   6.618  16.882  0.00  0.00    +0.000 C 
ATOM     23  C   UNL     1       5.305   5.935  15.577  0.00  0.00    +0.000 C 
ATOM     24  C   UNL     1       4.629   7.089  17.701  0.00  0.00    +0.000 C 
ENDBRANCH  20  24
ENDBRANCH   1  20
BRANCH  14  25
ATOM     25  C   UNL     1       0.720  12.044  18.686  0.00  0.00    +0.000 C 
BRANCH  25  26
ATOM     26  C   UNL     1       1.722  13.192  18.865  0.00  0.00    +0.000 C 
ATOM     27  O   UNL     1       2.921  13.010  19.076  0.00  0.00    +0.000 OA
BRANCH  26  28
ATOM     28  C   UNL     1       1.190  14.598  18.760  0.00  0.00    +0.000 A 
ATOM     29  C   UNL     1       2.081  15.656  18.511  0.00  0.00    +0.000 A 
ATOM     30  C   UNL     1       1.627  16.981  18.480  0.00  0.00    +0.000 A 
ATOM     31  C   UNL     1       0.276  17.262  18.678  0.00  0.00    +0.000 A 
ATOM     32  C   UNL     1      -0.624  16.218  18.884  0.00  0.00    +0.000 A 
ATOM     33  C   UNL     1      -0.172  14.895  18.920  0.00  0.00    +0.000 A 
ENDBRANCH  26  28
ENDBRANCH  25  26
ENDBRANCH  14  25
TORSDOF 5
ENDMDL
MODEL 3
REMARK VINA RESULT:      -7.2      1.393      2.230
REMARK  Name = 
REMARK  8 active torsions:
REMARK  status: ('A' for Active; 'I' for Inactive)
REMARK    1  A    between atoms: C_1  and  C_2
REMARK    2  A    between atoms: C_2  and  C_3
REMARK    3  A    between atoms: C_4  and  C_5
REMARK    4  A    between atoms: C_5  and  N_6
REMARK    5  A    between atoms: N_19  and  C_20
REMARK    6  A    between atoms: C_20  and  C_21
REMARK    7  A    between atoms: C_21  and  C_23
REMARK    8  A    between atoms: N_31  and  C_32
REMARK                            x       y       z     vdW  Elec       q    Type
REMARK                         _______ _______ _______ _____ _____    ______ ____
ROOT
ATOM      1  N   UNL     1       2.234   7.314  18.762  0.00  0.00    +0.000 N 
ATOM      2  C   UNL     1       2.158   6.393  19.809  0.00  0.00    +0.000 A 
ATOM      3  N   UNL     1       2.531   5.083  19.673  0.00  0.00    +0.000 N 
ATOM      4  C   UNL     1       3.112   4.409  20.859  0.00  0.00    +0.000 C 
ATOM      5  C   UNL     1       2.092   3.534  21.631  0.00  0.00    +0.000 C 
ATOM      6  N   UNL     1       1.374   2.576  20.769  0.00  0.00    +0.000 NA
ATOM      7  C   UNL     1       0.704   3.342  19.709  0.00  0.00    +0.000 C 
ATOM      8  C   UNL     1       1.683   4.183  18.865  0.00  0.00    +0.000 C 
ATOM      9  N   UNL     1       1.774   6.991  20.917  0.00  0.00    +0.000 NA
ATOM     10  C   UNL     1       1.541   8.284  20.566  0.00  0.00    +0.000 A 
ATOM     11  C   UNL     1       1.804   8.525  19.255  0.00  0.00    +0.000 A 
ATOM     12  C   UNL     1       1.603   9.807  18.648  0.00  0.00    +0.000 A 
ATOM     13  O   UNL     1       1.799  10.030  17.459  0.00  0.00    +0.000 OA
ATOM     14  N   UNL     1       1.089  10.767  19.538  0.00  0.00    +0.000 N 
ATOM     15  C   UNL     1       0.841  10.548  20.909  0.00  0.00    +0.000 A 
ATOM     16  O   UNL     1       0.397  11.454  21.622  0.00  0.00    +0.000 OA
ATOM     17  N   UNL     1       1.072   9.268  21.407  0.00  0.00    +0.000 N 
ATOM     18  C   UNL     1       0.773   8.940  22.789  0.00  0.00    +0.000 C 
ATOM     19  H   UNL     1       0.673   2.086  21.324  0.00  0.00    +0.000 HD
ENDROOT
BRANCH   1  20
ATOM     20  C   UNL     1       2.785   7.081  17.430  0.00  0.00    +0.000 C 
BRANCH  20  24
ATOM     21  C   UNL     1       6.622   6.469  17.034  0.00  0.00    +0.000 C 
ATOM     22  C   UNL     1       5.150   6.155  17.074  0.00  0.00    +0.000 C 
ATOM     23  C   UNL     1       4.725   4.764  16.709  0.00  0.00    +0.000 C 
ATOM     24  C   UNL     1       4.289   7.132  17.416  0.00  0.00    +0.000 C 
ENDBRANCH  20  24
ENDBRANCH   1  20
BRANCH  14  25
ATOM     25  C   UNL     1       0.647  12.050  18.987  0.00  0.00    +0.000 C 
BRANCH  25  26
ATOM     26  C   UNL     1      -0.846  12.157  18.647  0.00  0.00    +0.000 C 
ATOM     27  O   UNL     1      -1.350  11.619  17.663  0.00  0.00    +0.000 OA
BRANCH  26  28
ATOM     28  C   UNL     1      -1.714  12.955  19.586  0.00  0.00    +0.000 A 
ATOM     29  C   UNL     1      -3.002  12.488  19.898  0.00  0.00    +0.000 A 
ATOM     30  C   UNL     1      -3.858  13.243  20.710  0.00  0.00    +0.000 A 
ATOM     31  C   UNL     1      -3.431  14.462  21.235  0.00  0.00    +0.000 A 
ATOM     32  C   UNL     1      -2.141  14.916  20.967  0.00  0.00    +0.000 A 
ATOM     33  C   UNL     1      -1.285  14.166  20.152  0.00  0.00    +0.000 A 
ENDBRANCH  26  28
ENDBRANCH  25  26
ENDBRANCH  14  25
TORSDOF 5
ENDMDL
MODEL 4
REMARK VINA RESULT:      -7.2      1.966      2.556
REMARK  Name = 
REMARK  8 active torsions:
REMARK  status: ('A' for Active; 'I' for Inactive)
REMARK    1  A    between atoms: C_1  and  C_2
REMARK    2  A    between atoms: C_2  and  C_3
REMARK    3  A    between atoms: C_4  and  C_5
REMARK    4  A    between atoms: C_5  and  N_6
REMARK    5  A    between atoms: N_19  and  C_20
REMARK    6  A    between atoms: C_20  and  C_21
REMARK    7  A    between atoms: C_21  and  C_23
REMARK    8  A    between atoms: N_31  and  C_32
REMARK                            x       y       z     vdW  Elec       q    Type
REMARK                         _______ _______ _______ _____ _____    ______ ____
ROOT
ATOM      1  N   UNL     1       3.596   6.616  17.902  0.00  0.00    +0.000 N 
ATOM      2  C   UNL     1       3.593   5.458  18.683  0.00  0.00    +0.000 A 
ATOM      3  N   UNL     1       4.356   4.362  18.386  0.00  0.00    +0.000 N 
ATOM      4  C   UNL     1       4.868   3.555  19.521  0.00  0.00    +0.000 C 
ATOM      5  C   UNL     1       4.024   2.288  19.805  0.00  0.00    +0.000 C 
ATOM      6  N   UNL     1       3.804   1.451  18.610  0.00  0.00    +0.000 NA
ATOM      7  C   UNL     1       3.158   2.288  17.590  0.00  0.00    +0.000 C 
ATOM      8  C   UNL     1       3.988   3.534  17.220  0.00  0.00    +0.000 C 
ATOM      9  N   UNL     1       2.841   5.628  19.750  0.00  0.00    +0.000 NA
ATOM     10  C   UNL     1       2.308   6.873  19.621  0.00  0.00    +0.000 A 
ATOM     11  C   UNL     1       2.738   7.511  18.501  0.00  0.00    +0.000 A 
ATOM     12  C   UNL     1       2.288   8.821  18.136  0.00  0.00    +0.000 A 
ATOM     13  O   UNL     1       2.637   9.394  17.110  0.00  0.00    +0.000 OA
ATOM     14  N   UNL     1       1.350   9.356  19.036  0.00  0.00    +0.000 N 
ATOM     15  C   UNL     1       0.916   8.725  20.221  0.00  0.00    +0.000 A 
ATOM     16  O   UNL     1       0.093   9.275  20.962  0.00  0.00    +0.000 OA
ATOM     17  N   UNL     1       1.414   7.454  20.492  0.00  0.00    +0.000 N 
ATOM     18  C   UNL     1       0.962   6.707  21.651  0.00  0.00    +0.000 C 
ATOM     19  H   UNL     1       3.186   0.677  18.850  0.00  0.00    +0.000 HD
ENDROOT
BRANCH   1  20
ATOM     20  C   UNL     1       4.439   6.886  16.741  0.00  0.00    +0.000 C 
BRANCH  20  24
ATOM     21  C   UNL     1       8.035   8.152  17.590  0.00  0.00    +0.000 C 
ATOM     22  C   UNL     1       6.914   7.177  17.349  0.00  0.00    +0.000 C 
ATOM     23  C   UNL     1       7.245   5.715  17.377  0.00  0.00    +0.000 C 
ATOM     24  C   UNL     1       5.680   7.657  17.103  0.00  0.00    +0.000 C 
ENDBRANCH  20  24
ENDBRANCH   1  20
BRANCH  14  25
ATOM     25  C   UNL     1       0.664  10.594  18.661  0.00  0.00    +0.000 C 
BRANCH  25  26
ATOM     26  C   UNL     1      -0.761  10.434  18.113  0.00  0.00    +0.000 C 
ATOM     27  O   UNL     1      -1.045   9.661  17.199  0.00  0.00    +0.000 OA
BRANCH  26  28
ATOM     28  C   UNL     1      -1.845  11.265  18.750  0.00  0.00    +0.000 A 
ATOM     29  C   UNL     1      -1.535  12.073  19.856  0.00  0.00    +0.000 A 
ATOM     30  C   UNL     1      -2.536  12.800  20.513  0.00  0.00    +0.000 A 
ATOM     31  C   UNL     1      -3.853  12.743  20.062  0.00  0.00    +0.000 A 
ATOM     32  C   UNL     1      -4.166  11.978  18.939  0.00  0.00    +0.000 A 
ATOM     33  C   UNL     1      -3.169  11.247  18.285  0.00  0.00    +0.000 A 
ENDBRANCH  26  28
ENDBRANCH  25  26
ENDBRANCH  14  25
TORSDOF 5
ENDMDL
MODEL 5
REMARK VINA RESULT:      -7.2      2.528      5.157
REMARK  Name = 
REMARK  8 active torsions:
REMARK  status: ('A' for Active; 'I' for Inactive)
REMARK    1  A    between atoms: C_1  and  C_2
REMARK    2  A    between atoms: C_2  and  C_3
REMARK    3  A    between atoms: C_4  and  C_5
REMARK    4  A    between atoms: C_5  and  N_6
REMARK    5  A    between atoms: N_19  and  C_20
REMARK    6  A    between atoms: C_20  and  C_21
REMARK    7  A    between atoms: C_21  and  C_23
REMARK    8  A    between atoms: N_31  and  C_32
REMARK                            x       y       z     vdW  Elec       q    Type
REMARK                         _______ _______ _______ _____ _____    ______ ____
ROOT
ATOM      1  N   UNL     1       3.141   6.085  19.314  0.00  0.00    +0.000 N 
ATOM      2  C   UNL     1       3.935   6.503  18.244  0.00  0.00    +0.000 A 
ATOM      3  N   UNL     1       4.941   5.737  17.723  0.00  0.00    +0.000 N 
ATOM      4  C   UNL     1       5.211   5.853  16.269  0.00  0.00    +0.000 C 
ATOM      5  C   UNL     1       6.404   6.784  15.938  0.00  0.00    +0.000 C 
ATOM      6  N   UNL     1       7.631   6.450  16.684  0.00  0.00    +0.000 NA
ATOM      7  C   UNL     1       7.313   6.504  18.117  0.00  0.00    +0.000 C 
ATOM      8  C   UNL     1       6.172   5.547  18.516  0.00  0.00    +0.000 C 
ATOM      9  N   UNL     1       3.509   7.661  17.784  0.00  0.00    +0.000 NA
ATOM     10  C   UNL     1       2.482   8.018  18.602  0.00  0.00    +0.000 A 
ATOM     11  C   UNL     1       2.226   7.085  19.555  0.00  0.00    +0.000 A 
ATOM     12  C   UNL     1       1.210   7.255  20.551  0.00  0.00    +0.000 A 
ATOM     13  O   UNL     1       0.993   6.440  21.441  0.00  0.00    +0.000 OA
ATOM     14  N   UNL     1       0.534   8.483  20.449  0.00  0.00    +0.000 N 
ATOM     15  C   UNL     1       0.760   9.450  19.448  0.00  0.00    +0.000 A 
ATOM     16  O   UNL     1       0.110  10.500  19.428  0.00  0.00    +0.000 OA
ATOM     17  N   UNL     1       1.767   9.191  18.521  0.00  0.00    +0.000 N 
ATOM     18  C   UNL     1       2.112  10.167  17.503  0.00  0.00    +0.000 C 
ATOM     19  H   UNL     1       8.351   7.140  16.473  0.00  0.00    +0.000 HD
ENDROOT
BRANCH   1  20
ATOM     20  C   UNL     1       3.179   4.783  19.975  0.00  0.00    +0.000 C 
BRANCH  20  24
ATOM     21  C   UNL     1       0.571   2.047  18.994  0.00  0.00    +0.000 C 
ATOM     22  C   UNL     1       1.446   2.896  19.877  0.00  0.00    +0.000 C 
ATOM     23  C   UNL     1       1.311   2.725  21.361  0.00  0.00    +0.000 C 
ATOM     24  C   UNL     1       2.289   3.773  19.302  0.00  0.00    +0.000 C 
ENDBRANCH  20  24
ENDBRANCH   1  20
BRANCH  14  25
ATOM     25  C   UNL     1      -0.378   8.859  21.532  0.00  0.00    +0.000 C 
BRANCH  25  26
ATOM     26  C   UNL     1       0.148   9.911  22.518  0.00  0.00    +0.000 C 
ATOM     27  O   UNL     1       1.176   9.759  23.177  0.00  0.00    +0.000 OA
BRANCH  26  28
ATOM     28  C   UNL     1      -0.645  11.185  22.660  0.00  0.00    +0.000 A 
ATOM     29  C   UNL     1      -1.907  11.147  23.275  0.00  0.00    +0.000 A 
ATOM     30  C   UNL     1      -2.697  12.301  23.356  0.00  0.00    +0.000 A 
ATOM     31  C   UNL     1      -2.229  13.508  22.841  0.00  0.00    +0.000 A 
ATOM     32  C   UNL     1      -0.960  13.568  22.265  0.00  0.00    +0.000 A 
ATOM     33  C   UNL     1      -0.171  12.416  22.179  0.00  0.00    +0.000 A 
ENDBRANCH  26  28
ENDBRANCH  25  26
ENDBRANCH  14  25
TORSDOF 5
ENDMDL
MODEL 6
REMARK VINA RESULT:      -7.0      2.127      3.382
REMARK  Name = 
REMARK  8 active torsions:
REMARK  status: ('A' for Active; 'I' for Inactive)
REMARK    1  A    between atoms: C_1  and  C_2
REMARK    2  A    between atoms: C_2  and  C_3
REMARK    3  A    between atoms: C_4  and  C_5
REMARK    4  A    between atoms: C_5  and  N_6
REMARK    5  A    between atoms: N_19  and  C_20
REMARK    6  A    between atoms: C_20  and  C_21
REMARK    7  A    between atoms: C_21  and  C_23
REMARK    8  A    between atoms: N_31  and  C_32
REMARK                            x       y       z     vdW  Elec       q    Type
REMARK                         _______ _______ _______ _____ _____    ______ ____
ROOT
ATOM      1  N   UNL     1       2.576   7.603  18.519  0.00  0.00    +0.000 N 
ATOM      2  C   UNL     1       2.269   6.505  19.326  0.00  0.00    +0.000 A 
ATOM      3  N   UNL     1       2.702   5.237  19.049  0.00  0.00    +0.000 N 
ATOM      4  C   UNL     1       2.990   4.345  20.198  0.00  0.00    +0.000 C 
ATOM      5  C   UNL     1       1.837   3.361  20.518  0.00  0.00    +0.000 C 
ATOM      6  N   UNL     1       1.382   2.592  19.344  0.00  0.00    +0.000 NA
ATOM      7  C   UNL     1       0.974   3.552  18.310  0.00  0.00    +0.000 C 
ATOM      8  C   UNL     1       2.107   4.518  17.905  0.00  0.00    +0.000 C 
ATOM      9  N   UNL     1       1.606   6.895  20.395  0.00  0.00    +0.000 NA
ATOM     10  C   UNL     1       1.430   8.235  20.240  0.00  0.00    +0.000 A 
ATOM     11  C   UNL     1       2.003   8.709  19.103  0.00  0.00    +0.000 A 
ATOM     12  C   UNL     1       1.921  10.085  18.711  0.00  0.00    +0.000 A 
ATOM     13  O   UNL     1       2.400  10.520  17.670  0.00  0.00    +0.000 OA
ATOM     14  N   UNL     1       1.176  10.873  19.606  0.00  0.00    +0.000 N 
ATOM     15  C   UNL     1       0.602  10.409  20.808  0.00  0.00    +0.000 A 
ATOM     16  O   UNL     1      -0.030  11.176  21.542  0.00  0.00    +0.000 OA
ATOM     17  N   UNL     1       0.740   9.055  21.104  0.00  0.00    +0.000 N 
ATOM     18  C   UNL     1       0.117   8.483  22.284  0.00  0.00    +0.000 C 
ATOM     19  H   UNL     1       0.580   2.020  19.607  0.00  0.00    +0.000 HD
ENDROOT
BRANCH   1  20
ATOM     20  C   UNL     1       3.446   7.610  17.346  0.00  0.00    +0.000 C 
BRANCH  20  24
ATOM     21  C   UNL     1       7.164   6.422  17.486  0.00  0.00    +0.000 C 
ATOM     22  C   UNL     1       5.743   6.523  17.000  0.00  0.00    +0.000 C 
ATOM     23  C   UNL     1       5.380   5.776  15.752  0.00  0.00    +0.000 C 
ATOM     24  C   UNL     1       4.875   7.285  17.691  0.00  0.00    +0.000 C 
ENDBRANCH  20  24
ENDBRANCH   1  20
BRANCH  14  25
ATOM     25  C   UNL     1       0.848  12.243  19.208  0.00  0.00    +0.000 C 
BRANCH  25  26
ATOM     26  C   UNL     1       1.659  13.354  19.890  0.00  0.00    +0.000 C 
ATOM     27  O   UNL     1       1.938  13.342  21.088  0.00  0.00    +0.000 OA
BRANCH  26  28
ATOM     28  C   UNL     1       2.133  14.495  19.026  0.00  0.00    +0.000 A 
ATOM     29  C   UNL     1       1.442  15.718  19.060  0.00  0.00    +0.000 A 
ATOM     30  C   UNL     1       1.815  16.772  18.216  0.00  0.00    +0.000 A 
ATOM     31  C   UNL     1       2.892  16.624  17.344  0.00  0.00    +0.000 A 
ATOM     32  C   UNL     1       3.611  15.430  17.331  0.00  0.00    +0.000 A 
ATOM     33  C   UNL     1       3.238  14.374  18.170  0.00  0.00    +0.000 A 
ENDBRANCH  26  28
ENDBRANCH  25  26
ENDBRANCH  14  25
TORSDOF 5
ENDMDL
MODEL 7
REMARK VINA RESULT:      -7.0      2.552      4.985
REMARK  Name = 
REMARK  8 active torsions:
REMARK  status: ('A' for Active; 'I' for Inactive)
REMARK    1  A    between atoms: C_1  and  C_2
REMARK    2  A    between atoms: C_2  and  C_3
REMARK    3  A    between atoms: C_4  and  C_5
REMARK    4  A    between atoms: C_5  and  N_6
REMARK    5  A    between atoms: N_19  and  C_20
REMARK    6  A    between atoms: C_20  and  C_21
REMARK    7  A    between atoms: C_21  and  C_23
REMARK    8  A    between atoms: N_31  and  C_32
REMARK                            x       y       z     vdW  Elec       q    Type
REMARK                         _______ _______ _______ _____ _____    ______ ____
ROOT
ATOM      1  N   UNL     1       3.175   6.016  19.375  0.00  0.00    +0.000 N 
ATOM      2  C   UNL     1       3.952   6.412  18.284  0.00  0.00    +0.000 A 
ATOM      3  N   UNL     1       4.962   5.643  17.775  0.00  0.00    +0.000 N 
ATOM      4  C   UNL     1       5.215   5.720  16.316  0.00  0.00    +0.000 C 
ATOM      5  C   UNL     1       6.393   6.655  15.944  0.00  0.00    +0.000 C 
ATOM      6  N   UNL     1       7.632   6.357  16.686  0.00  0.00    +0.000 NA
ATOM      7  C   UNL     1       7.329   6.449  18.120  0.00  0.00    +0.000 C 
ATOM      8  C   UNL     1       6.204   5.491  18.560  0.00  0.00    +0.000 C 
ATOM      9  N   UNL     1       3.508   7.551  17.796  0.00  0.00    +0.000 NA
ATOM     10  C   UNL     1       2.486   7.920  18.615  0.00  0.00    +0.000 A 
ATOM     11  C   UNL     1       2.251   7.012  19.598  0.00  0.00    +0.000 A 
ATOM     12  C   UNL     1       1.244   7.200  20.599  0.00  0.00    +0.000 A 
ATOM     13  O   UNL     1       1.047   6.409  21.515  0.00  0.00    +0.000 OA
ATOM     14  N   UNL     1       0.552   8.417  20.469  0.00  0.00    +0.000 N 
ATOM     15  C   UNL     1       0.756   9.356  19.437  0.00  0.00    +0.000 A 
ATOM     16  O   UNL     1       0.093  10.398  19.394  0.00  0.00    +0.000 OA
ATOM     17  N   UNL     1       1.756   9.083  18.507  0.00  0.00    +0.000 N 
ATOM     18  C   UNL     1       2.079  10.032  17.458  0.00  0.00    +0.000 C 
ATOM     19  H   UNL     1       8.342   7.049  16.447  0.00  0.00    +0.000 HD
ENDROOT
BRANCH   1  20
ATOM     20  C   UNL     1       3.236   4.736  20.073  0.00  0.00    +0.000 C 
BRANCH  20  24
ATOM     21  C   UNL     1       0.587   2.199  18.731  0.00  0.00    +0.000 C 
ATOM     22  C   UNL     1       1.829   3.049  18.749  0.00  0.00    +0.000 C 
ATOM     23  C   UNL     1       2.784   2.911  17.601  0.00  0.00    +0.000 C 
ATOM     24  C   UNL     1       2.034   3.874  19.793  0.00  0.00    +0.000 C 
ENDBRANCH  20  24
ENDBRANCH   1  20
BRANCH  14  25
ATOM     25  C   UNL     1      -0.352   8.814  21.550  0.00  0.00    +0.000 C 
BRANCH  25  26
ATOM     26  C   UNL     1       0.177   9.890  22.508  0.00  0.00    +0.000 C 
ATOM     27  O   UNL     1       1.188   9.741  23.193  0.00  0.00    +0.000 OA
BRANCH  26  28
ATOM     28  C   UNL     1      -0.590  11.185  22.586  0.00  0.00    +0.000 A 
ATOM     29  C   UNL     1      -0.051  12.343  22.000  0.00  0.00    +0.000 A 
ATOM     30  C   UNL     1      -0.705  13.575  22.119  0.00  0.00    +0.000 A 
ATOM     31  C   UNL     1      -1.915  13.662  22.806  0.00  0.00    +0.000 A 
ATOM     32  C   UNL     1      -2.481  12.513  23.356  0.00  0.00    +0.000 A 
ATOM     33  C   UNL     1      -1.827  11.282  23.243  0.00  0.00    +0.000 A 
ENDBRANCH  26  28
ENDBRANCH  25  26
ENDBRANCH  14  25
TORSDOF 5
ENDMDL
MODEL 8
REMARK VINA RESULT:      -6.9      1.507      2.157
REMARK  Name = 
REMARK  8 active torsions:
REMARK  status: ('A' for Active; 'I' for Inactive)
REMARK    1  A    between atoms: C_1  and  C_2
REMARK    2  A    between atoms: C_2  and  C_3
REMARK    3  A    between atoms: C_4  and  C_5
REMARK    4  A    between atoms: C_5  and  N_6
REMARK    5  A    between atoms: N_19  and  C_20
REMARK    6  A    between atoms: C_20  and  C_21
REMARK    7  A    between atoms: C_21  and  C_23
REMARK    8  A    between atoms: N_31  and  C_32
REMARK                            x       y       z     vdW  Elec       q    Type
REMARK                         _______ _______ _______ _____ _____    ______ ____
ROOT
ATOM      1  N   UNL     1       2.717   7.119  18.306  0.00  0.00    +0.000 N 
ATOM      2  C   UNL     1       2.590   6.065  19.212  0.00  0.00    +0.000 A 
ATOM      3  N   UNL     1       3.119   4.824  18.985  0.00  0.00    +0.000 N 
ATOM      4  C   UNL     1       3.592   4.053  20.160  0.00  0.00    +0.000 C 
ATOM      5  C   UNL     1       2.573   2.997  20.654  0.00  0.00    +0.000 C 
ATOM      6  N   UNL     1       2.096   2.100  19.584  0.00  0.00    +0.000 NA
ATOM      7  C   UNL     1       1.507   2.936  18.529  0.00  0.00    +0.000 C 
ATOM      8  C   UNL     1       2.500   3.966  17.954  0.00  0.00    +0.000 C 
ATOM      9  N   UNL     1       1.987   6.474  20.309  0.00  0.00    +0.000 NA
ATOM     10  C   UNL     1       1.667   7.777  20.079  0.00  0.00    +0.000 A 
ATOM     11  C   UNL     1       2.090   8.211  18.863  0.00  0.00    +0.000 A 
ATOM     12  C   UNL     1       1.840   9.539  18.387  0.00  0.00    +0.000 A 
ATOM     13  O   UNL     1       2.181   9.934  17.278  0.00  0.00    +0.000 OA
ATOM     14  N   UNL     1       1.102  10.323  19.291  0.00  0.00    +0.000 N 
ATOM     15  C   UNL     1       0.683   9.903  20.570  0.00  0.00    +0.000 A 
ATOM     16  O   UNL     1       0.045  10.664  21.305  0.00  0.00    +0.000 OA
ATOM     17  N   UNL     1       0.978   8.595  20.945  0.00  0.00    +0.000 N 
ATOM     18  C   UNL     1       0.519   8.062  22.215  0.00  0.00    +0.000 C 
ATOM     19  H   UNL     1       1.379   1.480  19.960  0.00  0.00    +0.000 HD
ENDROOT
BRANCH   1  20
ATOM     20  C   UNL     1       3.476   7.115  17.059  0.00  0.00    +0.000 C 
BRANCH  20  24
ATOM     21  C   UNL     1       7.312   6.379  17.037  0.00  0.00    +0.000 C 
ATOM     22  C   UNL     1       5.850   6.202  16.726  0.00  0.00    +0.000 C 
ATOM     23  C   UNL     1       5.467   5.104  15.779  0.00  0.00    +0.000 C 
ATOM     24  C   UNL     1       4.961   7.039  17.294  0.00  0.00    +0.000 C 
ENDBRANCH  20  24
ENDBRANCH   1  20
BRANCH  14  25
ATOM     25  C   UNL     1       0.608  11.622  18.831  0.00  0.00    +0.000 C 
BRANCH  25  26
ATOM     26  C   UNL     1      -0.879  11.680  18.453  0.00  0.00    +0.000 C 
ATOM     27  O   UNL     1      -1.355  11.056  17.505  0.00  0.00    +0.000 OA
BRANCH  26  28
ATOM     28  C   UNL     1      -1.777  12.540  19.304  0.00  0.00    +0.000 A 
ATOM     29  C   UNL     1      -1.235  13.647  19.979  0.00  0.00    +0.000 A 
ATOM     30  C   UNL     1      -2.028  14.422  20.834  0.00  0.00    +0.000 A 
ATOM     31  C   UNL     1      -3.376  14.112  21.011  0.00  0.00    +0.000 A 
ATOM     32  C   UNL     1      -3.936  13.041  20.315  0.00  0.00    +0.000 A 
ATOM     33  C   UNL     1      -3.144  12.263  19.464  0.00  0.00    +0.000 A 
ENDBRANCH  26  28
ENDBRANCH  25  26
ENDBRANCH  14  25
TORSDOF 5
ENDMDL
MODEL 9
REMARK VINA RESULT:      -6.8      2.283      3.391
REMARK  Name = 
REMARK  8 active torsions:
REMARK  status: ('A' for Active; 'I' for Inactive)
REMARK    1  A    between atoms: C_1  and  C_2
REMARK    2  A    between atoms: C_2  and  C_3
REMARK    3  A    between atoms: C_4  and  C_5
REMARK    4  A    between atoms: C_5  and  N_6
REMARK    5  A    between atoms: N_19  and  C_20
REMARK    6  A    between atoms: C_20  and  C_21
REMARK    7  A    between atoms: C_21  and  C_23
REMARK    8  A    between atoms: N_31  and  C_32
REMARK                            x       y       z     vdW  Elec       q    Type
REMARK                         _______ _______ _______ _____ _____    ______ ____
ROOT
ATOM      1  N   UNL     1       3.220   6.767  18.017  0.00  0.00    +0.000 N 
ATOM      2  C   UNL     1       3.041   5.662  18.851  0.00  0.00    +0.000 A 
ATOM      3  N   UNL     1       3.631   4.451  18.615  0.00  0.00    +0.000 N 
ATOM      4  C   UNL     1       4.012   3.632  19.791  0.00  0.00    +0.000 C 
ATOM      5  C   UNL     1       2.985   2.521  20.126  0.00  0.00    +0.000 C 
ATOM      6  N   UNL     1       2.646   1.671  18.969  0.00  0.00    +0.000 NA
ATOM      7  C   UNL     1       2.136   2.545  17.904  0.00  0.00    +0.000 C 
ATOM      8  C   UNL     1       3.146   3.633  17.485  0.00  0.00    +0.000 C 
ATOM      9  N   UNL     1       2.320   5.995  19.902  0.00  0.00    +0.000 NA
ATOM     10  C   UNL     1       1.981   7.298  19.708  0.00  0.00    +0.000 A 
ATOM     11  C   UNL     1       2.506   7.809  18.564  0.00  0.00    +0.000 A 
ATOM     12  C   UNL     1       2.260   9.153  18.133  0.00  0.00    +0.000 A 
ATOM     13  O   UNL     1       2.695   9.617  17.085  0.00  0.00    +0.000 OA
ATOM     14  N   UNL     1       1.410   9.866  18.998  0.00  0.00    +0.000 N 
ATOM     15  C   UNL     1       0.882   9.366  20.206  0.00  0.00    +0.000 A 
ATOM     16  O   UNL     1       0.150  10.067  20.912  0.00  0.00    +0.000 OA
ATOM     17  N   UNL     1       1.182   8.048  20.542  0.00  0.00    +0.000 N 
ATOM     18  C   UNL     1       0.619   7.434  21.730  0.00  0.00    +0.000 C 
ATOM     19  H   UNL     1       1.917   1.011  19.240  0.00  0.00    +0.000 HD
ENDROOT
BRANCH   1  20
ATOM     20  C   UNL     1       4.099   6.852  16.853  0.00  0.00    +0.000 C 
BRANCH  20  24
ATOM     21  C   UNL     1       7.849   7.669  17.577  0.00  0.00    +0.000 C 
ATOM     22  C   UNL     1       6.615   6.837  17.347  0.00  0.00    +0.000 C 
ATOM     23  C   UNL     1       6.780   5.348  17.291  0.00  0.00    +0.000 C 
ATOM     24  C   UNL     1       5.433   7.462  17.187  0.00  0.00    +0.000 C 
ENDBRANCH  20  24
ENDBRANCH   1  20
BRANCH  14  25
ATOM     25  C   UNL     1       0.920  11.174  18.558  0.00  0.00    +0.000 C 
BRANCH  25  26
ATOM     26  C   UNL     1       1.854  12.364  18.818  0.00  0.00    +0.000 C 
ATOM     27  O   UNL     1       2.832  12.615  18.115  0.00  0.00    +0.000 OA
BRANCH  26  28
ATOM     28  C   UNL     1       1.529  13.256  19.988  0.00  0.00    +0.000 A 
ATOM     29  C   UNL     1       0.191  13.401  20.394  0.00  0.00    +0.000 A 
ATOM     30  C   UNL     1      -0.150  14.279  21.430  0.00  0.00    +0.000 A 
ATOM     31  C   UNL     1       0.841  15.007  22.086  0.00  0.00    +0.000 A 
ATOM     32  C   UNL     1       2.177  14.841  21.720  0.00  0.00    +0.000 A 
ATOM     33  C   UNL     1       2.519  13.969  20.682  0.00  0.00    +0.000 A 
ENDBRANCH  26  28
ENDBRANCH  25  26
ENDBRANCH  14  25
TORSDOF 5
ENDMDL
