MODEL 1
REMARK VINA RESULT:      -7.0      0.000      0.000
REMARK  Name = 
REMARK  9 active torsions:
REMARK  status: ('A' for Active; 'I' for Inactive)
REMARK    1  A    between atoms: C_2  and  O_3
REMARK    2  A    between atoms: C_2  and  C_4
REMARK    3  A    between atoms: C_6  and  C_7
REMARK    4  A    between atoms: C_15  and  O_16
REMARK    5  A    between atoms: O_16  and  C_17
REMARK    6  A    between atoms: C_17  and  C_18
REMARK    7  A    between atoms: C_18  and  C_19
REMARK    8  A    between atoms: C_19  and  C_20
REMARK    9  A    between atoms: C_20  and  O_21
REMARK                            x       y       z     vdW  Elec       q    Type
REMARK                         _______ _______ _______ _____ _____    ______ ____
ROOT
ATOM      1  C   UNL     1       7.521   6.756  17.532  0.00  0.00    +0.000 C 
ATOM      2  C   UNL     1       6.823   5.977  18.370  0.00  0.00    +0.000 C 
ATOM      3  C   UNL     1       6.298   4.619  17.998  0.00  0.00    +0.000 C 
ATOM      4  C   UNL     1       7.024   4.141  16.728  0.00  0.00    +0.000 C 
ATOM      5  C   UNL     1       7.186   5.266  15.701  0.00  0.00    +0.000 C 
ATOM      6  O   UNL     1       7.866   6.408  16.241  0.00  0.00    +0.000 OA
ENDROOT
BRANCH   3   7
ATOM      7  C   UNL     1       4.770   4.546  17.906  0.00  0.00    +0.000 A 
ATOM      8  C   UNL     1       3.940   5.650  18.184  0.00  0.00    +0.000 A 
ATOM      9  C   UNL     1       2.551   5.561  18.061  0.00  0.00    +0.000 A 
ATOM     10  C   UNL     1       1.976   4.366  17.662  0.00  0.00    +0.000 A 
ATOM     11  F   UNL     1       0.648   4.292  17.501  0.00  0.00    +0.000 F 
ATOM     12  C   UNL     1       2.760   3.246  17.423  0.00  0.00    +0.000 A 
ATOM     13  C   UNL     1       4.149   3.332  17.558  0.00  0.00    +0.000 A 
ENDBRANCH   3   7
BRANCH   1  15
ATOM     14  O   UNL     1       7.607   9.171  17.495  0.00  0.00    +0.000 OA
ATOM     15  C   UNL     1       7.937   8.113  18.004  0.00  0.00    +0.000 C 
BRANCH  15  16
ATOM     16  O   UNL     1       8.758   8.016  19.074  0.00  0.00    +0.000 OA
ATOM     17  H   UNL     1       9.681   8.206  18.809  0.00  0.00    +0.000 HD
ENDBRANCH  15  16
ENDBRANCH   1  15
BRANCH   5  18
ATOM     18  O   UNL     1       5.922   5.607  15.131  0.00  0.00    +0.000 OA
BRANCH  18  19
ATOM     19  C   UNL     1       5.395   4.568  14.306  0.00  0.00    +0.000 C 
BRANCH  19  20
ATOM     20  C   UNL     1       6.442   4.145  13.276  0.00  0.00    +0.000 C 
BRANCH  20  21
ATOM     21  C   UNL     1       5.869   3.160  12.260  0.00  0.00    +0.000 C 
BRANCH  21  22
ATOM     22  C   UNL     1       6.957   2.444  11.475  0.00  0.00    +0.000 C 
BRANCH  22  23
ATOM     23  O   UNL     1       6.499   1.150  11.105  0.00  0.00    +0.000 OA
ATOM     24  H   UNL     1       6.296   0.672  11.927  0.00  0.00    +0.000 HD
ENDBRANCH  22  23
ENDBRANCH  21  22
ENDBRANCH  20  21
ENDBRANCH  19  20
ENDBRANCH  18  19
ENDBRANCH   5  18
TORSDOF 9
ENDMDL
MODEL 2
REMARK VINA RESULT:      -7.0      3.547      6.451
REMARK  Name = 
REMARK  9 active torsions:
REMARK  status: ('A' for Active; 'I' for Inactive)
REMARK    1  A    between atoms: C_2  and  O_3
REMARK    2  A    between atoms: C_2  and  C_4
REMARK    3  A    between atoms: C_6  and  C_7
REMARK    4  A    between atoms: C_15  and  O_16
REMARK    5  A    between atoms: O_16  and  C_17
REMARK    6  A    between atoms: C_17  and  C_18
REMARK    7  A    between atoms: C_18  and  C_19
REMARK    8  A    between atoms: C_19  and  C_20
REMARK    9  A    between atoms: C_20  and  O_21
REMARK                            x       y       z     vdW  Elec       q    Type
REMARK                         _______ _______ _______ _____ _____    ______ ____
ROOT
ATOM      1  C   UNL     1       5.953   5.156  18.139  0.00  0.00    +0.000 C 
ATOM      2  C   UNL     1       5.276   3.999  18.148  0.00  0.00    +0.000 C 
ATOM      3  C   UNL     1       3.794   3.902  17.915  0.00  0.00    +0.000 C 
ATOM      4  C   UNL     1       3.309   5.218  17.281  0.00  0.00    +0.000 C 
ATOM      5  C   UNL     1       3.956   6.443  17.933  0.00  0.00    +0.000 C 
ATOM      6  O   UNL     1       5.389   6.392  17.893  0.00  0.00    +0.000 OA
ENDROOT
BRANCH   3   7
ATOM      7  C   UNL     1       2.996   3.475  19.151  0.00  0.00    +0.000 A 
ATOM      8  C   UNL     1       3.603   2.894  20.282  0.00  0.00    +0.000 A 
ATOM      9  C   UNL     1       2.852   2.544  21.407  0.00  0.00    +0.000 A 
ATOM     10  C   UNL     1       1.485   2.767  21.412  0.00  0.00    +0.000 A 
ATOM     11  F   UNL     1       0.771   2.471  22.507  0.00  0.00    +0.000 F 
ATOM     12  C   UNL     1       0.848   3.296  20.298  0.00  0.00    +0.000 A 
ATOM     13  C   UNL     1       1.598   3.635  19.168  0.00  0.00    +0.000 A 
ENDBRANCH   3   7
BRANCH   1  15
ATOM     14  O   UNL     1       8.021   5.956  19.100  0.00  0.00    +0.000 OA
ATOM     15  C   UNL     1       7.417   5.125  18.443  0.00  0.00    +0.000 C 
BRANCH  15  16
ATOM     16  O   UNL     1       8.002   4.048  17.871  0.00  0.00    +0.000 OA
ATOM     17  H   UNL     1       7.325   3.379  17.641  0.00  0.00    +0.000 HD
ENDBRANCH  15  16
ENDBRANCH   1  15
BRANCH   5  18
ATOM     18  O   UNL     1       3.457   6.626  19.258  0.00  0.00    +0.000 OA
BRANCH  18  19
ATOM     19  C   UNL     1       2.238   7.368  19.287  0.00  0.00    +0.000 C 
BRANCH  19  20
ATOM     20  C   UNL     1       1.744   7.494  20.728  0.00  0.00    +0.000 C 
BRANCH  20  21
ATOM     21  C   UNL     1       0.877   8.735  20.920  0.00  0.00    +0.000 C 
BRANCH  21  22
ATOM     22  C   UNL     1       0.847   9.198  22.369  0.00  0.00    +0.000 C 
BRANCH  22  23
ATOM     23  O   UNL     1       2.174   9.245  22.877  0.00  0.00    +0.000 OA
ATOM     24  H   UNL     1       2.160   9.814  23.666  0.00  0.00    +0.000 HD
ENDBRANCH  22  23
ENDBRANCH  21  22
ENDBRANCH  20  21
ENDBRANCH  19  20
ENDBRANCH  18  19
ENDBRANCH   5  18
TORSDOF 9
ENDMDL
MODEL 3
REMARK VINA RESULT:      -7.0      3.480      6.214
REMARK  Name = 
REMARK  9 active torsions:
REMARK  status: ('A' for Active; 'I' for Inactive)
REMARK    1  A    between atoms: C_2  and  O_3
REMARK    2  A    between atoms: C_2  and  C_4
REMARK    3  A    between atoms: C_6  and  C_7
REMARK    4  A    between atoms: C_15  and  O_16
REMARK    5  A    between atoms: O_16  and  C_17
REMARK    6  A    between atoms: C_17  and  C_18
REMARK    7  A    between atoms: C_18  and  C_19
REMARK    8  A    between atoms: C_19  and  C_20
REMARK    9  A    between atoms: C_20  and  O_21
REMARK                            x       y       z     vdW  Elec       q    Type
REMARK                         _______ _______ _______ _____ _____    ______ ____
ROOT
ATOM      1  C   UNL     1       5.957   4.958  18.003  0.00  0.00    +0.000 C 
ATOM      2  C   UNL     1       5.191   3.857  18.018  0.00  0.00    +0.000 C 
ATOM      3  C   UNL     1       3.701   3.881  17.828  0.00  0.00    +0.000 C 
ATOM      4  C   UNL     1       3.302   5.241  17.225  0.00  0.00    +0.000 C 
ATOM      5  C   UNL     1       4.064   6.401  17.872  0.00  0.00    +0.000 C 
ATOM      6  O   UNL     1       5.486   6.238  17.789  0.00  0.00    +0.000 OA
ENDROOT
BRANCH   3   7
ATOM      7  C   UNL     1       2.906   3.501  19.082  0.00  0.00    +0.000 A 
ATOM      8  C   UNL     1       1.516   3.705  19.190  0.00  0.00    +0.000 A 
ATOM      9  C   UNL     1       0.815   3.319  20.335  0.00  0.00    +0.000 A 
ATOM     10  C   UNL     1       1.496   2.727  21.386  0.00  0.00    +0.000 A 
ATOM     11  F   UNL     1       0.817   2.317  22.466  0.00  0.00    +0.000 F 
ATOM     12  C   UNL     1       2.872   2.552  21.332  0.00  0.00    +0.000 A 
ATOM     13  C   UNL     1       3.575   2.950  20.191  0.00  0.00    +0.000 A 
ENDBRANCH   3   7
BRANCH   1  15
ATOM     14  O   UNL     1       8.011   5.217  19.249  0.00  0.00    +0.000 OA
ATOM     15  C   UNL     1       7.422   4.807  18.263  0.00  0.00    +0.000 C 
BRANCH  15  16
ATOM     16  O   UNL     1       8.026   4.162  17.239  0.00  0.00    +0.000 OA
ATOM     17  H   UNL     1       8.717   4.732  16.844  0.00  0.00    +0.000 HD
ENDBRANCH  15  16
ENDBRANCH   1  15
BRANCH   5  18
ATOM     18  O   UNL     1       3.619   6.603  19.214  0.00  0.00    +0.000 OA
BRANCH  18  19
ATOM     19  C   UNL     1       2.388   7.323  19.280  0.00  0.00    +0.000 C 
BRANCH  19  20
ATOM     20  C   UNL     1       1.750   7.128  20.655  0.00  0.00    +0.000 C 
BRANCH  20  21
ATOM     21  C   UNL     1       1.007   8.381  21.115  0.00  0.00    +0.000 C 
BRANCH  21  22
ATOM     22  C   UNL     1       0.888   9.418  20.009  0.00  0.00    +0.000 C 
BRANCH  22  23
ATOM     23  O   UNL     1      -0.423   9.969  20.017  0.00  0.00    +0.000 OA
ATOM     24  H   UNL     1      -0.472  10.603  19.281  0.00  0.00    +0.000 HD
ENDBRANCH  22  23
ENDBRANCH  21  22
ENDBRANCH  20  21
ENDBRANCH  19  20
ENDBRANCH  18  19
ENDBRANCH   5  18
TORSDOF 9
ENDMDL
MODEL 4
REMARK VINA RESULT:      -7.0      3.463      5.844
REMARK  Name = 
REMARK  9 active torsions:
REMARK  status: ('A' for Active; 'I' for Inactive)
REMARK    1  A    between atoms: C_2  and  O_3
REMARK    2  A    between atoms: C_2  and  C_4
REMARK    3  A    between atoms: C_6  and  C_7
REMARK    4  A    between atoms: C_15  and  O_16
REMARK    5  A    between atoms: O_16  and  C_17
REMARK    6  A    between atoms: C_17  and  C_18
REMARK    7  A    between atoms: C_18  and  C_19
REMARK    8  A    between atoms: C_19  and  C_20
REMARK    9  A    between atoms: C_20  and  O_21
REMARK                            x       y       z     vdW  Elec       q    Type
REMARK                         _______ _______ _______ _____ _____    ______ ____
ROOT
ATOM      1  C   UNL     1       6.100   5.044  18.036  0.00  0.00    +0.000 C 
ATOM      2  C   UNL     1       5.432   3.882  18.070  0.00  0.00    +0.000 C 
ATOM      3  C   UNL     1       3.960   3.763  17.793  0.00  0.00    +0.000 C 
ATOM      4  C   UNL     1       3.485   5.048  17.091  0.00  0.00    +0.000 C 
ATOM      5  C   UNL     1       4.102   6.303  17.713  0.00  0.00    +0.000 C 
ATOM      6  O   UNL     1       5.535   6.264  17.722  0.00  0.00    +0.000 OA
ENDROOT
BRANCH   3   7
ATOM      7  C   UNL     1       3.125   3.378  19.018  0.00  0.00    +0.000 A 
ATOM      8  C   UNL     1       3.697   2.834  20.185  0.00  0.00    +0.000 A 
ATOM      9  C   UNL     1       2.913   2.522  21.299  0.00  0.00    +0.000 A 
ATOM     10  C   UNL     1       1.547   2.747  21.256  0.00  0.00    +0.000 A 
ATOM     11  F   UNL     1       0.801   2.489  22.339  0.00  0.00    +0.000 F 
ATOM     12  C   UNL     1       0.943   3.239  20.107  0.00  0.00    +0.000 A 
ATOM     13  C   UNL     1       1.727   3.540  18.989  0.00  0.00    +0.000 A 
ENDBRANCH   3   7
BRANCH   1  15
ATOM     14  O   UNL     1       8.093   5.793  19.180  0.00  0.00    +0.000 OA
ATOM     15  C   UNL     1       7.553   5.038  18.389  0.00  0.00    +0.000 C 
BRANCH  15  16
ATOM     16  O   UNL     1       8.211   4.084  17.692  0.00  0.00    +0.000 OA
ATOM     17  H   UNL     1       8.081   4.218  16.731  0.00  0.00    +0.000 HD
ENDBRANCH  15  16
ENDBRANCH   1  15
BRANCH   5  18
ATOM     18  O   UNL     1       3.558   6.534  19.013  0.00  0.00    +0.000 OA
BRANCH  18  19
ATOM     19  C   UNL     1       2.351   7.296  18.975  0.00  0.00    +0.000 C 
BRANCH  19  20
ATOM     20  C   UNL     1       2.518   8.481  18.025  0.00  0.00    +0.000 C 
BRANCH  20  21
ATOM     21  C   UNL     1       1.226   9.284  17.892  0.00  0.00    +0.000 C 
BRANCH  21  22
ATOM     22  C   UNL     1       1.043  10.272  19.035  0.00  0.00    +0.000 C 
BRANCH  22  23
ATOM     23  O   UNL     1      -0.180   9.997  19.705  0.00  0.00    +0.000 OA
ATOM     24  H   UNL     1       0.036   9.823  20.638  0.00  0.00    +0.000 HD
ENDBRANCH  22  23
ENDBRANCH  21  22
ENDBRANCH  20  21
ENDBRANCH  19  20
ENDBRANCH  18  19
ENDBRANCH   5  18
TORSDOF 9
ENDMDL
MODEL 5
REMARK VINA RESULT:      -6.9      2.866      5.600
REMARK  Name = 
REMARK  9 active torsions:
REMARK  status: ('A' for Active; 'I' for Inactive)
REMARK    1  A    between atoms: C_2  and  O_3
REMARK    2  A    between atoms: C_2  and  C_4
REMARK    3  A    between atoms: C_6  and  C_7
REMARK    4  A    between atoms: C_15  and  O_16
REMARK    5  A    between atoms: O_16  and  C_17
REMARK    6  A    between atoms: C_17  and  C_18
REMARK    7  A    between atoms: C_18  and  C_19
REMARK    8  A    between atoms: C_19  and  C_20
REMARK    9  A    between atoms: C_20  and  O_21
REMARK                            x       y       z     vdW  Elec       q    Type
REMARK                         _______ _______ _______ _____ _____    ______ ____
ROOT
ATOM      1  C   UNL     1       5.781   4.397  16.012  0.00  0.00    +0.000 C 
ATOM      2  C   UNL     1       5.863   5.449  16.839  0.00  0.00    +0.000 C 
ATOM      3  C   UNL     1       5.338   5.440  18.247  0.00  0.00    +0.000 C 
ATOM      4  C   UNL     1       5.103   3.981  18.676  0.00  0.00    +0.000 C 
ATOM      5  C   UNL     1       4.465   3.150  17.560  0.00  0.00    +0.000 C 
ATOM      6  O   UNL     1       5.233   3.175  16.349  0.00  0.00    +0.000 OA
ENDROOT
BRANCH   3   7
ATOM      7  C   UNL     1       4.129   6.356  18.467  0.00  0.00    +0.000 A 
ATOM      8  C   UNL     1       3.278   6.233  19.583  0.00  0.00    +0.000 A 
ATOM      9  C   UNL     1       2.201   7.103  19.772  0.00  0.00    +0.000 A 
ATOM     10  C   UNL     1       1.961   8.103  18.845  0.00  0.00    +0.000 A 
ATOM     11  F   UNL     1       0.955   8.965  19.048  0.00  0.00    +0.000 F 
ATOM     12  C   UNL     1       2.752   8.226  17.711  0.00  0.00    +0.000 A 
ATOM     13  C   UNL     1       3.822   7.347  17.516  0.00  0.00    +0.000 A 
ENDBRANCH   3   7
BRANCH   1  15
ATOM     14  O   UNL     1       5.787   4.055  13.620  0.00  0.00    +0.000 OA
ATOM     15  C   UNL     1       6.289   4.552  14.614  0.00  0.00    +0.000 C 
BRANCH  15  16
ATOM     16  O   UNL     1       7.407   5.312  14.592  0.00  0.00    +0.000 OA
ATOM     17  H   UNL     1       8.145   4.813  14.185  0.00  0.00    +0.000 HD
ENDBRANCH  15  16
ENDBRANCH   1  15
BRANCH   5  18
ATOM     18  O   UNL     1       3.111   3.551  17.351  0.00  0.00    +0.000 OA
BRANCH  18  19
ATOM     19  C   UNL     1       2.182   2.750  18.083  0.00  0.00    +0.000 C 
BRANCH  19  20
ATOM     20  C   UNL     1       1.029   3.621  18.580  0.00  0.00    +0.000 C 
BRANCH  20  21
ATOM     21  C   UNL     1       0.903   3.574  20.101  0.00  0.00    +0.000 C 
BRANCH  21  22
ATOM     22  C   UNL     1       1.846   2.558  20.726  0.00  0.00    +0.000 C 
BRANCH  22  23
ATOM     23  O   UNL     1       2.309   3.051  21.977  0.00  0.00    +0.000 OA
ATOM     24  H   UNL     1       2.011   3.974  22.050  0.00  0.00    +0.000 HD
ENDBRANCH  22  23
ENDBRANCH  21  22
ENDBRANCH  20  21
ENDBRANCH  19  20
ENDBRANCH  18  19
ENDBRANCH   5  18
TORSDOF 9
ENDMDL
MODEL 6
REMARK VINA RESULT:      -6.9      3.390      5.873
REMARK  Name = 
REMARK  9 active torsions:
REMARK  status: ('A' for Active; 'I' for Inactive)
REMARK    1  A    between atoms: C_2  and  O_3
REMARK    2  A    between atoms: C_2  and  C_4
REMARK    3  A    between atoms: C_6  and  C_7
REMARK    4  A    between atoms: C_15  and  O_16
REMARK    5  A    between atoms: O_16  and  C_17
REMARK    6  A    between atoms: C_17  and  C_18
REMARK    7  A    between atoms: C_18  and  C_19
REMARK    8  A    between atoms: C_19  and  C_20
REMARK    9  A    between atoms: C_20  and  O_21
REMARK                            x       y       z     vdW  Elec       q    Type
REMARK                         _______ _______ _______ _____ _____    ______ ____
ROOT
ATOM      1  C   UNL     1       5.895   4.816  17.731  0.00  0.00    +0.000 C 
ATOM      2  C   UNL     1       5.141   3.714  17.846  0.00  0.00    +0.000 C 
ATOM      3  C   UNL     1       3.645   3.714  17.712  0.00  0.00    +0.000 C 
ATOM      4  C   UNL     1       3.210   5.029  17.039  0.00  0.00    +0.000 C 
ATOM      5  C   UNL     1       3.984   6.234  17.581  0.00  0.00    +0.000 C 
ATOM      6  O   UNL     1       5.404   6.077  17.453  0.00  0.00    +0.000 OA
ENDROOT
BRANCH   3   7
ATOM      7  C   UNL     1       2.903   3.409  19.018  0.00  0.00    +0.000 A 
ATOM      8  C   UNL     1       1.520   3.634  19.175  0.00  0.00    +0.000 A 
ATOM      9  C   UNL     1       0.866   3.316  20.368  0.00  0.00    +0.000 A 
ATOM     10  C   UNL     1       1.587   2.774  21.419  0.00  0.00    +0.000 A 
ATOM     11  F   UNL     1       0.953   2.429  22.547  0.00  0.00    +0.000 F 
ATOM     12  C   UNL     1       2.958   2.581  21.315  0.00  0.00    +0.000 A 
ATOM     13  C   UNL     1       3.614   2.911  20.125  0.00  0.00    +0.000 A 
ENDBRANCH   3   7
BRANCH   1  15
ATOM     14  O   UNL     1       7.948   4.859  19.005  0.00  0.00    +0.000 OA
ATOM     15  C   UNL     1       7.370   4.693  17.943  0.00  0.00    +0.000 C 
BRANCH  15  16
ATOM     16  O   UNL     1       7.997   4.389  16.784  0.00  0.00    +0.000 OA
ATOM     17  H   UNL     1       8.303   5.207  16.342  0.00  0.00    +0.000 HD
ENDBRANCH  15  16
ENDBRANCH   1  15
BRANCH   5  18
ATOM     18  O   UNL     1       3.589   6.519  18.923  0.00  0.00    +0.000 OA
BRANCH  18  19
ATOM     19  C   UNL     1       2.416   7.331  18.988  0.00  0.00    +0.000 C 
BRANCH  19  20
ATOM     20  C   UNL     1       2.547   8.505  18.019  0.00  0.00    +0.000 C 
BRANCH  20  21
ATOM     21  C   UNL     1       1.213   9.220  17.816  0.00  0.00    +0.000 C 
BRANCH  21  22
ATOM     22  C   UNL     1       1.192  10.595  18.467  0.00  0.00    +0.000 C 
BRANCH  22  23
ATOM     23  O   UNL     1      -0.031  11.248  18.154  0.00  0.00    +0.000 OA
ATOM     24  H   UNL     1      -0.513  10.672  17.535  0.00  0.00    +0.000 HD
ENDBRANCH  22  23
ENDBRANCH  21  22
ENDBRANCH  20  21
ENDBRANCH  19  20
ENDBRANCH  18  19
ENDBRANCH   5  18
TORSDOF 9
ENDMDL
MODEL 7
REMARK VINA RESULT:      -6.9      3.793      5.611
REMARK  Name = 
REMARK  9 active torsions:
REMARK  status: ('A' for Active; 'I' for Inactive)
REMARK    1  A    between atoms: C_2  and  O_3
REMARK    2  A    between atoms: C_2  and  C_4
REMARK    3  A    between atoms: C_6  and  C_7
REMARK    4  A    between atoms: C_15  and  O_16
REMARK    5  A    between atoms: O_16  and  C_17
REMARK    6  A    between atoms: C_17  and  C_18
REMARK    7  A    between atoms: C_18  and  C_19
REMARK    8  A    between atoms: C_19  and  C_20
REMARK    9  A    between atoms: C_20  and  O_21
REMARK                            x       y       z     vdW  Elec       q    Type
REMARK                         _______ _______ _______ _____ _____    ______ ____
ROOT
ATOM      1  C   UNL     1       2.129   3.550  20.115  0.00  0.00    +0.000 C 
ATOM      2  C   UNL     1       2.575   4.814  20.141  0.00  0.00    +0.000 C 
ATOM      3  C   UNL     1       2.762   5.653  18.909  0.00  0.00    +0.000 C 
ATOM      4  C   UNL     1       1.995   4.998  17.745  0.00  0.00    +0.000 C 
ATOM      5  C   UNL     1       2.161   3.476  17.732  0.00  0.00    +0.000 C 
ATOM      6  O   UNL     1       1.764   2.870  18.970  0.00  0.00    +0.000 OA
ENDROOT
BRANCH   3   7
ATOM      7  C   UNL     1       4.226   5.970  18.587  0.00  0.00    +0.000 A 
ATOM      8  C   UNL     1       4.600   6.905  17.602  0.00  0.00    +0.000 A 
ATOM      9  C   UNL     1       5.944   7.196  17.353  0.00  0.00    +0.000 A 
ATOM     10  C   UNL     1       6.929   6.553  18.085  0.00  0.00    +0.000 A 
ATOM     11  F   UNL     1       8.215   6.863  17.877  0.00  0.00    +0.000 F 
ATOM     12  C   UNL     1       6.598   5.594  19.032  0.00  0.00    +0.000 A 
ATOM     13  C   UNL     1       5.253   5.294  19.271  0.00  0.00    +0.000 A 
ENDBRANCH   3   7
BRANCH   1  15
ATOM     14  O   UNL     1       2.993   2.398  22.056  0.00  0.00    +0.000 OA
ATOM     15  C   UNL     1       2.042   2.801  21.407  0.00  0.00    +0.000 C 
BRANCH  15  16
ATOM     16  O   UNL     1       0.752   2.605  21.761  0.00  0.00    +0.000 OA
ATOM     17  H   UNL     1       0.694   1.920  22.458  0.00  0.00    +0.000 HD
ENDBRANCH  15  16
ENDBRANCH   1  15
BRANCH   5  18
ATOM     18  O   UNL     1       3.494   3.123  17.359  0.00  0.00    +0.000 OA
BRANCH  18  19
ATOM     19  C   UNL     1       3.795   3.471  16.008  0.00  0.00    +0.000 C 
BRANCH  19  20
ATOM     20  C   UNL     1       5.294   3.728  15.862  0.00  0.00    +0.000 C 
BRANCH  20  21
ATOM     21  C   UNL     1       5.590   4.725  14.744  0.00  0.00    +0.000 C 
BRANCH  21  22
ATOM     22  C   UNL     1       6.975   4.526  14.147  0.00  0.00    +0.000 C 
BRANCH  22  23
ATOM     23  O   UNL     1       7.853   5.527  14.645  0.00  0.00    +0.000 OA
ATOM     24  H   UNL     1       7.876   5.432  15.613  0.00  0.00    +0.000 HD
ENDBRANCH  22  23
ENDBRANCH  21  22
ENDBRANCH  20  21
ENDBRANCH  19  20
ENDBRANCH  18  19
ENDBRANCH   5  18
TORSDOF 9
ENDMDL
MODEL 8
REMARK VINA RESULT:      -6.8      2.735      4.861
REMARK  Name = 
REMARK  9 active torsions:
REMARK  status: ('A' for Active; 'I' for Inactive)
REMARK    1  A    between atoms: C_2  and  O_3
REMARK    2  A    between atoms: C_2  and  C_4
REMARK    3  A    between atoms: C_6  and  C_7
REMARK    4  A    between atoms: C_15  and  O_16
REMARK    5  A    between atoms: O_16  and  C_17
REMARK    6  A    between atoms: C_17  and  C_18
REMARK    7  A    between atoms: C_18  and  C_19
REMARK    8  A    between atoms: C_19  and  C_20
REMARK    9  A    between atoms: C_20  and  O_21
REMARK                            x       y       z     vdW  Elec       q    Type
REMARK                         _______ _______ _______ _____ _____    ______ ____
ROOT
ATOM      1  C   UNL     1       6.887   6.139  17.663  0.00  0.00    +0.000 C 
ATOM      2  C   UNL     1       6.727   4.812  17.768  0.00  0.00    +0.000 C 
ATOM      3  C   UNL     1       5.723   4.032  16.967  0.00  0.00    +0.000 C 
ATOM      4  C   UNL     1       5.254   4.900  15.784  0.00  0.00    +0.000 C 
ATOM      5  C   UNL     1       5.018   6.355  16.198  0.00  0.00    +0.000 C 
ATOM      6  O   UNL     1       6.177   6.949  16.799  0.00  0.00    +0.000 OA
ENDROOT
BRANCH   3   7
ATOM      7  C   UNL     1       4.578   3.448  17.802  0.00  0.00    +0.000 A 
ATOM      8  C   UNL     1       4.654   3.314  19.202  0.00  0.00    +0.000 A 
ATOM      9  C   UNL     1       3.581   2.806  19.940  0.00  0.00    +0.000 A 
ATOM     10  C   UNL     1       2.422   2.423  19.284  0.00  0.00    +0.000 A 
ATOM     11  F   UNL     1       1.378   1.977  19.995  0.00  0.00    +0.000 F 
ATOM     12  C   UNL     1       2.330   2.499  17.902  0.00  0.00    +0.000 A 
ATOM     13  C   UNL     1       3.409   2.996  17.163  0.00  0.00    +0.000 A 
ENDBRANCH   3   7
BRANCH   1  15
ATOM     14  O   UNL     1       8.337   7.927  18.399  0.00  0.00    +0.000 OA
ATOM     15  C   UNL     1       7.881   6.807  18.559  0.00  0.00    +0.000 C 
BRANCH  15  16
ATOM     16  O   UNL     1       8.231   5.991  19.579  0.00  0.00    +0.000 OA
ATOM     17  H   UNL     1       9.154   5.685  19.463  0.00  0.00    +0.000 HD
ENDBRANCH  15  16
ENDBRANCH   1  15
BRANCH   5  18
ATOM     18  O   UNL     1       3.864   6.456  17.032  0.00  0.00    +0.000 OA
BRANCH  18  19
ATOM     19  C   UNL     1       3.624   7.791  17.477  0.00  0.00    +0.000 C 
BRANCH  19  20
ATOM     20  C   UNL     1       2.603   7.781  18.614  0.00  0.00    +0.000 C 
BRANCH  20  21
ATOM     21  C   UNL     1       2.472   6.395  19.242  0.00  0.00    +0.000 C 
BRANCH  21  22
ATOM     22  C   UNL     1       1.744   6.435  20.577  0.00  0.00    +0.000 C 
BRANCH  22  23
ATOM     23  O   UNL     1       1.873   7.731  21.147  0.00  0.00    +0.000 OA
ATOM     24  H   UNL     1       1.391   8.348  20.569  0.00  0.00    +0.000 HD
ENDBRANCH  22  23
ENDBRANCH  21  22
ENDBRANCH  20  21
ENDBRANCH  19  20
ENDBRANCH  18  19
ENDBRANCH   5  18
TORSDOF 9
ENDMDL
MODEL 9
REMARK VINA RESULT:      -6.8      3.015      5.408
REMARK  Name = 
REMARK  9 active torsions:
REMARK  status: ('A' for Active; 'I' for Inactive)
REMARK    1  A    between atoms: C_2  and  O_3
REMARK    2  A    between atoms: C_2  and  C_4
REMARK    3  A    between atoms: C_6  and  C_7
REMARK    4  A    between atoms: C_15  and  O_16
REMARK    5  A    between atoms: O_16  and  C_17
REMARK    6  A    between atoms: C_17  and  C_18
REMARK    7  A    between atoms: C_18  and  C_19
REMARK    8  A    between atoms: C_19  and  C_20
REMARK    9  A    between atoms: C_20  and  O_21
REMARK                            x       y       z     vdW  Elec       q    Type
REMARK                         _______ _______ _______ _____ _____    ______ ____
ROOT
ATOM      1  C   UNL     1       6.776   5.755  18.154  0.00  0.00    +0.000 C 
ATOM      2  C   UNL     1       6.284   4.512  18.058  0.00  0.00    +0.000 C 
ATOM      3  C   UNL     1       5.096   4.152  17.211  0.00  0.00    +0.000 C 
ATOM      4  C   UNL     1       4.839   5.296  16.212  0.00  0.00    +0.000 C 
ATOM      5  C   UNL     1       4.993   6.673  16.864  0.00  0.00    +0.000 C 
ATOM      6  O   UNL     1       6.279   6.850  17.476  0.00  0.00    +0.000 OA
ENDROOT
BRANCH   3   7
ATOM      7  C   UNL     1       3.859   3.739  18.015  0.00  0.00    +0.000 A 
ATOM      8  C   UNL     1       3.938   3.281  19.345  0.00  0.00    +0.000 A 
ATOM      9  C   UNL     1       2.789   2.941  20.063  0.00  0.00    +0.000 A 
ATOM     10  C   UNL     1       1.548   3.051  19.457  0.00  0.00    +0.000 A 
ATOM     11  F   UNL     1       0.442   2.767  20.159  0.00  0.00    +0.000 F 
ATOM     12  C   UNL     1       1.436   3.456  18.134  0.00  0.00    +0.000 A 
ATOM     13  C   UNL     1       2.588   3.784  17.413  0.00  0.00    +0.000 A 
ENDBRANCH   3   7
BRANCH   1  15
ATOM     14  O   UNL     1       8.343   5.204  19.910  0.00  0.00    +0.000 OA
ATOM     15  C   UNL     1       7.927   5.994  19.078  0.00  0.00    +0.000 C 
BRANCH  15  16
ATOM     16  O   UNL     1       8.448   7.227  18.886  0.00  0.00    +0.000 OA
ATOM     17  H   UNL     1       9.134   7.411  19.560  0.00  0.00    +0.000 HD
ENDBRANCH  15  16
ENDBRANCH   1  15
BRANCH   5  18
ATOM     18  O   UNL     1       3.922   6.915  17.776  0.00  0.00    +0.000 OA
BRANCH  18  19
ATOM     19  C   UNL     1       3.266   8.160  17.533  0.00  0.00    +0.000 C 
BRANCH  19  20
ATOM     20  C   UNL     1       2.025   8.272  18.417  0.00  0.00    +0.000 C 
BRANCH  20  21
ATOM     21  C   UNL     1       1.130   9.433  17.989  0.00  0.00    +0.000 C 
BRANCH  21  22
ATOM     22  C   UNL     1       0.782  10.350  19.152  0.00  0.00    +0.000 C 
BRANCH  22  23
ATOM     23  O   UNL     1       0.300   9.572  20.240  0.00  0.00    +0.000 OA
ATOM     24  H   UNL     1       0.791   9.851  21.032  0.00  0.00    +0.000 HD
ENDBRANCH  22  23
ENDBRANCH  21  22
ENDBRANCH  20  21
ENDBRANCH  19  20
ENDBRANCH  18  19
ENDBRANCH   5  18
TORSDOF 9
ENDMDL
