MODEL 1
REMARK VINA RESULT:      -7.6      0.000      0.000
REMARK  Name = 
REMARK  8 active torsions:
REMARK  status: ('A' for Active; 'I' for Inactive)
REMARK    1  A    between atoms: C_1  and  C_2
REMARK    2  A    between atoms: C_2  and  O_3
REMARK    3  A    between atoms: O_3  and  C_4
REMARK    4  A    between atoms: C_4  and  C_5
REMARK    5  A    between atoms: C_4  and  O_6
REMARK    6  A    between atoms: O_6  and  C_7
REMARK    7  A    between atoms: N_14  and  C_15
REMARK    8  A    between atoms: C_20  and  N_21
REMARK                            x       y       z     vdW  Elec       q    Type
REMARK                         _______ _______ _______ _____ _____    ______ ____
ROOT
ATOM      1  C   UNL     1       0.090  11.655  19.810  0.00  0.00    +0.000 A 
ATOM      2  C   UNL     1       0.843  11.265  18.693  0.00  0.00    +0.000 A 
ATOM      3  C   UNL     1       1.450  10.015  18.585  0.00  0.00    +0.000 A 
ATOM      4  N   UNL     1       2.141   9.731  17.474  0.00  0.00    +0.000 NA
ATOM      5  C   UNL     1       2.720   8.526  17.402  0.00  0.00    +0.000 A 
ATOM      6  N   UNL     1       2.691   7.584  18.344  0.00  0.00    +0.000 NA
ATOM      7  C   UNL     1       2.001   7.876  19.465  0.00  0.00    +0.000 A 
ATOM      8  N   UNL     1       2.054   6.932  20.529  0.00  0.00    +0.000 N 
ATOM      9  C   UNL     1       1.321   9.105  19.642  0.00  0.00    +0.000 A 
ATOM     10  C   UNL     1       0.509   9.469  20.756  0.00  0.00    +0.000 A 
ATOM     11  C   UNL     1      -0.112  10.727  20.830  0.00  0.00    +0.000 A 
ATOM     12  O   UNL     1      -0.952  11.045  21.864  0.00  0.00    +0.000 OA
ATOM     13  C   UNL     1      -0.616  10.319  23.041  0.00  0.00    +0.000 C 
ATOM     14  C   UNL     1      -0.636   8.842  22.725  0.00  0.00    +0.000 C 
ATOM     15  O   UNL     1       0.360   8.521  21.751  0.00  0.00    +0.000 OA
ATOM     16  H   UNL     1       1.359   7.189  21.232  0.00  0.00    +0.000 HD
ENDROOT
BRANCH   8  17
ATOM     17  C   UNL     1       2.091   5.529  20.403  0.00  0.00    +0.000 A 
ATOM     18  C   UNL     1       0.879   4.824  20.366  0.00  0.00    +0.000 A 
ATOM     19  C   UNL     1       0.865   3.442  20.167  0.00  0.00    +0.000 A 
ATOM     20  C   UNL     1       2.062   2.754  19.985  0.00  0.00    +0.000 A 
ATOM     21  F   UNL     1       1.990   1.430  19.788  0.00  0.00    +0.000 F 
ATOM     22  C   UNL     1       3.270   3.445  19.996  0.00  0.00    +0.000 A 
ATOM     23  C   UNL     1       3.285   4.832  20.192  0.00  0.00    +0.000 A 
BRANCH  22  24
ATOM     24  N   UNL     1       4.537   2.745  19.791  0.00  0.00    +0.000 N 
ATOM     25  O   UNL     1       5.229   3.046  18.813  0.00  0.00    +0.000 OA
ATOM     26  O   UNL     1       4.854   1.883  20.624  0.00  0.00    +0.000 OA
ENDBRANCH  22  24
ENDBRANCH   8  17
BRANCH   1  27
ATOM     27  O   UNL     1      -0.395  12.937  19.754  0.00  0.00    +0.000 OA
BRANCH  27  28
ATOM     28  C   UNL     1       0.419  14.012  20.260  0.00  0.00    +0.000 C 
ATOM     29  C   UNL     1      -0.277  14.589  21.496  0.00  0.00    +0.000 C 
BRANCH  28  30
ATOM     30  O   UNL     1       0.542  15.029  19.246  0.00  0.00    +0.000 OA
BRANCH  30  32
ATOM     31  C   UNL     1       2.618  14.461  18.166  0.00  0.00    +0.000 C 
ATOM     32  C   UNL     1       1.892  15.454  19.052  0.00  0.00    +0.000 C 
ENDBRANCH  30  32
ENDBRANCH  28  30
ENDBRANCH  27  28
ENDBRANCH   1  27
TORSDOF 6
ENDMDL
MODEL 2
REMARK VINA RESULT:      -7.5      1.290      1.981
REMARK  Name = 
REMARK  8 active torsions:
REMARK  status: ('A' for Active; 'I' for Inactive)
REMARK    1  A    between atoms: C_1  and  C_2
REMARK    2  A    between atoms: C_2  and  O_3
REMARK    3  A    between atoms: O_3  and  C_4
REMARK    4  A    between atoms: C_4  and  C_5
REMARK    5  A    between atoms: C_4  and  O_6
REMARK    6  A    between atoms: O_6  and  C_7
REMARK    7  A    between atoms: N_14  and  C_15
REMARK    8  A    between atoms: C_20  and  N_21
REMARK                            x       y       z     vdW  Elec       q    Type
REMARK                         _______ _______ _______ _____ _____    ______ ____
ROOT
ATOM      1  C   UNL     1       0.316  11.544  19.858  0.00  0.00    +0.000 A 
ATOM      2  C   UNL     1       1.061  11.144  18.738  0.00  0.00    +0.000 A 
ATOM      3  C   UNL     1       1.612   9.871  18.608  0.00  0.00    +0.000 A 
ATOM      4  N   UNL     1       2.300   9.580  17.497  0.00  0.00    +0.000 NA
ATOM      5  C   UNL     1       2.825   8.352  17.403  0.00  0.00    +0.000 A 
ATOM      6  N   UNL     1       2.746   7.393  18.325  0.00  0.00    +0.000 NA
ATOM      7  C   UNL     1       2.059   7.691  19.446  0.00  0.00    +0.000 A 
ATOM      8  N   UNL     1       2.060   6.724  20.490  0.00  0.00    +0.000 N 
ATOM      9  C   UNL     1       1.434   8.946  19.644  0.00  0.00    +0.000 A 
ATOM     10  C   UNL     1       0.629   9.323  20.759  0.00  0.00    +0.000 A 
ATOM     11  C   UNL     1       0.064  10.605  20.855  0.00  0.00    +0.000 A 
ATOM     12  O   UNL     1      -0.771  10.939  21.889  0.00  0.00    +0.000 OA
ATOM     13  C   UNL     1      -0.478  10.173  23.053  0.00  0.00    +0.000 C 
ATOM     14  C   UNL     1      -0.561   8.706  22.705  0.00  0.00    +0.000 C 
ATOM     15  O   UNL     1       0.428   8.361  21.732  0.00  0.00    +0.000 OA
ATOM     16  H   UNL     1       1.371   6.996  21.193  0.00  0.00    +0.000 HD
ENDROOT
BRANCH   8  17
ATOM     17  C   UNL     1       2.036   5.323  20.334  0.00  0.00    +0.000 A 
ATOM     18  C   UNL     1       0.806   4.656  20.434  0.00  0.00    +0.000 A 
ATOM     19  C   UNL     1       0.722   3.280  20.213  0.00  0.00    +0.000 A 
ATOM     20  C   UNL     1       1.864   2.561  19.870  0.00  0.00    +0.000 A 
ATOM     21  F   UNL     1       1.726   1.244  19.659  0.00  0.00    +0.000 F 
ATOM     22  C   UNL     1       3.087   3.214  19.744  0.00  0.00    +0.000 A 
ATOM     23  C   UNL     1       3.171   4.596  19.963  0.00  0.00    +0.000 A 
BRANCH  22  24
ATOM     24  N   UNL     1       4.294   2.482  19.370  0.00  0.00    +0.000 N 
ATOM     25  O   UNL     1       4.523   2.288  18.172  0.00  0.00    +0.000 OA
ATOM     26  O   UNL     1       5.036   2.097  20.287  0.00  0.00    +0.000 OA
ENDBRANCH  22  24
ENDBRANCH   8  17
BRANCH   1  27
ATOM     27  O   UNL     1      -0.111  12.848  19.825  0.00  0.00    +0.000 OA
BRANCH  27  28
ATOM     28  C   UNL     1      -1.370  13.153  19.195  0.00  0.00    +0.000 C 
ATOM     29  C   UNL     1      -2.437  13.237  20.290  0.00  0.00    +0.000 C 
BRANCH  28  30
ATOM     30  O   UNL     1      -1.701  12.101  18.266  0.00  0.00    +0.000 OA
BRANCH  30  32
ATOM     31  C   UNL     1      -3.183  10.281  17.731  0.00  0.00    +0.000 C 
ATOM     32  C   UNL     1      -3.035  11.618  18.431  0.00  0.00    +0.000 C 
ENDBRANCH  30  32
ENDBRANCH  28  30
ENDBRANCH  27  28
ENDBRANCH   1  27
TORSDOF 6
ENDMDL
MODEL 3
REMARK VINA RESULT:      -7.2      4.464      8.952
REMARK  Name = 
REMARK  8 active torsions:
REMARK  status: ('A' for Active; 'I' for Inactive)
REMARK    1  A    between atoms: C_1  and  C_2
REMARK    2  A    between atoms: C_2  and  O_3
REMARK    3  A    between atoms: O_3  and  C_4
REMARK    4  A    between atoms: C_4  and  C_5
REMARK    5  A    between atoms: C_4  and  O_6
REMARK    6  A    between atoms: O_6  and  C_7
REMARK    7  A    between atoms: N_14  and  C_15
REMARK    8  A    between atoms: C_20  and  N_21
REMARK                            x       y       z     vdW  Elec       q    Type
REMARK                         _______ _______ _______ _____ _____    ______ ____
ROOT
ATOM      1  C   UNL     1       5.786   4.228  15.822  0.00  0.00    +0.000 A 
ATOM      2  C   UNL     1       4.531   3.641  16.044  0.00  0.00    +0.000 A 
ATOM      3  C   UNL     1       3.557   4.217  16.858  0.00  0.00    +0.000 A 
ATOM      4  N   UNL     1       2.386   3.585  17.001  0.00  0.00    +0.000 NA
ATOM      5  C   UNL     1       1.473   4.157  17.795  0.00  0.00    +0.000 A 
ATOM      6  N   UNL     1       1.626   5.291  18.478  0.00  0.00    +0.000 NA
ATOM      7  C   UNL     1       2.810   5.921  18.338  0.00  0.00    +0.000 A 
ATOM      8  N   UNL     1       3.039   7.070  19.146  0.00  0.00    +0.000 N 
ATOM      9  C   UNL     1       3.841   5.428  17.501  0.00  0.00    +0.000 A 
ATOM     10  C   UNL     1       5.090   6.062  17.235  0.00  0.00    +0.000 A 
ATOM     11  C   UNL     1       6.045   5.473  16.392  0.00  0.00    +0.000 A 
ATOM     12  O   UNL     1       7.212   6.119  16.078  0.00  0.00    +0.000 OA
ATOM     13  C   UNL     1       7.597   7.016  17.114  0.00  0.00    +0.000 C 
ATOM     14  C   UNL     1       6.463   7.980  17.371  0.00  0.00    +0.000 C 
ATOM     15  O   UNL     1       5.306   7.285  17.843  0.00  0.00    +0.000 OA
ATOM     16  H   UNL     1       3.883   7.542  18.818  0.00  0.00    +0.000 HD
ENDROOT
BRANCH   8  17
ATOM     17  C   UNL     1       2.081   8.036  19.518  0.00  0.00    +0.000 A 
ATOM     18  C   UNL     1       1.538   8.863  18.523  0.00  0.00    +0.000 A 
ATOM     19  C   UNL     1       0.533   9.782  18.832  0.00  0.00    +0.000 A 
ATOM     20  C   UNL     1       0.050   9.871  20.135  0.00  0.00    +0.000 A 
ATOM     21  F   UNL     1      -0.922  10.763  20.374  0.00  0.00    +0.000 F 
ATOM     22  C   UNL     1       0.564   9.040  21.126  0.00  0.00    +0.000 A 
ATOM     23  C   UNL     1       1.569   8.114  20.817  0.00  0.00    +0.000 A 
BRANCH  22  24
ATOM     24  N   UNL     1       0.060   9.105  22.496  0.00  0.00    +0.000 N 
ATOM     25  O   UNL     1       0.717   9.720  23.342  0.00  0.00    +0.000 OA
ATOM     26  O   UNL     1      -1.017   8.538  22.736  0.00  0.00    +0.000 OA
ENDBRANCH  22  24
ENDBRANCH   8  17
BRANCH   1  27
ATOM     27  O   UNL     1       6.628   3.495  15.024  0.00  0.00    +0.000 OA
BRANCH  27  28
ATOM     28  C   UNL     1       6.535   3.640  13.594  0.00  0.00    +0.000 C 
ATOM     29  C   UNL     1       7.363   4.862  13.189  0.00  0.00    +0.000 C 
BRANCH  28  30
ATOM     30  O   UNL     1       5.154   3.839  13.228  0.00  0.00    +0.000 OA
BRANCH  30  32
ATOM     31  C   UNL     1       5.553   2.134  11.576  0.00  0.00    +0.000 C 
ATOM     32  C   UNL     1       4.880   3.458  11.879  0.00  0.00    +0.000 C 
ENDBRANCH  30  32
ENDBRANCH  28  30
ENDBRANCH  27  28
ENDBRANCH   1  27
TORSDOF 6
ENDMDL
MODEL 4
REMARK VINA RESULT:      -7.2      4.435      9.008
REMARK  Name = 
REMARK  8 active torsions:
REMARK  status: ('A' for Active; 'I' for Inactive)
REMARK    1  A    between atoms: C_1  and  C_2
REMARK    2  A    between atoms: C_2  and  O_3
REMARK    3  A    between atoms: O_3  and  C_4
REMARK    4  A    between atoms: C_4  and  C_5
REMARK    5  A    between atoms: C_4  and  O_6
REMARK    6  A    between atoms: O_6  and  C_7
REMARK    7  A    between atoms: N_14  and  C_15
REMARK    8  A    between atoms: C_20  and  N_21
REMARK                            x       y       z     vdW  Elec       q    Type
REMARK                         _______ _______ _______ _____ _____    ______ ____
ROOT
ATOM      1  C   UNL     1       5.811   4.184  15.774  0.00  0.00    +0.000 A 
ATOM      2  C   UNL     1       4.590   3.531  16.000  0.00  0.00    +0.000 A 
ATOM      3  C   UNL     1       3.613   4.024  16.864  0.00  0.00    +0.000 A 
ATOM      4  N   UNL     1       2.476   3.333  17.007  0.00  0.00    +0.000 NA
ATOM      5  C   UNL     1       1.559   3.826  17.849  0.00  0.00    +0.000 A 
ATOM      6  N   UNL     1       1.680   4.934  18.579  0.00  0.00    +0.000 NA
ATOM      7  C   UNL     1       2.830   5.624  18.439  0.00  0.00    +0.000 A 
ATOM      8  N   UNL     1       3.029   6.745  19.293  0.00  0.00    +0.000 N 
ATOM      9  C   UNL     1       3.859   5.217  17.555  0.00  0.00    +0.000 A 
ATOM     10  C   UNL     1       5.071   5.919  17.288  0.00  0.00    +0.000 A 
ATOM     11  C   UNL     1       6.029   5.412  16.394  0.00  0.00    +0.000 A 
ATOM     12  O   UNL     1       7.156   6.125  16.081  0.00  0.00    +0.000 OA
ATOM     13  C   UNL     1       7.529   6.992  17.148  0.00  0.00    +0.000 C 
ATOM     14  C   UNL     1       6.359   7.890  17.477  0.00  0.00    +0.000 C 
ATOM     15  O   UNL     1       5.248   7.122  17.945  0.00  0.00    +0.000 OA
ATOM     16  H   UNL     1       3.842   7.269  18.966  0.00  0.00    +0.000 HD
ENDROOT
BRANCH   8  17
ATOM     17  C   UNL     1       2.039   7.648  19.732  0.00  0.00    +0.000 A 
ATOM     18  C   UNL     1       1.544   7.521  21.038  0.00  0.00    +0.000 A 
ATOM     19  C   UNL     1       0.619   8.438  21.542  0.00  0.00    +0.000 A 
ATOM     20  C   UNL     1       0.194   9.501  20.749  0.00  0.00    +0.000 A 
ATOM     21  F   UNL     1      -0.687  10.358  21.285  0.00  0.00    +0.000 F 
ATOM     22  C   UNL     1       0.695   9.653  19.460  0.00  0.00    +0.000 A 
ATOM     23  C   UNL     1       1.627   8.735  18.955  0.00  0.00    +0.000 A 
BRANCH  22  24
ATOM     24  N   UNL     1       0.276  10.770  18.618  0.00  0.00    +0.000 N 
ATOM     25  O   UNL     1      -0.785  10.676  17.992  0.00  0.00    +0.000 OA
ATOM     26  O   UNL     1       1.013  11.767  18.582  0.00  0.00    +0.000 OA
ENDBRANCH  22  24
ENDBRANCH   8  17
BRANCH   1  27
ATOM     27  O   UNL     1       6.662   3.527  14.923  0.00  0.00    +0.000 OA
BRANCH  27  28
ATOM     28  C   UNL     1       6.538   3.748  13.505  0.00  0.00    +0.000 C 
ATOM     29  C   UNL     1       7.444   4.923  13.130  0.00  0.00    +0.000 C 
BRANCH  28  30
ATOM     30  O   UNL     1       5.166   4.067  13.195  0.00  0.00    +0.000 OA
BRANCH  30  32
ATOM     31  C   UNL     1       5.670   2.292  11.648  0.00  0.00    +0.000 C 
ATOM     32  C   UNL     1       4.687   3.377  12.040  0.00  0.00    +0.000 C 
ENDBRANCH  30  32
ENDBRANCH  28  30
ENDBRANCH  27  28
ENDBRANCH   1  27
TORSDOF 6
ENDMDL
MODEL 5
REMARK VINA RESULT:      -7.1      0.790      1.675
REMARK  Name = 
REMARK  8 active torsions:
REMARK  status: ('A' for Active; 'I' for Inactive)
REMARK    1  A    between atoms: C_1  and  C_2
REMARK    2  A    between atoms: C_2  and  O_3
REMARK    3  A    between atoms: O_3  and  C_4
REMARK    4  A    between atoms: C_4  and  C_5
REMARK    5  A    between atoms: C_4  and  O_6
REMARK    6  A    between atoms: O_6  and  C_7
REMARK    7  A    between atoms: N_14  and  C_15
REMARK    8  A    between atoms: C_20  and  N_21
REMARK                            x       y       z     vdW  Elec       q    Type
REMARK                         _______ _______ _______ _____ _____    ______ ____
ROOT
ATOM      1  C   UNL     1       0.152  11.660  19.926  0.00  0.00    +0.000 A 
ATOM      2  C   UNL     1       0.890  11.281  18.794  0.00  0.00    +0.000 A 
ATOM      3  C   UNL     1       1.472  10.023  18.652  0.00  0.00    +0.000 A 
ATOM      4  N   UNL     1       2.149   9.752  17.531  0.00  0.00    +0.000 NA
ATOM      5  C   UNL     1       2.703   8.537  17.426  0.00  0.00    +0.000 A 
ATOM      6  N   UNL     1       2.662   7.574  18.346  0.00  0.00    +0.000 NA
ATOM      7  C   UNL     1       1.986   7.853  19.478  0.00  0.00    +0.000 A 
ATOM      8  N   UNL     1       2.027   6.884  20.519  0.00  0.00    +0.000 N 
ATOM      9  C   UNL     1       1.332   9.091  19.689  0.00  0.00    +0.000 A 
ATOM     10  C   UNL     1       0.534   9.445  20.817  0.00  0.00    +0.000 A 
ATOM     11  C   UNL     1      -0.061  10.712  20.925  0.00  0.00    +0.000 A 
ATOM     12  O   UNL     1      -0.888  11.023  21.972  0.00  0.00    +0.000 OA
ATOM     13  C   UNL     1      -0.559  10.262  23.130  0.00  0.00    +0.000 C 
ATOM     14  C   UNL     1      -0.610   8.794  22.779  0.00  0.00    +0.000 C 
ATOM     15  O   UNL     1       0.372   8.476  21.790  0.00  0.00    +0.000 OA
ATOM     16  H   UNL     1       1.342   7.137  21.233  0.00  0.00    +0.000 HD
ENDROOT
BRANCH   8  17
ATOM     17  C   UNL     1       2.035   5.483  20.360  0.00  0.00    +0.000 A 
ATOM     18  C   UNL     1       0.826   4.784  20.488  0.00  0.00    +0.000 A 
ATOM     19  C   UNL     1       0.773   3.406  20.264  0.00  0.00    +0.000 A 
ATOM     20  C   UNL     1       1.925   2.718  19.893  0.00  0.00    +0.000 A 
ATOM     21  F   UNL     1       1.816   1.399  19.681  0.00  0.00    +0.000 F 
ATOM     22  C   UNL     1       3.127   3.404  19.740  0.00  0.00    +0.000 A 
ATOM     23  C   UNL     1       3.180   4.787  19.960  0.00  0.00    +0.000 A 
BRANCH  22  24
ATOM     24  N   UNL     1       4.344   2.704  19.335  0.00  0.00    +0.000 N 
ATOM     25  O   UNL     1       4.705   2.776  18.156  0.00  0.00    +0.000 OA
ATOM     26  O   UNL     1       4.959   2.075  20.210  0.00  0.00    +0.000 OA
ENDBRANCH  22  24
ENDBRANCH   8  17
BRANCH   1  27
ATOM     27  O   UNL     1      -0.307  12.952  19.903  0.00  0.00    +0.000 OA
BRANCH  27  28
ATOM     28  C   UNL     1       0.416  13.961  20.634  0.00  0.00    +0.000 C 
ATOM     29  C   UNL     1       1.910  13.744  20.386  0.00  0.00    +0.000 C 
BRANCH  28  30
ATOM     30  O   UNL     1       0.126  13.825  22.040  0.00  0.00    +0.000 OA
BRANCH  30  32
ATOM     31  C   UNL     1      -1.313  14.320  23.906  0.00  0.00    +0.000 C 
ATOM     32  C   UNL     1      -0.997  14.606  22.451  0.00  0.00    +0.000 C 
ENDBRANCH  30  32
ENDBRANCH  28  30
ENDBRANCH  27  28
ENDBRANCH   1  27
TORSDOF 6
ENDMDL
MODEL 6
REMARK VINA RESULT:      -7.1      0.680      1.362
REMARK  Name = 
REMARK  8 active torsions:
REMARK  status: ('A' for Active; 'I' for Inactive)
REMARK    1  A    between atoms: C_1  and  C_2
REMARK    2  A    between atoms: C_2  and  O_3
REMARK    3  A    between atoms: O_3  and  C_4
REMARK    4  A    between atoms: C_4  and  C_5
REMARK    5  A    between atoms: C_4  and  O_6
REMARK    6  A    between atoms: O_6  and  C_7
REMARK    7  A    between atoms: N_14  and  C_15
REMARK    8  A    between atoms: C_20  and  N_21
REMARK                            x       y       z     vdW  Elec       q    Type
REMARK                         _______ _______ _______ _____ _____    ______ ____
ROOT
ATOM      1  C   UNL     1       0.066  11.662  19.795  0.00  0.00    +0.000 A 
ATOM      2  C   UNL     1       0.803  11.248  18.675  0.00  0.00    +0.000 A 
ATOM      3  C   UNL     1       1.402   9.993  18.580  0.00  0.00    +0.000 A 
ATOM      4  N   UNL     1       2.077   9.687  17.466  0.00  0.00    +0.000 NA
ATOM      5  C   UNL     1       2.648   8.477  17.407  0.00  0.00    +0.000 A 
ATOM      6  N   UNL     1       2.625   7.551  18.365  0.00  0.00    +0.000 NA
ATOM      7  C   UNL     1       1.951   7.865  19.489  0.00  0.00    +0.000 A 
ATOM      8  N   UNL     1       2.011   6.940  20.568  0.00  0.00    +0.000 N 
ATOM      9  C   UNL     1       1.280   9.102  19.654  0.00  0.00    +0.000 A 
ATOM     10  C   UNL     1       0.484   9.490  20.771  0.00  0.00    +0.000 A 
ATOM     11  C   UNL     1      -0.128  10.752  20.832  0.00  0.00    +0.000 A 
ATOM     12  O   UNL     1      -0.954  11.093  21.870  0.00  0.00    +0.000 OA
ATOM     13  C   UNL     1      -0.608  10.384  23.056  0.00  0.00    +0.000 C 
ATOM     14  C   UNL     1      -0.640   8.903  22.764  0.00  0.00    +0.000 C 
ATOM     15  O   UNL     1       0.341   8.559  21.784  0.00  0.00    +0.000 OA
ATOM     16  H   UNL     1       1.326   7.212  21.275  0.00  0.00    +0.000 HD
ENDROOT
BRANCH   8  17
ATOM     17  C   UNL     1       2.038   5.534  20.465  0.00  0.00    +0.000 A 
ATOM     18  C   UNL     1       0.822   4.843  20.362  0.00  0.00    +0.000 A 
ATOM     19  C   UNL     1       0.802   3.458  20.182  0.00  0.00    +0.000 A 
ATOM     20  C   UNL     1       2.000   2.754  20.086  0.00  0.00    +0.000 A 
ATOM     21  F   UNL     1       1.924   1.428  19.904  0.00  0.00    +0.000 F 
ATOM     22  C   UNL     1       3.214   3.430  20.163  0.00  0.00    +0.000 A 
ATOM     23  C   UNL     1       3.234   4.820  20.339  0.00  0.00    +0.000 A 
BRANCH  22  24
ATOM     24  N   UNL     1       4.481   2.713  20.048  0.00  0.00    +0.000 N 
ATOM     25  O   UNL     1       4.806   1.934  20.950  0.00  0.00    +0.000 OA
ATOM     26  O   UNL     1       5.167   2.924  19.036  0.00  0.00    +0.000 OA
ENDBRANCH  22  24
ENDBRANCH   8  17
BRANCH   1  27
ATOM     27  O   UNL     1      -0.412  12.946  19.723  0.00  0.00    +0.000 OA
BRANCH  27  28
ATOM     28  C   UNL     1       0.488  14.039  19.987  0.00  0.00    +0.000 C 
ATOM     29  C   UNL     1       1.277  14.321  18.706  0.00  0.00    +0.000 C 
BRANCH  28  30
ATOM     30  O   UNL     1       1.391  13.664  21.047  0.00  0.00    +0.000 OA
BRANCH  30  32
ATOM     31  C   UNL     1       0.554  15.483  22.384  0.00  0.00    +0.000 C 
ATOM     32  C   UNL     1       1.785  14.773  21.856  0.00  0.00    +0.000 C 
ENDBRANCH  30  32
ENDBRANCH  28  30
ENDBRANCH  27  28
ENDBRANCH   1  27
TORSDOF 6
ENDMDL
MODEL 7
REMARK VINA RESULT:      -7.0      1.337      2.018
REMARK  Name = 
REMARK  8 active torsions:
REMARK  status: ('A' for Active; 'I' for Inactive)
REMARK    1  A    between atoms: C_1  and  C_2
REMARK    2  A    between atoms: C_2  and  O_3
REMARK    3  A    between atoms: O_3  and  C_4
REMARK    4  A    between atoms: C_4  and  C_5
REMARK    5  A    between atoms: C_4  and  O_6
REMARK    6  A    between atoms: O_6  and  C_7
REMARK    7  A    between atoms: N_14  and  C_15
REMARK    8  A    between atoms: C_20  and  N_21
REMARK                            x       y       z     vdW  Elec       q    Type
REMARK                         _______ _______ _______ _____ _____    ______ ____
ROOT
ATOM      1  C   UNL     1      -0.171  11.707  20.066  0.00  0.00    +0.000 A 
ATOM      2  C   UNL     1       0.538  11.377  18.901  0.00  0.00    +0.000 A 
ATOM      3  C   UNL     1       1.189  10.156  18.728  0.00  0.00    +0.000 A 
ATOM      4  N   UNL     1       1.831   9.930  17.577  0.00  0.00    +0.000 NA
ATOM      5  C   UNL     1       2.454   8.752  17.442  0.00  0.00    +0.000 A 
ATOM      6  N   UNL     1       2.513   7.787  18.359  0.00  0.00    +0.000 NA
ATOM      7  C   UNL     1       1.872   8.021  19.521  0.00  0.00    +0.000 A 
ATOM      8  N   UNL     1       2.019   7.055  20.555  0.00  0.00    +0.000 N 
ATOM      9  C   UNL     1       1.153   9.216  19.766  0.00  0.00    +0.000 A 
ATOM     10  C   UNL     1       0.386   9.518  20.929  0.00  0.00    +0.000 A 
ATOM     11  C   UNL     1      -0.281  10.746  21.069  0.00  0.00    +0.000 A 
ATOM     12  O   UNL     1      -1.078  11.003  22.153  0.00  0.00    +0.000 OA
ATOM     13  C   UNL     1      -0.652  10.262  23.292  0.00  0.00    +0.000 C 
ATOM     14  C   UNL     1      -0.628   8.795  22.937  0.00  0.00    +0.000 C 
ATOM     15  O   UNL     1       0.327   8.539  21.905  0.00  0.00    +0.000 OA
ATOM     16  H   UNL     1       1.352   7.264  21.300  0.00  0.00    +0.000 HD
ENDROOT
BRANCH   8  17
ATOM     17  C   UNL     1       2.106   5.657  20.389  0.00  0.00    +0.000 A 
ATOM     18  C   UNL     1       0.921   4.908  20.359  0.00  0.00    +0.000 A 
ATOM     19  C   UNL     1       0.955   3.532  20.122  0.00  0.00    +0.000 A 
ATOM     20  C   UNL     1       2.173   2.896  19.895  0.00  0.00    +0.000 A 
ATOM     21  F   UNL     1       2.147   1.576  19.663  0.00  0.00    +0.000 F 
ATOM     22  C   UNL     1       3.354   3.632  19.899  0.00  0.00    +0.000 A 
ATOM     23  C   UNL     1       3.321   5.014  20.133  0.00  0.00    +0.000 A 
BRANCH  22  24
ATOM     24  N   UNL     1       4.641   2.988  19.648  0.00  0.00    +0.000 N 
ATOM     25  O   UNL     1       5.376   3.454  18.770  0.00  0.00    +0.000 OA
ATOM     26  O   UNL     1       4.932   2.001  20.341  0.00  0.00    +0.000 OA
ENDBRANCH  22  24
ENDBRANCH   8  17
BRANCH   1  27
ATOM     27  O   UNL     1      -0.710  12.968  20.069  0.00  0.00    +0.000 OA
BRANCH  27  28
ATOM     28  C   UNL     1      -2.045  13.154  20.579  0.00  0.00    +0.000 C 
ATOM     29  C   UNL     1      -3.022  12.530  19.579  0.00  0.00    +0.000 C 
BRANCH  28  30
ATOM     30  O   UNL     1      -2.309  14.565  20.709  0.00  0.00    +0.000 OA
BRANCH  30  32
ATOM     31  C   UNL     1      -4.320  15.884  20.579  0.00  0.00    +0.000 C 
ATOM     32  C   UNL     1      -3.551  14.836  21.361  0.00  0.00    +0.000 C 
ENDBRANCH  30  32
ENDBRANCH  28  30
ENDBRANCH  27  28
ENDBRANCH   1  27
TORSDOF 6
ENDMDL
MODEL 8
REMARK VINA RESULT:      -6.9      1.158      1.854
REMARK  Name = 
REMARK  8 active torsions:
REMARK  status: ('A' for Active; 'I' for Inactive)
REMARK    1  A    between atoms: C_1  and  C_2
REMARK    2  A    between atoms: C_2  and  O_3
REMARK    3  A    between atoms: O_3  and  C_4
REMARK    4  A    between atoms: C_4  and  C_5
REMARK    5  A    between atoms: C_4  and  O_6
REMARK    6  A    between atoms: O_6  and  C_7
REMARK    7  A    between atoms: N_14  and  C_15
REMARK    8  A    between atoms: C_20  and  N_21
REMARK                            x       y       z     vdW  Elec       q    Type
REMARK                         _______ _______ _______ _____ _____    ______ ____
ROOT
ATOM      1  C   UNL     1       0.459  11.527  20.127  0.00  0.00    +0.000 A 
ATOM      2  C   UNL     1       1.173  11.144  18.981  0.00  0.00    +0.000 A 
ATOM      3  C   UNL     1       1.675   9.857  18.794  0.00  0.00    +0.000 A 
ATOM      4  N   UNL     1       2.336   9.585  17.663  0.00  0.00    +0.000 NA
ATOM      5  C   UNL     1       2.814   8.343  17.514  0.00  0.00    +0.000 A 
ATOM      6  N   UNL     1       2.713   7.352  18.400  0.00  0.00    +0.000 NA
ATOM      7  C   UNL     1       2.054   7.632  19.542  0.00  0.00    +0.000 A 
ATOM      8  N   UNL     1       2.034   6.626  20.549  0.00  0.00    +0.000 N 
ATOM      9  C   UNL     1       1.478   8.900  19.797  0.00  0.00    +0.000 A 
ATOM     10  C   UNL     1       0.703   9.262  20.938  0.00  0.00    +0.000 A 
ATOM     11  C   UNL     1       0.187  10.560  21.092  0.00  0.00    +0.000 A 
ATOM     12  O   UNL     1      -0.620  10.884  22.150  0.00  0.00    +0.000 OA
ATOM     13  C   UNL     1      -0.339  10.064  23.280  0.00  0.00    +0.000 C 
ATOM     14  C   UNL     1      -0.481   8.615  22.878  0.00  0.00    +0.000 C 
ATOM     15  O   UNL     1       0.481   8.272  21.877  0.00  0.00    +0.000 OA
ATOM     16  H   UNL     1       1.366   6.896  21.272  0.00  0.00    +0.000 HD
ENDROOT
BRANCH   8  17
ATOM     17  C   UNL     1       1.956   5.234  20.340  0.00  0.00    +0.000 A 
ATOM     18  C   UNL     1       0.693   4.625  20.332  0.00  0.00    +0.000 A 
ATOM     19  C   UNL     1       0.561   3.262  20.055  0.00  0.00    +0.000 A 
ATOM     20  C   UNL     1       1.690   2.501  19.765  0.00  0.00    +0.000 A 
ATOM     21  F   UNL     1       1.506   1.200  19.496  0.00  0.00    +0.000 F 
ATOM     22  C   UNL     1       2.947   3.098  19.746  0.00  0.00    +0.000 A 
ATOM     23  C   UNL     1       3.080   4.466  20.020  0.00  0.00    +0.000 A 
BRANCH  22  24
ATOM     24  N   UNL     1       4.143   2.321  19.429  0.00  0.00    +0.000 N 
ATOM     25  O   UNL     1       5.195   2.583  20.021  0.00  0.00    +0.000 OA
ATOM     26  O   UNL     1       4.033   1.425  18.577  0.00  0.00    +0.000 OA
ENDBRANCH  22  24
ENDBRANCH   8  17
BRANCH   1  27
ATOM     27  O   UNL     1       0.080  12.845  20.150  0.00  0.00    +0.000 OA
BRANCH  27  28
ATOM     28  C   UNL     1      -0.873  13.313  19.177  0.00  0.00    +0.000 C 
ATOM     29  C   UNL     1      -0.726  14.833  19.067  0.00  0.00    +0.000 C 
BRANCH  28  30
ATOM     30  O   UNL     1      -2.203  12.979  19.619  0.00  0.00    +0.000 OA
BRANCH  30  32
ATOM     31  C   UNL     1      -3.121  13.119  21.840  0.00  0.00    +0.000 C 
ATOM     32  C   UNL     1      -2.704  13.887  20.602  0.00  0.00    +0.000 C 
ENDBRANCH  30  32
ENDBRANCH  28  30
ENDBRANCH  27  28
ENDBRANCH   1  27
TORSDOF 6
ENDMDL
MODEL 9
REMARK VINA RESULT:      -6.9      3.313      8.201
REMARK  Name = 
REMARK  8 active torsions:
REMARK  status: ('A' for Active; 'I' for Inactive)
REMARK    1  A    between atoms: C_1  and  C_2
REMARK    2  A    between atoms: C_2  and  O_3
REMARK    3  A    between atoms: O_3  and  C_4
REMARK    4  A    between atoms: C_4  and  C_5
REMARK    5  A    between atoms: C_4  and  O_6
REMARK    6  A    between atoms: O_6  and  C_7
REMARK    7  A    between atoms: N_14  and  C_15
REMARK    8  A    between atoms: C_20  and  N_21
REMARK                            x       y       z     vdW  Elec       q    Type
REMARK                         _______ _______ _______ _____ _____    ______ ____
ROOT
ATOM      1  C   UNL     1       4.415   5.183  18.030  0.00  0.00    +0.000 A 
ATOM      2  C   UNL     1       4.311   6.429  17.393  0.00  0.00    +0.000 A 
ATOM      3  C   UNL     1       3.406   7.412  17.790  0.00  0.00    +0.000 A 
ATOM      4  N   UNL     1       3.388   8.573  17.126  0.00  0.00    +0.000 NA
ATOM      5  C   UNL     1       2.503   9.496  17.524  0.00  0.00    +0.000 A 
ATOM      6  N   UNL     1       1.618   9.359  18.511  0.00  0.00    +0.000 NA
ATOM      7  C   UNL     1       1.633   8.185  19.173  0.00  0.00    +0.000 A 
ATOM      8  N   UNL     1       0.622   7.974  20.152  0.00  0.00    +0.000 N 
ATOM      9  C   UNL     1       2.545   7.147  18.863  0.00  0.00    +0.000 A 
ATOM     10  C   UNL     1       2.682   5.908  19.554  0.00  0.00    +0.000 A 
ATOM     11  C   UNL     1       3.619   4.943  19.148  0.00  0.00    +0.000 A 
ATOM     12  O   UNL     1       3.802   3.786  19.860  0.00  0.00    +0.000 OA
ATOM     13  C   UNL     1       2.614   3.415  20.551  0.00  0.00    +0.000 C 
ATOM     14  C   UNL     1       2.183   4.564  21.431  0.00  0.00    +0.000 C 
ATOM     15  O   UNL     1       1.854   5.710  20.643  0.00  0.00    +0.000 OA
ATOM     16  H   UNL     1       0.852   7.137  20.690  0.00  0.00    +0.000 HD
ENDROOT
BRANCH   8  17
ATOM     17  C   UNL     1       0.077   8.946  21.016  0.00  0.00    +0.000 A 
ATOM     18  C   UNL     1       0.232   8.778  22.400  0.00  0.00    +0.000 A 
ATOM     19  C   UNL     1      -0.225   9.752  23.291  0.00  0.00    +0.000 A 
ATOM     20  C   UNL     1      -0.824  10.911  22.805  0.00  0.00    +0.000 A 
ATOM     21  F   UNL     1      -1.236  11.817  23.703  0.00  0.00    +0.000 F 
ATOM     22  C   UNL     1      -0.963  11.100  21.433  0.00  0.00    +0.000 A 
ATOM     23  C   UNL     1      -0.502  10.125  20.538  0.00  0.00    +0.000 A 
BRANCH  22  24
ATOM     24  N   UNL     1      -1.575  12.316  20.901  0.00  0.00    +0.000 N 
ATOM     25  O   UNL     1      -0.868  13.109  20.271  0.00  0.00    +0.000 OA
ATOM     26  O   UNL     1      -2.787  12.484  21.109  0.00  0.00    +0.000 OA
ENDBRANCH  22  24
ENDBRANCH   8  17
BRANCH   1  27
ATOM     27  O   UNL     1       5.334   4.331  17.473  0.00  0.00    +0.000 OA
BRANCH  27  28
ATOM     28  C   UNL     1       6.177   4.814  16.409  0.00  0.00    +0.000 C 
ATOM     29  C   UNL     1       5.980   3.898  15.199  0.00  0.00    +0.000 C 
BRANCH  28  30
ATOM     30  O   UNL     1       7.552   4.771  16.840  0.00  0.00    +0.000 OA
BRANCH  30  32
ATOM     31  C   UNL     1       7.895   6.377  18.601  0.00  0.00    +0.000 C 
ATOM     32  C   UNL     1       7.693   4.915  18.254  0.00  0.00    +0.000 C 
ENDBRANCH  30  32
ENDBRANCH  28  30
ENDBRANCH  27  28
ENDBRANCH   1  27
TORSDOF 6
ENDMDL
