MODEL 1
REMARK VINA RESULT:      -7.3      0.000      0.000
REMARK  Name = 
REMARK  7 active torsions:
REMARK  status: ('A' for Active; 'I' for Inactive)
REMARK    1  A    between atoms: C_1  and  C_2
REMARK    2  A    between atoms: C_2  and  N_3
REMARK    3  A    between atoms: N_3  and  C_4
REMARK    4  A    between atoms: N_3  and  C_5
REMARK    5  A    between atoms: C_10  and  N_11
REMARK    6  A    between atoms: C_12  and  C_14
REMARK    7  A    between atoms: C_14  and  C_15
REMARK                            x       y       z     vdW  Elec       q    Type
REMARK                         _______ _______ _______ _____ _____    ______ ____
ROOT
ATOM      1  N   UNL     1       4.492   5.396  17.750  0.00  0.00    +0.000 N 
ATOM      2  C   UNL     1       3.738   6.556  17.882  0.00  0.00    +0.000 C 
ATOM      3  O   UNL     1       3.833   7.561  17.185  0.00  0.00    +0.000 OA
ATOM      4  H   UNL     1       3.920   4.573  17.913  0.00  0.00    +0.000 HD
ENDROOT
BRANCH   1  10
ATOM      5  C   UNL     1       6.688   5.806  16.638  0.00  0.00    +0.000 A 
ATOM      6  C   UNL     1       7.484   5.452  15.522  0.00  0.00    +0.000 A 
ATOM      7  C   UNL     1       7.044   4.598  14.503  0.00  0.00    +0.000 A 
ATOM      8  C   UNL     1       5.771   4.053  14.565  0.00  0.00    +0.000 A 
ATOM      9  C   UNL     1       4.952   4.357  15.645  0.00  0.00    +0.000 A 
ATOM     10  C   UNL     1       5.388   5.227  16.664  0.00  0.00    +0.000 A 
BRANCH   5  11
ATOM     11  N   UNL     1       7.248   6.621  17.628  0.00  0.00    +0.000 N 
ATOM     12  C   UNL     1       7.774   5.992  18.840  0.00  0.00    +0.000 C 
BRANCH  11  14
ATOM     13  C   UNL     1       8.491   8.624  18.421  0.00  0.00    +0.000 C 
ATOM     14  C   UNL     1       7.468   8.055  17.443  0.00  0.00    +0.000 C 
ENDBRANCH  11  14
ENDBRANCH   5  11
ENDBRANCH   1  10
BRANCH   2  15
ATOM     15  C   UNL     1       2.729   6.460  19.023  0.00  0.00    +0.000 C 
BRANCH  15  16
ATOM     16  C   UNL     1       2.132   5.082  19.200  0.00  0.00    +0.000 A 
ATOM     17  C   UNL     1       1.585   4.396  18.105  0.00  0.00    +0.000 A 
ATOM     18  C   UNL     1       1.022   3.127  18.266  0.00  0.00    +0.000 A 
ATOM     19  C   UNL     1       0.995   2.529  19.523  0.00  0.00    +0.000 A 
ATOM     20  C   UNL     1       1.515   3.209  20.621  0.00  0.00    +0.000 A 
ATOM     21 CL   UNL     1       1.464   2.481  22.180  0.00  0.00    +0.000 Cl
ATOM     22  C   UNL     1       2.079   4.478  20.467  0.00  0.00    +0.000 A 
ENDBRANCH  15  16
ENDBRANCH   2  15
TORSDOF 5
ENDMDL
MODEL 2
REMARK VINA RESULT:      -7.3      1.044      1.521
REMARK  Name = 
REMARK  7 active torsions:
REMARK  status: ('A' for Active; 'I' for Inactive)
REMARK    1  A    between atoms: C_1  and  C_2
REMARK    2  A    between atoms: C_2  and  N_3
REMARK    3  A    between atoms: N_3  and  C_4
REMARK    4  A    between atoms: N_3  and  C_5
REMARK    5  A    between atoms: C_10  and  N_11
REMARK    6  A    between atoms: C_12  and  C_14
REMARK    7  A    between atoms: C_14  and  C_15
REMARK                            x       y       z     vdW  Elec       q    Type
REMARK                         _______ _______ _______ _____ _____    ______ ____
ROOT
ATOM      1  N   UNL     1       4.393   5.477  18.258  0.00  0.00    +0.000 N 
ATOM      2  C   UNL     1       3.536   6.571  18.259  0.00  0.00    +0.000 C 
ATOM      3  O   UNL     1       3.472   7.438  17.393  0.00  0.00    +0.000 OA
ATOM      4  H   UNL     1       3.924   4.651  18.615  0.00  0.00    +0.000 HD
ENDROOT
BRANCH   1  10
ATOM      5  C   UNL     1       6.516   5.744  16.974  0.00  0.00    +0.000 A 
ATOM      6  C   UNL     1       7.233   5.275  15.846  0.00  0.00    +0.000 A 
ATOM      7  C   UNL     1       6.716   4.340  14.941  0.00  0.00    +0.000 A 
ATOM      8  C   UNL     1       5.444   3.827  15.135  0.00  0.00    +0.000 A 
ATOM      9  C   UNL     1       4.701   4.243  16.232  0.00  0.00    +0.000 A 
ATOM     10  C   UNL     1       5.215   5.194  17.137  0.00  0.00    +0.000 A 
BRANCH   5  11
ATOM     11  N   UNL     1       7.151   6.635  17.847  0.00  0.00    +0.000 N 
ATOM     12  C   UNL     1       7.883   6.094  18.992  0.00  0.00    +0.000 C 
BRANCH  11  14
ATOM     13  C   UNL     1       8.449   8.716  18.257  0.00  0.00    +0.000 C 
ATOM     14  C   UNL     1       7.242   8.071  17.584  0.00  0.00    +0.000 C 
ENDBRANCH  11  14
ENDBRANCH   5  11
ENDBRANCH   1  10
BRANCH   2  15
ATOM     15  C   UNL     1       2.636   6.595  19.491  0.00  0.00    +0.000 C 
BRANCH  15  16
ATOM     16  C   UNL     1       2.212   5.225  19.969  0.00  0.00    +0.000 A 
ATOM     17  C   UNL     1       2.482   4.814  21.283  0.00  0.00    +0.000 A 
ATOM     18  C   UNL     1       2.101   3.544  21.726  0.00  0.00    +0.000 A 
ATOM     19  C   UNL     1       1.451   2.668  20.860  0.00  0.00    +0.000 A 
ATOM     20  C   UNL     1       1.197   3.057  19.548  0.00  0.00    +0.000 A 
ATOM     21 CL   UNL     1       0.411   1.968  18.470  0.00  0.00    +0.000 Cl
ATOM     22  C   UNL     1       1.574   4.325  19.099  0.00  0.00    +0.000 A 
ENDBRANCH  15  16
ENDBRANCH   2  15
TORSDOF 5
ENDMDL
MODEL 3
REMARK VINA RESULT:      -7.0      0.523      1.174
REMARK  Name = 
REMARK  7 active torsions:
REMARK  status: ('A' for Active; 'I' for Inactive)
REMARK    1  A    between atoms: C_1  and  C_2
REMARK    2  A    between atoms: C_2  and  N_3
REMARK    3  A    between atoms: N_3  and  C_4
REMARK    4  A    between atoms: N_3  and  C_5
REMARK    5  A    between atoms: C_10  and  N_11
REMARK    6  A    between atoms: C_12  and  C_14
REMARK    7  A    between atoms: C_14  and  C_15
REMARK                            x       y       z     vdW  Elec       q    Type
REMARK                         _______ _______ _______ _____ _____    ______ ____
ROOT
ATOM      1  N   UNL     1       4.505   5.333  17.480  0.00  0.00    +0.000 N 
ATOM      2  C   UNL     1       3.851   6.541  17.691  0.00  0.00    +0.000 C 
ATOM      3  O   UNL     1       3.998   7.565  17.032  0.00  0.00    +0.000 OA
ATOM      4  H   UNL     1       3.877   4.550  17.635  0.00  0.00    +0.000 HD
ENDROOT
BRANCH   1  10
ATOM      5  C   UNL     1       6.716   5.513  16.336  0.00  0.00    +0.000 A 
ATOM      6  C   UNL     1       7.423   5.159  15.161  0.00  0.00    +0.000 A 
ATOM      7  C   UNL     1       6.833   4.496  14.078  0.00  0.00    +0.000 A 
ATOM      8  C   UNL     1       5.492   4.151  14.132  0.00  0.00    +0.000 A 
ATOM      9  C   UNL     1       4.753   4.463  15.266  0.00  0.00    +0.000 A 
ATOM     10  C   UNL     1       5.342   5.142  16.351  0.00  0.00    +0.000 A 
BRANCH   5  11
ATOM     11  N   UNL     1       7.417   6.123  17.382  0.00  0.00    +0.000 N 
ATOM     12  C   UNL     1       7.506   7.583  17.409  0.00  0.00    +0.000 C 
BRANCH  11  14
ATOM     13  C   UNL     1       7.038   5.483  19.755  0.00  0.00    +0.000 C 
ATOM     14  C   UNL     1       7.937   5.378  18.528  0.00  0.00    +0.000 C 
ENDBRANCH  11  14
ENDBRANCH   5  11
ENDBRANCH   1  10
BRANCH   2  15
ATOM     15  C   UNL     1       2.884   6.473  18.870  0.00  0.00    +0.000 C 
BRANCH  15  16
ATOM     16  C   UNL     1       2.249   5.115  19.066  0.00  0.00    +0.000 A 
ATOM     17  C   UNL     1       1.658   4.443  17.986  0.00  0.00    +0.000 A 
ATOM     18  C   UNL     1       1.060   3.192  18.164  0.00  0.00    +0.000 A 
ATOM     19  C   UNL     1       1.041   2.600  19.425  0.00  0.00    +0.000 A 
ATOM     20  C   UNL     1       1.605   3.268  20.508  0.00  0.00    +0.000 A 
ATOM     21 CL   UNL     1       1.564   2.548  22.072  0.00  0.00    +0.000 Cl
ATOM     22  C   UNL     1       2.204   4.519  20.337  0.00  0.00    +0.000 A 
ENDBRANCH  15  16
ENDBRANCH   2  15
TORSDOF 5
ENDMDL
MODEL 4
REMARK VINA RESULT:      -7.0      3.185      5.029
REMARK  Name = 
REMARK  7 active torsions:
REMARK  status: ('A' for Active; 'I' for Inactive)
REMARK    1  A    between atoms: C_1  and  C_2
REMARK    2  A    between atoms: C_2  and  N_3
REMARK    3  A    between atoms: N_3  and  C_4
REMARK    4  A    between atoms: N_3  and  C_5
REMARK    5  A    between atoms: C_10  and  N_11
REMARK    6  A    between atoms: C_12  and  C_14
REMARK    7  A    between atoms: C_14  and  C_15
REMARK                            x       y       z     vdW  Elec       q    Type
REMARK                         _______ _______ _______ _____ _____    ______ ____
ROOT
ATOM      1  N   UNL     1       2.378   5.815  17.710  0.00  0.00    +0.000 N 
ATOM      2  C   UNL     1       2.635   6.710  18.741  0.00  0.00    +0.000 C 
ATOM      3  O   UNL     1       2.872   6.417  19.909  0.00  0.00    +0.000 OA
ATOM      4  H   UNL     1       2.812   6.123  16.846  0.00  0.00    +0.000 HD
ENDROOT
BRANCH   1  10
ATOM      5  C   UNL     1       3.744   3.729  17.821  0.00  0.00    +0.000 A 
ATOM      6  C   UNL     1       3.696   2.351  18.148  0.00  0.00    +0.000 A 
ATOM      7  C   UNL     1       2.521   1.692  18.528  0.00  0.00    +0.000 A 
ATOM      8  C   UNL     1       1.330   2.396  18.603  0.00  0.00    +0.000 A 
ATOM      9  C   UNL     1       1.322   3.752  18.306  0.00  0.00    +0.000 A 
ATOM     10  C   UNL     1       2.500   4.416  17.910  0.00  0.00    +0.000 A 
BRANCH   5  11
ATOM     11  N   UNL     1       4.982   4.301  17.510  0.00  0.00    +0.000 N 
ATOM     12  C   UNL     1       5.855   4.724  18.606  0.00  0.00    +0.000 C 
BRANCH  11  14
ATOM     13  C   UNL     1       5.383   5.746  15.526  0.00  0.00    +0.000 C 
ATOM     14  C   UNL     1       5.508   4.358  16.147  0.00  0.00    +0.000 C 
ENDBRANCH  11  14
ENDBRANCH   5  11
ENDBRANCH   1  10
BRANCH   2  15
ATOM     15  C   UNL     1       2.598   8.160  18.266  0.00  0.00    +0.000 C 
BRANCH  15  16
ATOM     16  C   UNL     1       1.415   8.947  18.784  0.00  0.00    +0.000 A 
ATOM     17  C   UNL     1       0.553   9.605  17.894  0.00  0.00    +0.000 A 
ATOM     18  C   UNL     1      -0.535  10.342  18.368  0.00  0.00    +0.000 A 
ATOM     19  C   UNL     1      -0.774  10.434  19.737  0.00  0.00    +0.000 A 
ATOM     20  C   UNL     1       0.086   9.802  20.631  0.00  0.00    +0.000 A 
ATOM     21 CL   UNL     1      -0.194   9.931  22.324  0.00  0.00    +0.000 Cl
ATOM     22  C   UNL     1       1.177   9.064  20.163  0.00  0.00    +0.000 A 
ENDBRANCH  15  16
ENDBRANCH   2  15
TORSDOF 5
ENDMDL
MODEL 5
REMARK VINA RESULT:      -7.0      3.151      5.374
REMARK  Name = 
REMARK  7 active torsions:
REMARK  status: ('A' for Active; 'I' for Inactive)
REMARK    1  A    between atoms: C_1  and  C_2
REMARK    2  A    between atoms: C_2  and  N_3
REMARK    3  A    between atoms: N_3  and  C_4
REMARK    4  A    between atoms: N_3  and  C_5
REMARK    5  A    between atoms: C_10  and  N_11
REMARK    6  A    between atoms: C_12  and  C_14
REMARK    7  A    between atoms: C_14  and  C_15
REMARK                            x       y       z     vdW  Elec       q    Type
REMARK                         _______ _______ _______ _____ _____    ______ ____
ROOT
ATOM      1  N   UNL     1       3.148   6.315  19.612  0.00  0.00    +0.000 N 
ATOM      2  C   UNL     1       2.506   6.737  18.454  0.00  0.00    +0.000 C 
ATOM      3  O   UNL     1       1.932   6.016  17.643  0.00  0.00    +0.000 OA
ATOM      4  H   UNL     1       2.988   6.969  20.372  0.00  0.00    +0.000 HD
ENDROOT
BRANCH   1  10
ATOM      5  C   UNL     1       3.932   3.948  19.521  0.00  0.00    +0.000 A 
ATOM      6  C   UNL     1       3.790   2.676  20.128  0.00  0.00    +0.000 A 
ATOM      7  C   UNL     1       2.879   2.414  21.159  0.00  0.00    +0.000 A 
ATOM      8  C   UNL     1       2.065   3.429  21.632  0.00  0.00    +0.000 A 
ATOM      9  C   UNL     1       2.171   4.700  21.081  0.00  0.00    +0.000 A 
ATOM     10  C   UNL     1       3.078   4.964  20.035  0.00  0.00    +0.000 A 
BRANCH   5  11
ATOM     11  N   UNL     1       4.915   4.115  18.539  0.00  0.00    +0.000 N 
ATOM     12  C   UNL     1       4.611   3.707  17.166  0.00  0.00    +0.000 C 
BRANCH  11  14
ATOM     13  C   UNL     1       6.354   6.039  17.897  0.00  0.00    +0.000 C 
ATOM     14  C   UNL     1       6.174   4.815  18.789  0.00  0.00    +0.000 C 
ENDBRANCH  11  14
ENDBRANCH   5  11
ENDBRANCH   1  10
BRANCH   2  15
ATOM     15  C   UNL     1       2.578   8.251  18.275  0.00  0.00    +0.000 C 
BRANCH  15  16
ATOM     16  C   UNL     1       1.399   8.996  18.860  0.00  0.00    +0.000 A 
ATOM     17  C   UNL     1       0.571   9.776  18.039  0.00  0.00    +0.000 A 
ATOM     18  C   UNL     1      -0.513  10.474  18.578  0.00  0.00    +0.000 A 
ATOM     19  C   UNL     1      -0.781  10.406  19.943  0.00  0.00    +0.000 A 
ATOM     20  C   UNL     1       0.047   9.652  20.770  0.00  0.00    +0.000 A 
ATOM     21 CL   UNL     1      -0.269   9.582  22.461  0.00  0.00    +0.000 Cl
ATOM     22  C   UNL     1       1.133   8.951  20.238  0.00  0.00    +0.000 A 
ENDBRANCH  15  16
ENDBRANCH   2  15
TORSDOF 5
ENDMDL
MODEL 6
REMARK VINA RESULT:      -6.9      3.597      5.390
REMARK  Name = 
REMARK  7 active torsions:
REMARK  status: ('A' for Active; 'I' for Inactive)
REMARK    1  A    between atoms: C_1  and  C_2
REMARK    2  A    between atoms: C_2  and  N_3
REMARK    3  A    between atoms: N_3  and  C_4
REMARK    4  A    between atoms: N_3  and  C_5
REMARK    5  A    between atoms: C_10  and  N_11
REMARK    6  A    between atoms: C_12  and  C_14
REMARK    7  A    between atoms: C_14  and  C_15
REMARK                            x       y       z     vdW  Elec       q    Type
REMARK                         _______ _______ _______ _____ _____    ______ ____
ROOT
ATOM      1  N   UNL     1       2.348   5.946  17.736  0.00  0.00    +0.000 N 
ATOM      2  C   UNL     1       2.515   6.889  18.744  0.00  0.00    +0.000 C 
ATOM      3  O   UNL     1       2.687   6.649  19.935  0.00  0.00    +0.000 OA
ATOM      4  H   UNL     1       2.828   6.234  16.889  0.00  0.00    +0.000 HD
ENDROOT
BRANCH   1  10
ATOM      5  C   UNL     1       3.765   3.917  18.058  0.00  0.00    +0.000 A 
ATOM      6  C   UNL     1       3.731   2.551  18.431  0.00  0.00    +0.000 A 
ATOM      7  C   UNL     1       2.547   1.862  18.722  0.00  0.00    +0.000 A 
ATOM      8  C   UNL     1       1.332   2.524  18.654  0.00  0.00    +0.000 A 
ATOM      9  C   UNL     1       1.308   3.869  18.306  0.00  0.00    +0.000 A 
ATOM     10  C   UNL     1       2.497   4.561  18.000  0.00  0.00    +0.000 A 
BRANCH   5  11
ATOM     11  N   UNL     1       5.008   4.522  17.846  0.00  0.00    +0.000 N 
ATOM     12  C   UNL     1       5.762   5.001  19.005  0.00  0.00    +0.000 C 
BRANCH  11  14
ATOM     13  C   UNL     1       5.387   5.866  15.788  0.00  0.00    +0.000 C 
ATOM     14  C   UNL     1       5.656   4.564  16.535  0.00  0.00    +0.000 C 
ENDBRANCH  11  14
ENDBRANCH   5  11
ENDBRANCH   1  10
BRANCH   2  15
ATOM     15  C   UNL     1       2.468   8.317  18.208  0.00  0.00    +0.000 C 
BRANCH  15  16
ATOM     16  C   UNL     1       1.273   9.113  18.684  0.00  0.00    +0.000 A 
ATOM     17  C   UNL     1       1.114   9.415  20.045  0.00  0.00    +0.000 A 
ATOM     18  C   UNL     1       0.006  10.140  20.490  0.00  0.00    +0.000 A 
ATOM     19  C   UNL     1      -0.960  10.569  19.582  0.00  0.00    +0.000 A 
ATOM     20  C   UNL     1      -0.824  10.256  18.233  0.00  0.00    +0.000 A 
ATOM     21 CL   UNL     1      -2.026  10.766  17.111  0.00  0.00    +0.000 Cl
ATOM     22  C   UNL     1       0.283   9.531  17.781  0.00  0.00    +0.000 A 
ENDBRANCH  15  16
ENDBRANCH   2  15
TORSDOF 5
ENDMDL
MODEL 7
REMARK VINA RESULT:      -6.9      3.615      5.301
REMARK  Name = 
REMARK  7 active torsions:
REMARK  status: ('A' for Active; 'I' for Inactive)
REMARK    1  A    between atoms: C_1  and  C_2
REMARK    2  A    between atoms: C_2  and  N_3
REMARK    3  A    between atoms: N_3  and  C_4
REMARK    4  A    between atoms: N_3  and  C_5
REMARK    5  A    between atoms: C_10  and  N_11
REMARK    6  A    between atoms: C_12  and  C_14
REMARK    7  A    between atoms: C_14  and  C_15
REMARK                            x       y       z     vdW  Elec       q    Type
REMARK                         _______ _______ _______ _____ _____    ______ ____
ROOT
ATOM      1  N   UNL     1       2.551   6.080  17.723  0.00  0.00    +0.000 N 
ATOM      2  C   UNL     1       2.482   6.985  18.776  0.00  0.00    +0.000 C 
ATOM      3  O   UNL     1       2.409   6.701  19.967  0.00  0.00    +0.000 OA
ATOM      4  H   UNL     1       3.189   6.409  17.005  0.00  0.00    +0.000 HD
ENDROOT
BRANCH   1  10
ATOM      5  C   UNL     1       3.931   4.042  18.132  0.00  0.00    +0.000 A 
ATOM      6  C   UNL     1       3.861   2.666  18.462  0.00  0.00    +0.000 A 
ATOM      7  C   UNL     1       2.655   1.971  18.613  0.00  0.00    +0.000 A 
ATOM      8  C   UNL     1       1.452   2.636  18.440  0.00  0.00    +0.000 A 
ATOM      9  C   UNL     1       1.461   3.990  18.127  0.00  0.00    +0.000 A 
ATOM     10  C   UNL     1       2.674   4.688  17.963  0.00  0.00    +0.000 A 
BRANCH   5  11
ATOM     11  N   UNL     1       5.188   4.651  18.064  0.00  0.00    +0.000 N 
ATOM     12  C   UNL     1       5.832   4.787  16.756  0.00  0.00    +0.000 C 
BRANCH  11  14
ATOM     13  C   UNL     1       7.275   5.672  18.951  0.00  0.00    +0.000 C 
ATOM     14  C   UNL     1       5.822   5.292  19.215  0.00  0.00    +0.000 C 
ENDBRANCH  11  14
ENDBRANCH   5  11
ENDBRANCH   1  10
BRANCH   2  15
ATOM     15  C   UNL     1       2.514   8.433  18.293  0.00  0.00    +0.000 C 
BRANCH  15  16
ATOM     16  C   UNL     1       1.249   9.206  18.587  0.00  0.00    +0.000 A 
ATOM     17  C   UNL     1       1.039   9.775  19.853  0.00  0.00    +0.000 A 
ATOM     18  C   UNL     1      -0.134  10.481  20.132  0.00  0.00    +0.000 A 
ATOM     19  C   UNL     1      -1.114  10.625  19.153  0.00  0.00    +0.000 A 
ATOM     20  C   UNL     1      -0.927  10.046  17.901  0.00  0.00    +0.000 A 
ATOM     21 CL   UNL     1      -2.145  10.204  16.696  0.00  0.00    +0.000 Cl
ATOM     22  C   UNL     1       0.244   9.339  17.615  0.00  0.00    +0.000 A 
ENDBRANCH  15  16
ENDBRANCH   2  15
TORSDOF 5
ENDMDL
MODEL 8
REMARK VINA RESULT:      -6.8      3.306      5.011
REMARK  Name = 
REMARK  7 active torsions:
REMARK  status: ('A' for Active; 'I' for Inactive)
REMARK    1  A    between atoms: C_1  and  C_2
REMARK    2  A    between atoms: C_2  and  N_3
REMARK    3  A    between atoms: N_3  and  C_4
REMARK    4  A    between atoms: N_3  and  C_5
REMARK    5  A    between atoms: C_10  and  N_11
REMARK    6  A    between atoms: C_12  and  C_14
REMARK    7  A    between atoms: C_14  and  C_15
REMARK                            x       y       z     vdW  Elec       q    Type
REMARK                         _______ _______ _______ _____ _____    ______ ____
ROOT
ATOM      1  N   UNL     1       2.549   5.897  17.810  0.00  0.00    +0.000 N 
ATOM      2  C   UNL     1       2.506   6.787  18.877  0.00  0.00    +0.000 C 
ATOM      3  O   UNL     1       2.453   6.487  20.065  0.00  0.00    +0.000 OA
ATOM      4  H   UNL     1       3.176   6.231  17.085  0.00  0.00    +0.000 HD
ENDROOT
BRANCH   1  10
ATOM      5  C   UNL     1       3.921   3.844  18.168  0.00  0.00    +0.000 A 
ATOM      6  C   UNL     1       3.847   2.464  18.479  0.00  0.00    +0.000 A 
ATOM      7  C   UNL     1       2.639   1.774  18.639  0.00  0.00    +0.000 A 
ATOM      8  C   UNL     1       1.438   2.450  18.494  0.00  0.00    +0.000 A 
ATOM      9  C   UNL     1       1.452   3.808  18.201  0.00  0.00    +0.000 A 
ATOM     10  C   UNL     1       2.666   4.500  18.028  0.00  0.00    +0.000 A 
BRANCH   5  11
ATOM     11  N   UNL     1       5.181   4.446  18.089  0.00  0.00    +0.000 N 
ATOM     12  C   UNL     1       5.849   4.506  16.788  0.00  0.00    +0.000 C 
BRANCH  11  14
ATOM     13  C   UNL     1       7.169   5.718  18.873  0.00  0.00    +0.000 C 
ATOM     14  C   UNL     1       5.795   5.150  19.214  0.00  0.00    +0.000 C 
ENDBRANCH  11  14
ENDBRANCH   5  11
ENDBRANCH   1  10
BRANCH   2  15
ATOM     15  C   UNL     1       2.540   8.241  18.414  0.00  0.00    +0.000 C 
BRANCH  15  16
ATOM     16  C   UNL     1       1.341   9.052  18.852  0.00  0.00    +0.000 A 
ATOM     17  C   UNL     1       0.473   9.611  17.901  0.00  0.00    +0.000 A 
ATOM     18  C   UNL     1      -0.629  10.370  18.301  0.00  0.00    +0.000 A 
ATOM     19  C   UNL     1      -0.877  10.586  19.655  0.00  0.00    +0.000 A 
ATOM     20  C   UNL     1      -0.010  10.055  20.607  0.00  0.00    +0.000 A 
ATOM     21 CL   UNL     1      -0.301  10.337  22.280  0.00  0.00    +0.000 Cl
ATOM     22  C   UNL     1       1.095   9.294  20.213  0.00  0.00    +0.000 A 
ENDBRANCH  15  16
ENDBRANCH   2  15
TORSDOF 5
ENDMDL
MODEL 9
REMARK VINA RESULT:      -6.8      3.698      5.916
REMARK  Name = 
REMARK  7 active torsions:
REMARK  status: ('A' for Active; 'I' for Inactive)
REMARK    1  A    between atoms: C_1  and  C_2
REMARK    2  A    between atoms: C_2  and  N_3
REMARK    3  A    between atoms: N_3  and  C_4
REMARK    4  A    between atoms: N_3  and  C_5
REMARK    5  A    between atoms: C_10  and  N_11
REMARK    6  A    between atoms: C_12  and  C_14
REMARK    7  A    between atoms: C_14  and  C_15
REMARK                            x       y       z     vdW  Elec       q    Type
REMARK                         _______ _______ _______ _____ _____    ______ ____
ROOT
ATOM      1  N   UNL     1       2.298   6.157  18.257  0.00  0.00    +0.000 N 
ATOM      2  C   UNL     1       2.293   7.410  18.858  0.00  0.00    +0.000 C 
ATOM      3  O   UNL     1       2.281   7.631  20.064  0.00  0.00    +0.000 OA
ATOM      4  H   UNL     1       2.899   6.150  17.438  0.00  0.00    +0.000 HD
ENDROOT
BRANCH   1  10
ATOM      5  C   UNL     1       3.630   4.225  19.106  0.00  0.00    +0.000 A 
ATOM      6  C   UNL     1       3.605   3.130  20.004  0.00  0.00    +0.000 A 
ATOM      7  C   UNL     1       2.484   2.790  20.771  0.00  0.00    +0.000 A 
ATOM      8  C   UNL     1       1.328   3.546  20.671  0.00  0.00    +0.000 A 
ATOM      9  C   UNL     1       1.301   4.639  19.814  0.00  0.00    +0.000 A 
ATOM     10  C   UNL     1       2.424   4.975  19.031  0.00  0.00    +0.000 A 
BRANCH   5  11
ATOM     11  N   UNL     1       4.822   4.511  18.432  0.00  0.00    +0.000 N 
ATOM     12  C   UNL     1       5.915   5.140  19.175  0.00  0.00    +0.000 C 
BRANCH  11  14
ATOM     13  C   UNL     1       5.252   5.243  16.094  0.00  0.00    +0.000 C 
ATOM     14  C   UNL     1       5.082   4.075  17.060  0.00  0.00    +0.000 C 
ENDBRANCH  11  14
ENDBRANCH   5  11
ENDBRANCH   1  10
BRANCH   2  15
ATOM     15  C   UNL     1       2.310   8.540  17.832  0.00  0.00    +0.000 C 
BRANCH  15  16
ATOM     16  C   UNL     1       1.281   9.618  18.089  0.00  0.00    +0.000 A 
ATOM     17  C   UNL     1       1.673  10.874  18.576  0.00  0.00    +0.000 A 
ATOM     18  C   UNL     1       0.725  11.870  18.826  0.00  0.00    +0.000 A 
ATOM     19  C   UNL     1      -0.626  11.623  18.597  0.00  0.00    +0.000 A 
ATOM     20  C   UNL     1      -1.029  10.373  18.134  0.00  0.00    +0.000 A 
ATOM     21 CL   UNL     1      -2.700  10.057  17.870  0.00  0.00    +0.000 Cl
ATOM     22  C   UNL     1      -0.086   9.372  17.882  0.00  0.00    +0.000 A 
ENDBRANCH  15  16
ENDBRANCH   2  15
TORSDOF 5
ENDMDL
