MODEL 1
REMARK VINA RESULT:      -7.3      0.000      0.000
REMARK  Name = 
REMARK  3 active torsions:
REMARK  status: ('A' for Active; 'I' for Inactive)
REMARK    1  A    between atoms: C_2  and  C_15
REMARK    2  A    between atoms: N_3  and  C_4
REMARK    3  A    between atoms: C_7  and  C_8
REMARK                            x       y       z     vdW  Elec       q    Type
REMARK                         _______ _______ _______ _____ _____    ______ ____
ROOT
ATOM      1  C   UNL     1       1.845   8.142  19.324  0.00  0.00    +0.000 A 
ATOM      2  C   UNL     1       2.127   6.954  19.998  0.00  0.00    +0.000 A 
ATOM      3  C   UNL     1       3.047   6.039  19.494  0.00  0.00    +0.000 A 
ATOM      4  C   UNL     1       3.732   6.289  18.302  0.00  0.00    +0.000 A 
ATOM      5  C   UNL     1       3.412   7.461  17.595  0.00  0.00    +0.000 A 
ATOM      6  C   UNL     1       2.468   8.375  18.095  0.00  0.00    +0.000 A 
ENDROOT
BRANCH   4   7
ATOM      7  C   UNL     1       4.784   5.333  17.767  0.00  0.00    +0.000 C 
ATOM      8  C   UNL     1       4.163   4.172  17.000  0.00  0.00    +0.000 C 
ATOM      9  C   UNL     1       3.991   3.096  18.055  0.00  0.00    +0.000 C 
ATOM     10  N   UNL     1       5.144   3.229  18.951  0.00  0.00    +0.000 NA
ATOM     11  C   UNL     1       5.635   4.616  18.831  0.00  0.00    +0.000 C 
ATOM     12  H   UNL     1       5.881   2.594  18.644  0.00  0.00    +0.000 HD
ENDBRANCH   4   7
BRANCH   1  15
ATOM     13  O   UNL     1       1.417   8.905  22.123  0.00  0.00    +0.000 OA
ATOM     14  C   UNL     1       0.788   9.395  21.189  0.00  0.00    +0.000 C 
ATOM     15  N   UNL     1       0.956   9.109  19.840  0.00  0.00    +0.000 N 
ATOM     16  H   UNL     1       0.456   9.712  19.195  0.00  0.00    +0.000 HD
BRANCH  14  17
ATOM     17  C   UNL     1      -0.239  10.431  21.502  0.00  0.00    +0.000 A 
ATOM     18  C   UNL     1      -0.662  10.568  22.825  0.00  0.00    +0.000 A 
ATOM     19  C   UNL     1      -1.641  11.507  23.121  0.00  0.00    +0.000 A 
ATOM     20  C   UNL     1      -2.172  12.271  22.089  0.00  0.00    +0.000 A 
ATOM     21 CL   UNL     1      -3.398  13.426  22.409  0.00  0.00    +0.000 Cl
ATOM     22  C   UNL     1      -1.689  12.075  20.799  0.00  0.00    +0.000 A 
ATOM     23  N   UNL     1      -0.722  11.177  20.469  0.00  0.00    +0.000 NA
ENDBRANCH  14  17
ENDBRANCH   1  15
TORSDOF 3
ENDMDL
MODEL 2
REMARK VINA RESULT:      -7.3      1.943      2.547
REMARK  Name = 
REMARK  3 active torsions:
REMARK  status: ('A' for Active; 'I' for Inactive)
REMARK    1  A    between atoms: C_2  and  C_15
REMARK    2  A    between atoms: N_3  and  C_4
REMARK    3  A    between atoms: C_7  and  C_8
REMARK                            x       y       z     vdW  Elec       q    Type
REMARK                         _______ _______ _______ _____ _____    ______ ____
ROOT
ATOM      1  C   UNL     1       2.708   7.204  18.760  0.00  0.00    +0.000 A 
ATOM      2  C   UNL     1       3.631   7.751  17.869  0.00  0.00    +0.000 A 
ATOM      3  C   UNL     1       4.383   6.943  17.020  0.00  0.00    +0.000 A 
ATOM      4  C   UNL     1       4.225   5.554  17.023  0.00  0.00    +0.000 A 
ATOM      5  C   UNL     1       3.335   4.997  17.957  0.00  0.00    +0.000 A 
ATOM      6  C   UNL     1       2.591   5.813  18.826  0.00  0.00    +0.000 A 
ENDROOT
BRANCH   4   7
ATOM      7  C   UNL     1       4.991   4.659  16.064  0.00  0.00    +0.000 C 
ATOM      8  C   UNL     1       5.998   3.774  16.790  0.00  0.00    +0.000 C 
ATOM      9  C   UNL     1       7.278   4.587  16.759  0.00  0.00    +0.000 C 
ATOM     10  N   UNL     1       7.275   5.287  15.471  0.00  0.00    +0.000 NA
ATOM     11  C   UNL     1       5.869   5.389  15.031  0.00  0.00    +0.000 C 
ATOM     12  H   UNL     1       7.792   4.733  14.788  0.00  0.00    +0.000 HD
ENDBRANCH   4   7
BRANCH   1  15
ATOM     13  O   UNL     1       1.176   9.599  18.042  0.00  0.00    +0.000 OA
ATOM     14  C   UNL     1       1.223   9.148  19.183  0.00  0.00    +0.000 C 
ATOM     15  N   UNL     1       1.897   8.005  19.592  0.00  0.00    +0.000 N 
ATOM     16  H   UNL     1       1.708   7.696  20.539  0.00  0.00    +0.000 HD
BRANCH  14  17
ATOM     17  C   UNL     1       0.455   9.856  20.248  0.00  0.00    +0.000 A 
ATOM     18  C   UNL     1       0.376   9.269  21.511  0.00  0.00    +0.000 A 
ATOM     19  C   UNL     1      -0.365   9.905  22.500  0.00  0.00    +0.000 A 
ATOM     20  C   UNL     1      -1.007  11.098  22.194  0.00  0.00    +0.000 A 
ATOM     21 CL   UNL     1      -1.949  11.903  23.379  0.00  0.00    +0.000 Cl
ATOM     22  C   UNL     1      -0.871  11.618  20.910  0.00  0.00    +0.000 A 
ATOM     23  N   UNL     1      -0.145  11.035  19.919  0.00  0.00    +0.000 NA
ENDBRANCH  14  17
ENDBRANCH   1  15
TORSDOF 3
ENDMDL
MODEL 3
REMARK VINA RESULT:      -7.3      0.638      1.061
REMARK  Name = 
REMARK  3 active torsions:
REMARK  status: ('A' for Active; 'I' for Inactive)
REMARK    1  A    between atoms: C_2  and  C_15
REMARK    2  A    between atoms: N_3  and  C_4
REMARK    3  A    between atoms: C_7  and  C_8
REMARK                            x       y       z     vdW  Elec       q    Type
REMARK                         _______ _______ _______ _____ _____    ______ ____
ROOT
ATOM      1  C   UNL     1       1.873   8.181  19.331  0.00  0.00    +0.000 A 
ATOM      2  C   UNL     1       2.146   6.996  20.013  0.00  0.00    +0.000 A 
ATOM      3  C   UNL     1       3.049   6.064  19.509  0.00  0.00    +0.000 A 
ATOM      4  C   UNL     1       3.725   6.294  18.308  0.00  0.00    +0.000 A 
ATOM      5  C   UNL     1       3.412   7.462  17.593  0.00  0.00    +0.000 A 
ATOM      6  C   UNL     1       2.486   8.393  18.093  0.00  0.00    +0.000 A 
ENDROOT
BRANCH   4   7
ATOM      7  C   UNL     1       4.759   5.318  17.771  0.00  0.00    +0.000 C 
ATOM      8  C   UNL     1       4.112   4.124  17.080  0.00  0.00    +0.000 C 
ATOM      9  C   UNL     1       3.987   3.094  18.185  0.00  0.00    +0.000 C 
ATOM     10  N   UNL     1       5.175   3.267  19.027  0.00  0.00    +0.000 NA
ATOM     11  C   UNL     1       5.654   4.650  18.829  0.00  0.00    +0.000 C 
ATOM     12  H   UNL     1       5.901   2.622  18.718  0.00  0.00    +0.000 HD
ENDBRANCH   4   7
BRANCH   1  15
ATOM     13  O   UNL     1       1.540   9.031  22.117  0.00  0.00    +0.000 OA
ATOM     14  C   UNL     1       0.879   9.492  21.190  0.00  0.00    +0.000 C 
ATOM     15  N   UNL     1       1.002   9.165  19.846  0.00  0.00    +0.000 N 
ATOM     16  H   UNL     1       0.481   9.748  19.200  0.00  0.00    +0.000 HD
BRANCH  14  17
ATOM     17  C   UNL     1      -0.136  10.539  21.506  0.00  0.00    +0.000 A 
ATOM     18  C   UNL     1      -0.822  11.138  20.450  0.00  0.00    +0.000 A 
ATOM     19  C   UNL     1      -1.745  12.138  20.732  0.00  0.00    +0.000 A 
ATOM     20  C   UNL     1      -1.946  12.511  22.054  0.00  0.00    +0.000 A 
ATOM     21 CL   UNL     1      -3.060  13.755  22.443  0.00  0.00    +0.000 Cl
ATOM     22  C   UNL     1      -1.224  11.857  23.048  0.00  0.00    +0.000 A 
ATOM     23  N   UNL     1      -0.322  10.866  22.816  0.00  0.00    +0.000 NA
ENDBRANCH  14  17
ENDBRANCH   1  15
TORSDOF 3
ENDMDL
MODEL 4
REMARK VINA RESULT:      -7.2      2.169      2.775
REMARK  Name = 
REMARK  3 active torsions:
REMARK  status: ('A' for Active; 'I' for Inactive)
REMARK    1  A    between atoms: C_2  and  C_15
REMARK    2  A    between atoms: N_3  and  C_4
REMARK    3  A    between atoms: C_7  and  C_8
REMARK                            x       y       z     vdW  Elec       q    Type
REMARK                         _______ _______ _______ _____ _____    ______ ____
ROOT
ATOM      1  C   UNL     1       2.787   6.823  18.467  0.00  0.00    +0.000 A 
ATOM      2  C   UNL     1       2.507   5.460  18.376  0.00  0.00    +0.000 A 
ATOM      3  C   UNL     1       3.276   4.615  17.580  0.00  0.00    +0.000 A 
ATOM      4  C   UNL     1       4.367   5.105  16.857  0.00  0.00    +0.000 A 
ATOM      5  C   UNL     1       4.619   6.487  16.906  0.00  0.00    +0.000 A 
ATOM      6  C   UNL     1       3.829   7.341  17.694  0.00  0.00    +0.000 A 
ENDROOT
BRANCH   4   7
ATOM      7  C   UNL     1       5.256   4.191  16.031  0.00  0.00    +0.000 C 
ATOM      8  C   UNL     1       6.679   4.134  16.575  0.00  0.00    +0.000 C 
ATOM      9  C   UNL     1       7.401   5.224  15.806  0.00  0.00    +0.000 C 
ATOM     10  N   UNL     1       6.821   5.212  14.459  0.00  0.00    +0.000 NA
ATOM     11  C   UNL     1       5.473   4.619  14.568  0.00  0.00    +0.000 C 
ATOM     12  H   UNL     1       7.390   4.621  13.854  0.00  0.00    +0.000 HD
ENDBRANCH   4   7
BRANCH   1  15
ATOM     13  O   UNL     1       1.416   9.314  17.752  0.00  0.00    +0.000 OA
ATOM     14  C   UNL     1       1.456   8.874  18.897  0.00  0.00    +0.000 C 
ATOM     15  N   UNL     1       2.055   7.690  19.307  0.00  0.00    +0.000 N 
ATOM     16  H   UNL     1       1.866   7.406  20.261  0.00  0.00    +0.000 HD
BRANCH  14  17
ATOM     17  C   UNL     1       0.766   9.648  19.970  0.00  0.00    +0.000 A 
ATOM     18  C   UNL     1       0.850   9.184  21.283  0.00  0.00    +0.000 A 
ATOM     19  C   UNL     1       0.183   9.880  22.283  0.00  0.00    +0.000 A 
ATOM     20  C   UNL     1      -0.550  11.008  21.941  0.00  0.00    +0.000 A 
ATOM     21 CL   UNL     1      -1.406  11.883  23.142  0.00  0.00    +0.000 Cl
ATOM     22  C   UNL     1      -0.577  11.406  20.607  0.00  0.00    +0.000 A 
ATOM     23  N   UNL     1       0.073  10.762  19.601  0.00  0.00    +0.000 NA
ENDBRANCH  14  17
ENDBRANCH   1  15
TORSDOF 3
ENDMDL
MODEL 5
REMARK VINA RESULT:      -7.2      0.242      1.074
REMARK  Name = 
REMARK  3 active torsions:
REMARK  status: ('A' for Active; 'I' for Inactive)
REMARK    1  A    between atoms: C_2  and  C_15
REMARK    2  A    between atoms: N_3  and  C_4
REMARK    3  A    between atoms: C_7  and  C_8
REMARK                            x       y       z     vdW  Elec       q    Type
REMARK                         _______ _______ _______ _____ _____    ______ ____
ROOT
ATOM      1  C   UNL     1       1.917   8.164  19.318  0.00  0.00    +0.000 A 
ATOM      2  C   UNL     1       2.592   8.370  18.115  0.00  0.00    +0.000 A 
ATOM      3  C   UNL     1       3.438   7.399  17.585  0.00  0.00    +0.000 A 
ATOM      4  C   UNL     1       3.626   6.177  18.236  0.00  0.00    +0.000 A 
ATOM      5  C   UNL     1       2.989   5.987  19.474  0.00  0.00    +0.000 A 
ATOM      6  C   UNL     1       2.150   6.976  20.017  0.00  0.00    +0.000 A 
ENDROOT
BRANCH   4   7
ATOM      7  C   UNL     1       4.497   5.080  17.645  0.00  0.00    +0.000 C 
ATOM      8  C   UNL     1       3.695   3.823  17.328  0.00  0.00    +0.000 C 
ATOM      9  C   UNL     1       3.823   2.989  18.588  0.00  0.00    +0.000 C 
ATOM     10  N   UNL     1       5.176   3.237  19.095  0.00  0.00    +0.000 NA
ATOM     11  C   UNL     1       5.609   4.546  18.566  0.00  0.00    +0.000 C 
ATOM     12  H   UNL     1       5.804   2.517  18.739  0.00  0.00    +0.000 HD
ENDBRANCH   4   7
BRANCH   1  15
ATOM     13  O   UNL     1       1.572   8.973  22.115  0.00  0.00    +0.000 OA
ATOM     14  C   UNL     1       0.890   9.419  21.197  0.00  0.00    +0.000 C 
ATOM     15  N   UNL     1       1.015   9.110  19.849  0.00  0.00    +0.000 N 
ATOM     16  H   UNL     1       0.469   9.680  19.212  0.00  0.00    +0.000 HD
BRANCH  14  17
ATOM     17  C   UNL     1      -0.161  10.425  21.530  0.00  0.00    +0.000 A 
ATOM     18  C   UNL     1      -0.640  10.475  22.839  0.00  0.00    +0.000 A 
ATOM     19  C   UNL     1      -1.642  11.386  23.151  0.00  0.00    +0.000 A 
ATOM     20  C   UNL     1      -2.136  12.209  22.147  0.00  0.00    +0.000 A 
ATOM     21 CL   UNL     1      -3.388  13.331  22.485  0.00  0.00    +0.000 Cl
ATOM     22  C   UNL     1      -1.597  12.098  20.869  0.00  0.00    +0.000 A 
ATOM     23  N   UNL     1      -0.608  11.230  20.526  0.00  0.00    +0.000 NA
ENDBRANCH  14  17
ENDBRANCH   1  15
TORSDOF 3
ENDMDL
MODEL 6
REMARK VINA RESULT:      -7.2      0.667      1.505
REMARK  Name = 
REMARK  3 active torsions:
REMARK  status: ('A' for Active; 'I' for Inactive)
REMARK    1  A    between atoms: C_2  and  C_15
REMARK    2  A    between atoms: N_3  and  C_4
REMARK    3  A    between atoms: C_7  and  C_8
REMARK                            x       y       z     vdW  Elec       q    Type
REMARK                         _______ _______ _______ _____ _____    ______ ____
ROOT
ATOM      1  C   UNL     1       1.891   8.182  19.346  0.00  0.00    +0.000 A 
ATOM      2  C   UNL     1       2.557   8.381  18.137  0.00  0.00    +0.000 A 
ATOM      3  C   UNL     1       3.404   7.410  17.609  0.00  0.00    +0.000 A 
ATOM      4  C   UNL     1       3.601   6.193  18.268  0.00  0.00    +0.000 A 
ATOM      5  C   UNL     1       2.972   6.011  19.512  0.00  0.00    +0.000 A 
ATOM      6  C   UNL     1       2.134   7.001  20.053  0.00  0.00    +0.000 A 
ENDROOT
BRANCH   4   7
ATOM      7  C   UNL     1       4.472   5.096  17.680  0.00  0.00    +0.000 C 
ATOM      8  C   UNL     1       3.665   3.851  17.333  0.00  0.00    +0.000 C 
ATOM      9  C   UNL     1       3.762   3.000  18.585  0.00  0.00    +0.000 C 
ATOM     10  N   UNL     1       5.108   3.229  19.119  0.00  0.00    +0.000 NA
ATOM     11  C   UNL     1       5.562   4.540  18.614  0.00  0.00    +0.000 C 
ATOM     12  H   UNL     1       5.736   2.507  18.766  0.00  0.00    +0.000 HD
ENDBRANCH   4   7
BRANCH   1  15
ATOM     13  O   UNL     1       1.676   9.137  22.110  0.00  0.00    +0.000 OA
ATOM     14  C   UNL     1       0.928   9.509  21.209  0.00  0.00    +0.000 C 
ATOM     15  N   UNL     1       0.988   9.128  19.875  0.00  0.00    +0.000 N 
ATOM     16  H   UNL     1       0.389   9.645  19.241  0.00  0.00    +0.000 HD
BRANCH  14  17
ATOM     17  C   UNL     1      -0.135  10.500  21.547  0.00  0.00    +0.000 A 
ATOM     18  C   UNL     1      -0.801  11.141  20.502  0.00  0.00    +0.000 A 
ATOM     19  C   UNL     1      -1.769  12.089  20.807  0.00  0.00    +0.000 A 
ATOM     20  C   UNL     1      -2.035  12.372  22.141  0.00  0.00    +0.000 A 
ATOM     21 CL   UNL     1      -3.207  13.552  22.560  0.00  0.00    +0.000 Cl
ATOM     22  C   UNL     1      -1.329  11.682  23.121  0.00  0.00    +0.000 A 
ATOM     23  N   UNL     1      -0.384  10.737  22.866  0.00  0.00    +0.000 NA
ENDBRANCH  14  17
ENDBRANCH   1  15
TORSDOF 3
ENDMDL
MODEL 7
REMARK VINA RESULT:      -7.2      1.155      1.229
REMARK  Name = 
REMARK  3 active torsions:
REMARK  status: ('A' for Active; 'I' for Inactive)
REMARK    1  A    between atoms: C_2  and  C_15
REMARK    2  A    between atoms: N_3  and  C_4
REMARK    3  A    between atoms: C_7  and  C_8
REMARK                            x       y       z     vdW  Elec       q    Type
REMARK                         _______ _______ _______ _____ _____    ______ ____
ROOT
ATOM      1  C   UNL     1       1.544   7.865  20.049  0.00  0.00    +0.000 A 
ATOM      2  C   UNL     1       1.591   6.639  20.712  0.00  0.00    +0.000 A 
ATOM      3  C   UNL     1       2.345   5.578  20.216  0.00  0.00    +0.000 A 
ATOM      4  C   UNL     1       3.093   5.714  19.043  0.00  0.00    +0.000 A 
ATOM      5  C   UNL     1       3.005   6.931  18.346  0.00  0.00    +0.000 A 
ATOM      6  C   UNL     1       2.228   7.994  18.837  0.00  0.00    +0.000 A 
ENDROOT
BRANCH   4   7
ATOM      7  C   UNL     1       3.970   4.590  18.518  0.00  0.00    +0.000 C 
ATOM      8  C   UNL     1       3.470   4.053  17.182  0.00  0.00    +0.000 C 
ATOM      9  C   UNL     1       2.557   2.907  17.574  0.00  0.00    +0.000 C 
ATOM     10  N   UNL     1       3.173   2.294  18.756  0.00  0.00    +0.000 NA
ATOM     11  C   UNL     1       4.021   3.323  19.391  0.00  0.00    +0.000 C 
ATOM     12  H   UNL     1       3.766   1.519  18.461  0.00  0.00    +0.000 HD
ENDBRANCH   4   7
BRANCH   1  15
ATOM     13  O   UNL     1       1.970   9.295  22.573  0.00  0.00    +0.000 OA
ATOM     14  C   UNL     1       1.074   9.578  21.783  0.00  0.00    +0.000 C 
ATOM     15  N   UNL     1       0.830   8.971  20.558  0.00  0.00    +0.000 N 
ATOM     16  H   UNL     1       0.142   9.426  19.969  0.00  0.00    +0.000 HD
BRANCH  14  17
ATOM     17  C   UNL     1       0.166  10.709  22.131  0.00  0.00    +0.000 A 
ATOM     18  C   UNL     1      -0.945  10.446  22.933  0.00  0.00    +0.000 A 
ATOM     19  C   UNL     1      -1.815  11.487  23.235  0.00  0.00    +0.000 A 
ATOM     20  C   UNL     1      -1.552  12.751  22.721  0.00  0.00    +0.000 A 
ATOM     21 CL   UNL     1      -2.613  14.057  23.051  0.00  0.00    +0.000 Cl
ATOM     22  C   UNL     1      -0.418  12.927  21.934  0.00  0.00    +0.000 A 
ATOM     23  N   UNL     1       0.465  11.939  21.627  0.00  0.00    +0.000 NA
ENDBRANCH  14  17
ENDBRANCH   1  15
TORSDOF 3
ENDMDL
MODEL 8
REMARK VINA RESULT:      -7.1      1.348      2.101
REMARK  Name = 
REMARK  3 active torsions:
REMARK  status: ('A' for Active; 'I' for Inactive)
REMARK    1  A    between atoms: C_2  and  C_15
REMARK    2  A    between atoms: N_3  and  C_4
REMARK    3  A    between atoms: C_7  and  C_8
REMARK                            x       y       z     vdW  Elec       q    Type
REMARK                         _______ _______ _______ _____ _____    ______ ____
ROOT
ATOM      1  C   UNL     1       1.604   7.388  20.223  0.00  0.00    +0.000 A 
ATOM      2  C   UNL     1       2.561   7.394  19.209  0.00  0.00    +0.000 A 
ATOM      3  C   UNL     1       3.294   6.252  18.899  0.00  0.00    +0.000 A 
ATOM      4  C   UNL     1       3.082   5.053  19.586  0.00  0.00    +0.000 A 
ATOM      5  C   UNL     1       2.157   5.058  20.643  0.00  0.00    +0.000 A 
ATOM      6  C   UNL     1       1.432   6.218  20.968  0.00  0.00    +0.000 A 
ENDROOT
BRANCH   4   7
ATOM      7  C   UNL     1       3.827   3.780  19.223  0.00  0.00    +0.000 C 
ATOM      8  C   UNL     1       3.782   3.498  17.726  0.00  0.00    +0.000 C 
ATOM      9  C   UNL     1       2.563   2.610  17.564  0.00  0.00    +0.000 C 
ATOM     10  N   UNL     1       2.522   1.768  18.764  0.00  0.00    +0.000 NA
ATOM     11  C   UNL     1       3.259   2.483  19.826  0.00  0.00    +0.000 C 
ATOM     12  H   UNL     1       2.999   0.887  18.571  0.00  0.00    +0.000 HD
ENDBRANCH   4   7
BRANCH   1  15
ATOM     13  O   UNL     1       1.858   9.236  22.485  0.00  0.00    +0.000 OA
ATOM     14  C   UNL     1       0.977   9.331  21.635  0.00  0.00    +0.000 C 
ATOM     15  N   UNL     1       0.812   8.517  20.522  0.00  0.00    +0.000 N 
ATOM     16  H   UNL     1       0.124   8.827  19.846  0.00  0.00    +0.000 HD
BRANCH  14  17
ATOM     17  C   UNL     1      -0.004  10.448  21.764  0.00  0.00    +0.000 A 
ATOM     18  C   UNL     1      -0.431  11.093  20.604  0.00  0.00    +0.000 A 
ATOM     19  C   UNL     1      -1.319  12.156  20.717  0.00  0.00    +0.000 A 
ATOM     20  C   UNL     1      -1.744  12.544  21.981  0.00  0.00    +0.000 A 
ATOM     21 CL   UNL     1      -2.821  13.864  22.166  0.00  0.00    +0.000 Cl
ATOM     22  C   UNL     1      -1.272  11.841  23.087  0.00  0.00    +0.000 A 
ATOM     23  N   UNL     1      -0.415  10.788  23.018  0.00  0.00    +0.000 NA
ENDBRANCH  14  17
ENDBRANCH   1  15
TORSDOF 3
ENDMDL
MODEL 9
REMARK VINA RESULT:      -7.1      1.689      2.032
REMARK  Name = 
REMARK  3 active torsions:
REMARK  status: ('A' for Active; 'I' for Inactive)
REMARK    1  A    between atoms: C_2  and  C_15
REMARK    2  A    between atoms: N_3  and  C_4
REMARK    3  A    between atoms: C_7  and  C_8
REMARK                            x       y       z     vdW  Elec       q    Type
REMARK                         _______ _______ _______ _____ _____    ______ ____
ROOT
ATOM      1  C   UNL     1       2.355   7.459  19.301  0.00  0.00    +0.000 A 
ATOM      2  C   UNL     1       2.673   6.161  19.703  0.00  0.00    +0.000 A 
ATOM      3  C   UNL     1       3.539   5.365  18.958  0.00  0.00    +0.000 A 
ATOM      4  C   UNL     1       4.131   5.848  17.788  0.00  0.00    +0.000 A 
ATOM      5  C   UNL     1       3.772   7.135  17.353  0.00  0.00    +0.000 A 
ATOM      6  C   UNL     1       2.883   7.930  18.096  0.00  0.00    +0.000 A 
ENDROOT
BRANCH   4   7
ATOM      7  C   UNL     1       5.125   5.018  16.993  0.00  0.00    +0.000 C 
ATOM      8  C   UNL     1       6.303   4.564  17.847  0.00  0.00    +0.000 C 
ATOM      9  C   UNL     1       7.336   5.656  17.645  0.00  0.00    +0.000 C 
ATOM     10  N   UNL     1       7.191   6.088  16.251  0.00  0.00    +0.000 NA
ATOM     11  C   UNL     1       5.818   5.748  15.827  0.00  0.00    +0.000 C 
ATOM     12  H   UNL     1       7.850   5.569  15.670  0.00  0.00    +0.000 HD
ENDBRANCH   4   7
BRANCH   1  15
ATOM     13  O   UNL     1       0.852   9.814  18.413  0.00  0.00    +0.000 OA
ATOM     14  C   UNL     1       0.864   9.424  19.577  0.00  0.00    +0.000 C 
ATOM     15  N   UNL     1       1.522   8.303  20.066  0.00  0.00    +0.000 N 
ATOM     16  H   UNL     1       1.305   8.045  21.022  0.00  0.00    +0.000 HD
BRANCH  14  17
ATOM     17  C   UNL     1       0.068  10.189  20.580  0.00  0.00    +0.000 A 
ATOM     18  C   UNL     1       0.063   9.745  21.903  0.00  0.00    +0.000 A 
ATOM     19  C   UNL     1      -0.703  10.431  22.837  0.00  0.00    +0.000 A 
ATOM     20  C   UNL     1      -1.443  11.530  22.421  0.00  0.00    +0.000 A 
ATOM     21 CL   UNL     1      -2.418  12.391  23.538  0.00  0.00    +0.000 Cl
ATOM     22  C   UNL     1      -1.377  11.910  21.084  0.00  0.00    +0.000 A 
ATOM     23  N   UNL     1      -0.630  11.274  20.141  0.00  0.00    +0.000 NA
ENDBRANCH  14  17
ENDBRANCH   1  15
TORSDOF 3
ENDMDL
