MODEL 1
REMARK VINA RESULT:      -7.7      0.000      0.000
REMARK  Name = 
REMARK  8 active torsions:
REMARK  status: ('A' for Active; 'I' for Inactive)
REMARK    1  A    between atoms: C_1  and  N_2
REMARK    2  A    between atoms: N_10  and  C_11
REMARK    3  A    between atoms: C_11  and  O_13
REMARK    4  A    between atoms: O_13  and  C_14
REMARK    5  A    between atoms: C_14  and  C_15
REMARK    6  A    between atoms: C_14  and  C_16
REMARK    7  A    between atoms: C_14  and  C_17
REMARK    8  A    between atoms: N_18  and  C_19
REMARK                            x       y       z     vdW  Elec       q    Type
REMARK                         _______ _______ _______ _____ _____    ______ ____
ROOT
ATOM      1  C   UNL     1       4.025   2.023  18.687  0.00  0.00    +0.000 C 
ATOM      2  N   UNL     1       3.835   2.923  19.818  0.00  0.00    +0.000 N 
ATOM      3  C   UNL     1       3.395   2.271  21.067  0.00  0.00    +0.000 C 
ATOM      4  C   UNL     1       2.151   3.094  21.405  0.00  0.00    +0.000 C 
ATOM      5  O   UNL     1       1.366   2.831  22.304  0.00  0.00    +0.000 OA
ATOM      6  N   UNL     1       2.090   4.189  20.563  0.00  0.00    +0.000 NA
ATOM      7  C   UNL     1       3.061   4.056  19.697  0.00  0.00    +0.000 C 
ATOM      8  N   UNL     1       3.431   4.980  18.759  0.00  0.00    +0.000 N 
ATOM      9  C   UNL     1       3.039   6.289  18.541  0.00  0.00    +0.000 C 
ATOM     10  N   UNL     1       3.627   7.174  17.790  0.00  0.00    +0.000 NA
ATOM     11  N   UNL     1       1.892   6.614  19.241  0.00  0.00    +0.000 N 
ATOM     12  H   UNL     1       4.267   4.734  18.236  0.00  0.00    +0.000 HD
ATOM     13  H   UNL     1       1.492   5.852  19.793  0.00  0.00    +0.000 HD
ENDROOT
BRANCH  11  14
ATOM     14  C   UNL     1       1.583   7.877  19.785  0.00  0.00    +0.000 A 
ATOM     15  C   UNL     1       1.378   7.982  21.166  0.00  0.00    +0.000 A 
ATOM     16  C   UNL     1       0.979   9.195  21.737  0.00  0.00    +0.000 A 
ATOM     17  C   UNL     1       0.798  10.322  20.934  0.00  0.00    +0.000 A 
ATOM     18 CL   UNL     1       0.257  11.776  21.694  0.00  0.00    +0.000 Cl
ATOM     19  C   UNL     1       1.042  10.241  19.562  0.00  0.00    +0.000 A 
ATOM     20 CL   UNL     1       0.877  11.598  18.505  0.00  0.00    +0.000 Cl
ATOM     21  C   UNL     1       1.432   9.024  18.996  0.00  0.00    +0.000 A 
ENDBRANCH  11  14
BRANCH  10  22
ATOM     22  C   UNL     1       4.789   6.907  17.131  0.00  0.00    +0.000 C 
ATOM     23  O   UNL     1       4.966   7.021  15.926  0.00  0.00    +0.000 OA
BRANCH  22  24
ATOM     24  O   UNL     1       5.706   6.456  18.030  0.00  0.00    +0.000 OA
BRANCH  24  25
ATOM     25  C   UNL     1       7.128   6.376  17.740  0.00  0.00    +0.000 C 
ATOM     26  C   UNL     1       7.718   7.763  17.472  0.00  0.00    +0.000 C 
ATOM     27  C   UNL     1       7.786   5.810  19.013  0.00  0.00    +0.000 C 
ATOM     28  C   UNL     1       7.418   5.403  16.594  0.00  0.00    +0.000 C 
ENDBRANCH  24  25
ENDBRANCH  22  24
ENDBRANCH  10  22
TORSDOF 4
ENDMDL
MODEL 2
REMARK VINA RESULT:      -7.7      0.606      1.399
REMARK  Name = 
REMARK  8 active torsions:
REMARK  status: ('A' for Active; 'I' for Inactive)
REMARK    1  A    between atoms: C_1  and  N_2
REMARK    2  A    between atoms: N_10  and  C_11
REMARK    3  A    between atoms: C_11  and  O_13
REMARK    4  A    between atoms: O_13  and  C_14
REMARK    5  A    between atoms: C_14  and  C_15
REMARK    6  A    between atoms: C_14  and  C_16
REMARK    7  A    between atoms: C_14  and  C_17
REMARK    8  A    between atoms: N_18  and  C_19
REMARK                            x       y       z     vdW  Elec       q    Type
REMARK                         _______ _______ _______ _____ _____    ______ ____
ROOT
ATOM      1  C   UNL     1       4.054   1.903  18.846  0.00  0.00    +0.000 C 
ATOM      2  N   UNL     1       3.800   2.839  19.935  0.00  0.00    +0.000 N 
ATOM      3  C   UNL     1       3.300   2.226  21.181  0.00  0.00    +0.000 C 
ATOM      4  C   UNL     1       2.034   3.048  21.426  0.00  0.00    +0.000 C 
ATOM      5  O   UNL     1       1.206   2.809  22.292  0.00  0.00    +0.000 OA
ATOM      6  N   UNL     1       2.009   4.113  20.546  0.00  0.00    +0.000 NA
ATOM      7  C   UNL     1       3.025   3.960  19.735  0.00  0.00    +0.000 C 
ATOM      8  N   UNL     1       3.436   4.855  18.787  0.00  0.00    +0.000 N 
ATOM      9  C   UNL     1       3.046   6.152  18.504  0.00  0.00    +0.000 C 
ATOM     10  N   UNL     1       3.666   7.017  17.754  0.00  0.00    +0.000 NA
ATOM     11  N   UNL     1       1.863   6.490  19.133  0.00  0.00    +0.000 N 
ATOM     12  H   UNL     1       4.300   4.599  18.316  0.00  0.00    +0.000 HD
ATOM     13  H   UNL     1       1.440   5.744  19.689  0.00  0.00    +0.000 HD
ENDROOT
BRANCH  11  14
ATOM     14  C   UNL     1       1.517   7.768  19.616  0.00  0.00    +0.000 A 
ATOM     15  C   UNL     1       1.525   8.849  18.726  0.00  0.00    +0.000 A 
ATOM     16  C   UNL     1       1.278  10.149  19.180  0.00  0.00    +0.000 A 
ATOM     17  C   UNL     1       1.002  10.380  20.528  0.00  0.00    +0.000 A 
ATOM     18 CL   UNL     1       0.755  12.013  21.033  0.00  0.00    +0.000 Cl
ATOM     19  C   UNL     1       0.947   9.305  21.418  0.00  0.00    +0.000 A 
ATOM     20 CL   UNL     1       0.575   9.501  23.094  0.00  0.00    +0.000 Cl
ATOM     21  C   UNL     1       1.203   8.010  20.959  0.00  0.00    +0.000 A 
ENDBRANCH  11  14
BRANCH  10  22
ATOM     22  C   UNL     1       4.863   6.738  17.166  0.00  0.00    +0.000 C 
ATOM     23  O   UNL     1       5.106   6.829  15.970  0.00  0.00    +0.000 OA
BRANCH  22  24
ATOM     24  O   UNL     1       5.729   6.306  18.123  0.00  0.00    +0.000 OA
BRANCH  24  25
ATOM     25  C   UNL     1       7.157   6.164  17.893  0.00  0.00    +0.000 C 
ATOM     26  C   UNL     1       7.781   7.490  17.447  0.00  0.00    +0.000 C 
ATOM     27  C   UNL     1       7.765   5.779  19.255  0.00  0.00    +0.000 C 
ATOM     28  C   UNL     1       7.463   5.031  16.910  0.00  0.00    +0.000 C 
ENDBRANCH  24  25
ENDBRANCH  22  24
ENDBRANCH  10  22
TORSDOF 4
ENDMDL
MODEL 3
REMARK VINA RESULT:      -7.5      1.213      2.123
REMARK  Name = 
REMARK  8 active torsions:
REMARK  status: ('A' for Active; 'I' for Inactive)
REMARK    1  A    between atoms: C_1  and  N_2
REMARK    2  A    between atoms: N_10  and  C_11
REMARK    3  A    between atoms: C_11  and  O_13
REMARK    4  A    between atoms: O_13  and  C_14
REMARK    5  A    between atoms: C_14  and  C_15
REMARK    6  A    between atoms: C_14  and  C_16
REMARK    7  A    between atoms: C_14  and  C_17
REMARK    8  A    between atoms: N_18  and  C_19
REMARK                            x       y       z     vdW  Elec       q    Type
REMARK                         _______ _______ _______ _____ _____    ______ ____
ROOT
ATOM      1  C   UNL     1       4.527   2.050  18.680  0.00  0.00    +0.000 C 
ATOM      2  N   UNL     1       4.062   3.017  19.668  0.00  0.00    +0.000 N 
ATOM      3  C   UNL     1       3.318   2.438  20.804  0.00  0.00    +0.000 C 
ATOM      4  C   UNL     1       2.032   3.264  20.765  0.00  0.00    +0.000 C 
ATOM      5  O   UNL     1       1.045   3.048  21.451  0.00  0.00    +0.000 OA
ATOM      6  N   UNL     1       2.190   4.304  19.868  0.00  0.00    +0.000 NA
ATOM      7  C   UNL     1       3.348   4.130  19.285  0.00  0.00    +0.000 C 
ATOM      8  N   UNL     1       3.947   4.998  18.415  0.00  0.00    +0.000 N 
ATOM      9  C   UNL     1       3.627   6.286  18.023  0.00  0.00    +0.000 C 
ATOM     10  N   UNL     1       4.390   7.131  17.390  0.00  0.00    +0.000 NA
ATOM     11  N   UNL     1       2.343   6.640  18.389  0.00  0.00    +0.000 N 
ATOM     12  H   UNL     1       4.887   4.731  18.136  0.00  0.00    +0.000 HD
ATOM     13  H   UNL     1       1.813   5.909  18.868  0.00  0.00    +0.000 HD
ENDROOT
BRANCH  11  14
ATOM     14  C   UNL     1       1.911   7.931  18.756  0.00  0.00    +0.000 A 
ATOM     15  C   UNL     1       1.927   8.945  17.791  0.00  0.00    +0.000 A 
ATOM     16  C   UNL     1       1.596  10.260  18.133  0.00  0.00    +0.000 A 
ATOM     17  C   UNL     1       1.226  10.572  19.443  0.00  0.00    +0.000 A 
ATOM     18 CL   UNL     1       0.876  12.223  19.811  0.00  0.00    +0.000 Cl
ATOM     19  C   UNL     1       1.163   9.561  20.403  0.00  0.00    +0.000 A 
ATOM     20 CL   UNL     1       0.680   9.857  22.036  0.00  0.00    +0.000 Cl
ATOM     21  C   UNL     1       1.504   8.251  20.057  0.00  0.00    +0.000 A 
ENDBRANCH  11  14
BRANCH  10  22
ATOM     22  C   UNL     1       5.680   6.837  17.064  0.00  0.00    +0.000 C 
ATOM     23  O   UNL     1       6.663   7.105  17.741  0.00  0.00    +0.000 OA
BRANCH  22  24
ATOM     24  O   UNL     1       5.695   6.233  15.844  0.00  0.00    +0.000 OA
BRANCH  24  25
ATOM     25  C   UNL     1       6.350   4.959  15.599  0.00  0.00    +0.000 C 
ATOM     26  C   UNL     1       7.206   4.536  16.797  0.00  0.00    +0.000 C 
ATOM     27  C   UNL     1       5.216   3.930  15.429  0.00  0.00    +0.000 C 
ATOM     28  C   UNL     1       7.159   4.979  14.299  0.00  0.00    +0.000 C 
ENDBRANCH  24  25
ENDBRANCH  22  24
ENDBRANCH  10  22
TORSDOF 4
ENDMDL
MODEL 4
REMARK VINA RESULT:      -7.3      0.946      1.402
REMARK  Name = 
REMARK  8 active torsions:
REMARK  status: ('A' for Active; 'I' for Inactive)
REMARK    1  A    between atoms: C_1  and  N_2
REMARK    2  A    between atoms: N_10  and  C_11
REMARK    3  A    between atoms: C_11  and  O_13
REMARK    4  A    between atoms: O_13  and  C_14
REMARK    5  A    between atoms: C_14  and  C_15
REMARK    6  A    between atoms: C_14  and  C_16
REMARK    7  A    between atoms: C_14  and  C_17
REMARK    8  A    between atoms: N_18  and  C_19
REMARK                            x       y       z     vdW  Elec       q    Type
REMARK                         _______ _______ _______ _____ _____    ______ ____
ROOT
ATOM      1  C   UNL     1       4.281   1.880  18.829  0.00  0.00    +0.000 C 
ATOM      2  N   UNL     1       4.011   2.803  19.925  0.00  0.00    +0.000 N 
ATOM      3  C   UNL     1       3.477   2.176  21.150  0.00  0.00    +0.000 C 
ATOM      4  C   UNL     1       2.214   3.006  21.379  0.00  0.00    +0.000 C 
ATOM      5  O   UNL     1       1.364   2.762  22.222  0.00  0.00    +0.000 OA
ATOM      6  N   UNL     1       2.218   4.084  20.514  0.00  0.00    +0.000 NA
ATOM      7  C   UNL     1       3.251   3.933  19.724  0.00  0.00    +0.000 C 
ATOM      8  N   UNL     1       3.691   4.838  18.799  0.00  0.00    +0.000 N 
ATOM      9  C   UNL     1       3.319   6.143  18.527  0.00  0.00    +0.000 C 
ATOM     10  N   UNL     1       3.963   7.013  17.803  0.00  0.00    +0.000 NA
ATOM     11  N   UNL     1       2.124   6.482  19.133  0.00  0.00    +0.000 N 
ATOM     12  H   UNL     1       4.563   4.582  18.344  0.00  0.00    +0.000 HD
ATOM     13  H   UNL     1       1.683   5.732  19.668  0.00  0.00    +0.000 HD
ENDROOT
BRANCH  11  14
ATOM     14  C   UNL     1       1.778   7.756  19.627  0.00  0.00    +0.000 A 
ATOM     15  C   UNL     1       1.453   7.886  20.983  0.00  0.00    +0.000 A 
ATOM     16  C   UNL     1       1.015   9.110  21.498  0.00  0.00    +0.000 A 
ATOM     17  C   UNL     1       0.915  10.225  20.664  0.00  0.00    +0.000 A 
ATOM     18 CL   UNL     1       0.321  11.695  21.350  0.00  0.00    +0.000 Cl
ATOM     19  C   UNL     1       1.279  10.120  19.321  0.00  0.00    +0.000 A 
ATOM     20 CL   UNL     1       1.219  11.461  18.232  0.00  0.00    +0.000 Cl
ATOM     21  C   UNL     1       1.707   8.892  18.811  0.00  0.00    +0.000 A 
ENDBRANCH  11  14
BRANCH  10  22
ATOM     22  C   UNL     1       5.170   6.732  17.238  0.00  0.00    +0.000 C 
ATOM     23  O   UNL     1       6.192   7.390  17.378  0.00  0.00    +0.000 OA
BRANCH  22  24
ATOM     24  O   UNL     1       5.041   5.621  16.462  0.00  0.00    +0.000 OA
BRANCH  24  25
ATOM     25  C   UNL     1       6.161   4.764  16.111  0.00  0.00    +0.000 C 
ATOM     26  C   UNL     1       7.073   4.522  17.317  0.00  0.00    +0.000 C 
ATOM     27  C   UNL     1       5.544   3.416  15.693  0.00  0.00    +0.000 C 
ATOM     28  C   UNL     1       6.937   5.312  14.910  0.00  0.00    +0.000 C 
ENDBRANCH  24  25
ENDBRANCH  22  24
ENDBRANCH  10  22
TORSDOF 4
ENDMDL
MODEL 5
REMARK VINA RESULT:      -6.9      1.378      1.967
REMARK  Name = 
REMARK  8 active torsions:
REMARK  status: ('A' for Active; 'I' for Inactive)
REMARK    1  A    between atoms: C_1  and  N_2
REMARK    2  A    between atoms: N_10  and  C_11
REMARK    3  A    between atoms: C_11  and  O_13
REMARK    4  A    between atoms: O_13  and  C_14
REMARK    5  A    between atoms: C_14  and  C_15
REMARK    6  A    between atoms: C_14  and  C_16
REMARK    7  A    between atoms: C_14  and  C_17
REMARK    8  A    between atoms: N_18  and  C_19
REMARK                            x       y       z     vdW  Elec       q    Type
REMARK                         _______ _______ _______ _____ _____    ______ ____
ROOT
ATOM      1  C   UNL     1       3.889   2.106  17.719  0.00  0.00    +0.000 C 
ATOM      2  N   UNL     1       3.515   2.952  18.846  0.00  0.00    +0.000 N 
ATOM      3  C   UNL     1       2.672   2.297  19.865  0.00  0.00    +0.000 C 
ATOM      4  C   UNL     1       1.498   3.273  19.948  0.00  0.00    +0.000 C 
ATOM      5  O   UNL     1       0.472   3.075  20.580  0.00  0.00    +0.000 OA
ATOM      6  N   UNL     1       1.808   4.415  19.233  0.00  0.00    +0.000 NA
ATOM      7  C   UNL     1       2.953   4.193  18.640  0.00  0.00    +0.000 C 
ATOM      8  N   UNL     1       3.678   5.108  17.928  0.00  0.00    +0.000 N 
ATOM      9  C   UNL     1       3.529   6.471  17.747  0.00  0.00    +0.000 C 
ATOM     10  N   UNL     1       4.407   7.304  17.267  0.00  0.00    +0.000 NA
ATOM     11  N   UNL     1       2.286   6.919  18.153  0.00  0.00    +0.000 N 
ATOM     12  H   UNL     1       4.586   4.773  17.619  0.00  0.00    +0.000 HD
ATOM     13  H   UNL     1       1.658   6.193  18.502  0.00  0.00    +0.000 HD
ENDROOT
BRANCH  11  14
ATOM     14  C   UNL     1       2.004   8.178  18.720  0.00  0.00    +0.000 A 
ATOM     15  C   UNL     1       1.478   8.229  20.017  0.00  0.00    +0.000 A 
ATOM     16  C   UNL     1       1.096   9.448  20.585  0.00  0.00    +0.000 A 
ATOM     17  C   UNL     1       1.253  10.635  19.868  0.00  0.00    +0.000 A 
ATOM     18 CL   UNL     1       0.718  12.102  20.607  0.00  0.00    +0.000 Cl
ATOM     19  C   UNL     1       1.818  10.603  18.592  0.00  0.00    +0.000 A 
ATOM     20 CL   UNL     1       2.081  12.031  17.654  0.00  0.00    +0.000 Cl
ATOM     21  C   UNL     1       2.189   9.380  18.027  0.00  0.00    +0.000 A 
ENDBRANCH  11  14
BRANCH  10  22
ATOM     22  C   UNL     1       5.661   6.908  16.910  0.00  0.00    +0.000 C 
ATOM     23  O   UNL     1       6.680   7.103  17.559  0.00  0.00    +0.000 OA
BRANCH  22  24
ATOM     24  O   UNL     1       5.596   6.296  15.696  0.00  0.00    +0.000 OA
BRANCH  24  25
ATOM     25  C   UNL     1       6.240   5.024  15.415  0.00  0.00    +0.000 C 
ATOM     26  C   UNL     1       5.251   4.022  14.812  0.00  0.00    +0.000 C 
ATOM     27  C   UNL     1       7.324   5.325  14.362  0.00  0.00    +0.000 C 
ATOM     28  C   UNL     1       6.940   4.458  16.654  0.00  0.00    +0.000 C 
ENDBRANCH  24  25
ENDBRANCH  22  24
ENDBRANCH  10  22
TORSDOF 4
ENDMDL
MODEL 6
REMARK VINA RESULT:      -6.9      5.513      9.023
REMARK  Name = 
REMARK  8 active torsions:
REMARK  status: ('A' for Active; 'I' for Inactive)
REMARK    1  A    between atoms: C_1  and  N_2
REMARK    2  A    between atoms: N_10  and  C_11
REMARK    3  A    between atoms: C_11  and  O_13
REMARK    4  A    between atoms: O_13  and  C_14
REMARK    5  A    between atoms: C_14  and  C_15
REMARK    6  A    between atoms: C_14  and  C_16
REMARK    7  A    between atoms: C_14  and  C_17
REMARK    8  A    between atoms: N_18  and  C_19
REMARK                            x       y       z     vdW  Elec       q    Type
REMARK                         _______ _______ _______ _____ _____    ______ ____
ROOT
ATOM      1  C   UNL     1       0.547  15.984  19.964  0.00  0.00    +0.000 C 
ATOM      2  N   UNL     1       0.914  14.880  20.842  0.00  0.00    +0.000 N 
ATOM      3  C   UNL     1       1.987  15.182  21.810  0.00  0.00    +0.000 C 
ATOM      4  C   UNL     1       2.972  14.049  21.521  0.00  0.00    +0.000 C 
ATOM      5  O   UNL     1       4.092  13.961  22.000  0.00  0.00    +0.000 OA
ATOM      6  N   UNL     1       2.374  13.135  20.673  0.00  0.00    +0.000 NA
ATOM      7  C   UNL     1       1.216  13.639  20.327  0.00  0.00    +0.000 C 
ATOM      8  N   UNL     1       0.253  13.005  19.592  0.00  0.00    +0.000 N 
ATOM      9  C   UNL     1       0.135  11.700  19.147  0.00  0.00    +0.000 C 
ATOM     10  N   UNL     1      -0.932  11.121  18.676  0.00  0.00    +0.000 NA
ATOM     11  N   UNL     1       1.322  11.002  19.254  0.00  0.00    +0.000 N 
ATOM     12  H   UNL     1      -0.615  13.525  19.503  0.00  0.00    +0.000 HD
ATOM     13  H   UNL     1       2.109  11.541  19.620  0.00  0.00    +0.000 HD
ENDROOT
BRANCH  11  14
ATOM     14  C   UNL     1       1.452   9.626  19.532  0.00  0.00    +0.000 A 
ATOM     15  C   UNL     1       0.976   9.138  20.754  0.00  0.00    +0.000 A 
ATOM     16  C   UNL     1       1.166   7.799  21.111  0.00  0.00    +0.000 A 
ATOM     17  C   UNL     1       1.820   6.928  20.239  0.00  0.00    +0.000 A 
ATOM     18 CL   UNL     1       2.066   5.299  20.760  0.00  0.00    +0.000 Cl
ATOM     19  C   UNL     1       2.260   7.391  18.998  0.00  0.00    +0.000 A 
ATOM     20 CL   UNL     1       3.045   6.368  17.847  0.00  0.00    +0.000 Cl
ATOM     21  C   UNL     1       2.075   8.732  18.652  0.00  0.00    +0.000 A 
ENDBRANCH  11  14
BRANCH  10  22
ATOM     22  C   UNL     1      -2.133  11.761  18.609  0.00  0.00    +0.000 C 
ATOM     23  O   UNL     1      -2.755  12.207  19.563  0.00  0.00    +0.000 OA
BRANCH  22  24
ATOM     24  O   UNL     1      -2.542  11.785  17.310  0.00  0.00    +0.000 OA
BRANCH  24  25
ATOM     25  C   UNL     1      -3.578  10.908  16.790  0.00  0.00    +0.000 C 
ATOM     26  C   UNL     1      -4.954  11.577  16.851  0.00  0.00    +0.000 C 
ATOM     27  C   UNL     1      -3.222  10.671  15.310  0.00  0.00    +0.000 C 
ATOM     28  C   UNL     1      -3.574   9.548  17.493  0.00  0.00    +0.000 C 
ENDBRANCH  24  25
ENDBRANCH  22  24
ENDBRANCH  10  22
TORSDOF 4
ENDMDL
MODEL 7
REMARK VINA RESULT:      -6.7      2.047      4.841
REMARK  Name = 
REMARK  8 active torsions:
REMARK  status: ('A' for Active; 'I' for Inactive)
REMARK    1  A    between atoms: C_1  and  N_2
REMARK    2  A    between atoms: N_10  and  C_11
REMARK    3  A    between atoms: C_11  and  O_13
REMARK    4  A    between atoms: O_13  and  C_14
REMARK    5  A    between atoms: C_14  and  C_15
REMARK    6  A    between atoms: C_14  and  C_16
REMARK    7  A    between atoms: C_14  and  C_17
REMARK    8  A    between atoms: N_18  and  C_19
REMARK                            x       y       z     vdW  Elec       q    Type
REMARK                         _______ _______ _______ _____ _____    ______ ____
ROOT
ATOM      1  C   UNL     1       7.166   4.385  17.239  0.00  0.00    +0.000 C 
ATOM      2  N   UNL     1       6.546   5.648  16.855  0.00  0.00    +0.000 N 
ATOM      3  C   UNL     1       7.492   6.723  16.498  0.00  0.00    +0.000 C 
ATOM      4  C   UNL     1       7.021   7.848  17.421  0.00  0.00    +0.000 C 
ATOM      5  O   UNL     1       7.600   8.913  17.572  0.00  0.00    +0.000 OA
ATOM      6  N   UNL     1       5.828   7.477  18.013  0.00  0.00    +0.000 NA
ATOM      7  C   UNL     1       5.596   6.239  17.658  0.00  0.00    +0.000 C 
ATOM      8  N   UNL     1       4.461   5.527  17.927  0.00  0.00    +0.000 N 
ATOM      9  C   UNL     1       3.244   5.893  18.476  0.00  0.00    +0.000 C 
ATOM     10  N   UNL     1       2.134   5.213  18.459  0.00  0.00    +0.000 NA
ATOM     11  N   UNL     1       3.297   7.133  19.083  0.00  0.00    +0.000 N 
ATOM     12  H   UNL     1       4.428   4.610  17.491  0.00  0.00    +0.000 HD
ATOM     13  H   UNL     1       4.213   7.587  19.060  0.00  0.00    +0.000 HD
ENDROOT
BRANCH  11  14
ATOM     14  C   UNL     1       2.246   8.070  19.146  0.00  0.00    +0.000 A 
ATOM     15  C   UNL     1       1.918   8.792  17.992  0.00  0.00    +0.000 A 
ATOM     16  C   UNL     1       0.946   9.796  18.031  0.00  0.00    +0.000 A 
ATOM     17  C   UNL     1       0.277  10.078  19.224  0.00  0.00    +0.000 A 
ATOM     18 CL   UNL     1      -0.878  11.363  19.217  0.00  0.00    +0.000 Cl
ATOM     19  C   UNL     1       0.563   9.336  20.370  0.00  0.00    +0.000 A 
ATOM     20 CL   UNL     1      -0.246   9.596  21.875  0.00  0.00    +0.000 Cl
ATOM     21  C   UNL     1       1.542   8.339  20.326  0.00  0.00    +0.000 A 
ENDBRANCH  11  14
BRANCH  10  22
ATOM     22  C   UNL     1       2.030   4.013  17.821  0.00  0.00    +0.000 C 
ATOM     23  O   UNL     1       1.067   3.637  17.166  0.00  0.00    +0.000 OA
BRANCH  22  24
ATOM     24  O   UNL     1       3.157   3.289  18.066  0.00  0.00    +0.000 OA
BRANCH  24  25
ATOM     25  C   UNL     1       3.213   2.216  19.044  0.00  0.00    +0.000 C 
ATOM     26  C   UNL     1       3.726   0.918  18.415  0.00  0.00    +0.000 C 
ATOM     27  C   UNL     1       4.230   2.671  20.109  0.00  0.00    +0.000 C 
ATOM     28  C   UNL     1       1.865   2.017  19.743  0.00  0.00    +0.000 C 
ENDBRANCH  24  25
ENDBRANCH  22  24
ENDBRANCH  10  22
TORSDOF 4
ENDMDL
MODEL 8
REMARK VINA RESULT:      -6.5      7.766      9.598
REMARK  Name = 
REMARK  8 active torsions:
REMARK  status: ('A' for Active; 'I' for Inactive)
REMARK    1  A    between atoms: C_1  and  N_2
REMARK    2  A    between atoms: N_10  and  C_11
REMARK    3  A    between atoms: C_11  and  O_13
REMARK    4  A    between atoms: O_13  and  C_14
REMARK    5  A    between atoms: C_14  and  C_15
REMARK    6  A    between atoms: C_14  and  C_16
REMARK    7  A    between atoms: C_14  and  C_17
REMARK    8  A    between atoms: N_18  and  C_19
REMARK                            x       y       z     vdW  Elec       q    Type
REMARK                         _______ _______ _______ _____ _____    ______ ____
ROOT
ATOM      1  C   UNL     1      -1.238  15.164  24.541  0.00  0.00    +0.000 C 
ATOM      2  N   UNL     1      -2.319  14.622  23.725  0.00  0.00    +0.000 N 
ATOM      3  C   UNL     1      -3.474  14.104  24.484  0.00  0.00    +0.000 C 
ATOM      4  C   UNL     1      -3.591  12.691  23.913  0.00  0.00    +0.000 C 
ATOM      5  O   UNL     1      -4.341  11.827  24.342  0.00  0.00    +0.000 OA
ATOM      6  N   UNL     1      -2.750  12.572  22.822  0.00  0.00    +0.000 NA
ATOM      7  C   UNL     1      -2.064  13.684  22.750  0.00  0.00    +0.000 C 
ATOM      8  N   UNL     1      -1.203  14.031  21.745  0.00  0.00    +0.000 N 
ATOM      9  C   UNL     1      -0.919  13.446  20.524  0.00  0.00    +0.000 C 
ATOM     10  N   UNL     1      -0.279  13.979  19.523  0.00  0.00    +0.000 NA
ATOM     11  N   UNL     1      -1.410  12.158  20.435  0.00  0.00    +0.000 N 
ATOM     12  H   UNL     1      -0.833  14.974  21.819  0.00  0.00    +0.000 HD
ATOM     13  H   UNL     1      -1.885  11.817  21.273  0.00  0.00    +0.000 HD
ENDROOT
BRANCH  11  14
ATOM     14  C   UNL     1      -1.891  11.532  19.266  0.00  0.00    +0.000 A 
ATOM     15  C   UNL     1      -1.086  10.576  18.636  0.00  0.00    +0.000 A 
ATOM     16  C   UNL     1      -1.480   9.997  17.425  0.00  0.00    +0.000 A 
ATOM     17  C   UNL     1      -2.696  10.357  16.840  0.00  0.00    +0.000 A 
ATOM     18 CL   UNL     1      -3.102   9.643  15.321  0.00  0.00    +0.000 Cl
ATOM     19  C   UNL     1      -3.528  11.276  17.481  0.00  0.00    +0.000 A 
ATOM     20 CL   UNL     1      -5.064  11.745  16.843  0.00  0.00    +0.000 Cl
ATOM     21  C   UNL     1      -3.123  11.856  18.687  0.00  0.00    +0.000 A 
ENDBRANCH  11  14
BRANCH  10  22
ATOM     22  C   UNL     1       0.170  15.266  19.554  0.00  0.00    +0.000 C 
ATOM     23  O   UNL     1      -0.337  16.180  20.190  0.00  0.00    +0.000 OA
BRANCH  22  24
ATOM     24  O   UNL     1       1.248  15.372  18.730  0.00  0.00    +0.000 OA
BRANCH  24  25
ATOM     25  C   UNL     1       2.619  15.325  19.210  0.00  0.00    +0.000 C 
ATOM     26  C   UNL     1       2.675  14.956  20.695  0.00  0.00    +0.000 C 
ATOM     27  C   UNL     1       3.307  14.204  18.408  0.00  0.00    +0.000 C 
ATOM     28  C   UNL     1       3.365  16.630  18.919  0.00  0.00    +0.000 C 
ENDBRANCH  24  25
ENDBRANCH  22  24
ENDBRANCH  10  22
TORSDOF 4
ENDMDL
MODEL 9
REMARK VINA RESULT:      -6.5      5.581      9.226
REMARK  Name = 
REMARK  8 active torsions:
REMARK  status: ('A' for Active; 'I' for Inactive)
REMARK    1  A    between atoms: C_1  and  N_2
REMARK    2  A    between atoms: N_10  and  C_11
REMARK    3  A    between atoms: C_11  and  O_13
REMARK    4  A    between atoms: O_13  and  C_14
REMARK    5  A    between atoms: C_14  and  C_15
REMARK    6  A    between atoms: C_14  and  C_16
REMARK    7  A    between atoms: C_14  and  C_17
REMARK    8  A    between atoms: N_18  and  C_19
REMARK                            x       y       z     vdW  Elec       q    Type
REMARK                         _______ _______ _______ _____ _____    ______ ____
ROOT
ATOM      1  C   UNL     1       0.495  16.134  18.510  0.00  0.00    +0.000 C 
ATOM      2  N   UNL     1       1.177  15.182  19.379  0.00  0.00    +0.000 N 
ATOM      3  C   UNL     1       2.493  15.627  19.880  0.00  0.00    +0.000 C 
ATOM      4  C   UNL     1       3.379  14.453  19.462  0.00  0.00    +0.000 C 
ATOM      5  O   UNL     1       4.597  14.434  19.554  0.00  0.00    +0.000 OA
ATOM      6  N   UNL     1       2.578  13.421  19.011  0.00  0.00    +0.000 NA
ATOM      7  C   UNL     1       1.350  13.872  18.992  0.00  0.00    +0.000 C 
ATOM      8  N   UNL     1       0.230  13.137  18.722  0.00  0.00    +0.000 N 
ATOM      9  C   UNL     1       0.031  11.779  18.548  0.00  0.00    +0.000 C 
ATOM     10  N   UNL     1      -1.104  11.140  18.550  0.00  0.00    +0.000 NA
ATOM     11  N   UNL     1       1.219  11.096  18.366  0.00  0.00    +0.000 N 
ATOM     12  H   UNL     1      -0.643  13.643  18.844  0.00  0.00    +0.000 HD
ATOM     13  H   UNL     1       2.057  11.681  18.364  0.00  0.00    +0.000 HD
ENDROOT
BRANCH  11  14
ATOM     14  C   UNL     1       1.494   9.782  18.795  0.00  0.00    +0.000 A 
ATOM     15  C   UNL     1       1.040   9.377  20.056  0.00  0.00    +0.000 A 
ATOM     16  C   UNL     1       1.368   8.115  20.561  0.00  0.00    +0.000 A 
ATOM     17  C   UNL     1       2.140   7.234  19.800  0.00  0.00    +0.000 A 
ATOM     18 CL   UNL     1       2.551   5.710  20.500  0.00  0.00    +0.000 Cl
ATOM     19  C   UNL     1       2.560   7.609  18.523  0.00  0.00    +0.000 A 
ATOM     20 CL   UNL     1       3.486   6.565  17.503  0.00  0.00    +0.000 Cl
ATOM     21  C   UNL     1       2.236   8.875  18.028  0.00  0.00    +0.000 A 
ENDBRANCH  11  14
BRANCH  10  22
ATOM     22  C   UNL     1      -2.288  11.771  18.784  0.00  0.00    +0.000 C 
ATOM     23  O   UNL     1      -2.732  12.068  19.885  0.00  0.00    +0.000 OA
BRANCH  22  24
ATOM     24  O   UNL     1      -2.913  11.981  17.592  0.00  0.00    +0.000 OA
BRANCH  24  25
ATOM     25  C   UNL     1      -3.692  10.957  16.915  0.00  0.00    +0.000 C 
ATOM     26  C   UNL     1      -3.598   9.615  17.646  0.00  0.00    +0.000 C 
ATOM     27  C   UNL     1      -5.155  11.437  16.972  0.00  0.00    +0.000 C 
ATOM     28  C   UNL     1      -3.300  10.832  15.440  0.00  0.00    +0.000 C 
ENDBRANCH  24  25
ENDBRANCH  22  24
ENDBRANCH  10  22
TORSDOF 4
ENDMDL
