MODEL 1
REMARK VINA RESULT:      -8.3      0.000      0.000
REMARK  Name = 
REMARK  11 active torsions:
REMARK  status: ('A' for Active; 'I' for Inactive)
REMARK    1  A    between atoms: C_1  and  O_2
REMARK    2  A    between atoms: O_2  and  C_3
REMARK    3  A    between atoms: C_6  and  C_7
REMARK    4  A    between atoms: N_10  and  C_11
REMARK    5  A    between atoms: C_11  and  C_12
REMARK    6  A    between atoms: C_12  and  C_13
REMARK    7  A    between atoms: C_13  and  C_14
REMARK    8  A    between atoms: C_13  and  C_15
REMARK    9  A    between atoms: C_13  and  S_19
REMARK   10  A    between atoms: N_17  and  O_18
REMARK   11  A    between atoms: S_19  and  C_20
REMARK                            x       y       z     vdW  Elec       q    Type
REMARK                         _______ _______ _______ _____ _____    ______ ____
ROOT
ATOM      1  C   UNL     1       1.262   8.769  20.294  0.00  0.00    +0.000 A 
ATOM      2  C   UNL     1       1.738   9.175  18.990  0.00  0.00    +0.000 A 
ATOM      3  C   UNL     1       2.446   8.327  18.235  0.00  0.00    +0.000 A 
ATOM      4  N   UNL     1       2.781   7.063  18.695  0.00  0.00    +0.000 N 
ATOM      5  C   UNL     1       2.419   6.627  19.973  0.00  0.00    +0.000 A 
ATOM      6  O   UNL     1       2.688   5.522  20.440  0.00  0.00    +0.000 OA
ATOM      7  C   UNL     1       1.603   7.565  20.781  0.00  0.00    +0.000 A 
ENDROOT
BRANCH   1  11
ATOM      8  C   UNL     1      -1.349  11.173  22.668  0.00  0.00    +0.000 A 
ATOM      9  C   UNL     1      -1.104  11.499  21.331  0.00  0.00    +0.000 A 
ATOM     10  C   UNL     1      -0.260  10.711  20.547  0.00  0.00    +0.000 A 
ATOM     11  C   UNL     1       0.363   9.595  21.106  0.00  0.00    +0.000 A 
ATOM     12  C   UNL     1       0.136   9.276  22.453  0.00  0.00    +0.000 A 
ATOM     13  C   UNL     1      -0.714  10.068  23.232  0.00  0.00    +0.000 A 
BRANCH   8  15
ATOM     14  C   UNL     1      -2.316  13.320  22.749  0.00  0.00    +0.000 C 
ATOM     15  O   UNL     1      -2.190  12.024  23.327  0.00  0.00    +0.000 OA
ENDBRANCH   8  15
ENDBRANCH   1  11
BRANCH   4  16
ATOM     16  C   UNL     1       3.218   6.049  17.742  0.00  0.00    +0.000 C 
BRANCH  16  17
ATOM     17  C   UNL     1       4.618   6.242  17.145  0.00  0.00    +0.000 C 
BRANCH  17  18
ATOM     18  C   UNL     1       5.534   4.986  17.279  0.00  0.00    +0.000 C 
ATOM     19  C   UNL     1       4.766   3.704  16.908  0.00  0.00    +0.000 C 
BRANCH  18  20
ATOM     20  C   UNL     1       6.046   4.860  18.716  0.00  0.00    +0.000 C 
ATOM     21  O   UNL     1       5.560   4.072  19.532  0.00  0.00    +0.000 OA
ATOM     22  N   UNL     1       7.098   5.670  19.080  0.00  0.00    +0.000 N 
ATOM     23  H   UNL     1       7.799   5.972  18.400  0.00  0.00    +0.000 HD
BRANCH  22  24
ATOM     24  O   UNL     1       7.586   5.455  20.394  0.00  0.00    +0.000 OA
ATOM     25  H   UNL     1       8.520   5.187  20.242  0.00  0.00    +0.000 HD
ENDBRANCH  22  24
ENDBRANCH  18  20
BRANCH  18  26
ATOM     26  S   UNL     1       7.004   5.158  16.230  0.00  0.00    +0.000 S 
ATOM     27  C   UNL     1       6.520   4.776  14.563  0.00  0.00    +0.000 C 
ATOM     28  O   UNL     1       7.404   6.552  16.213  0.00  0.00    +0.000 OA
ATOM     29  O   UNL     1       7.953   4.144  16.662  0.00  0.00    +0.000 OA
ENDBRANCH  18  26
ENDBRANCH  17  18
ENDBRANCH  16  17
ENDBRANCH   4  16
TORSDOF 8
ENDMDL
MODEL 2
REMARK VINA RESULT:      -7.9      1.276      1.956
REMARK  Name = 
REMARK  11 active torsions:
REMARK  status: ('A' for Active; 'I' for Inactive)
REMARK    1  A    between atoms: C_1  and  O_2
REMARK    2  A    between atoms: O_2  and  C_3
REMARK    3  A    between atoms: C_6  and  C_7
REMARK    4  A    between atoms: N_10  and  C_11
REMARK    5  A    between atoms: C_11  and  C_12
REMARK    6  A    between atoms: C_12  and  C_13
REMARK    7  A    between atoms: C_13  and  C_14
REMARK    8  A    between atoms: C_13  and  C_15
REMARK    9  A    between atoms: C_13  and  S_19
REMARK   10  A    between atoms: N_17  and  O_18
REMARK   11  A    between atoms: S_19  and  C_20
REMARK                            x       y       z     vdW  Elec       q    Type
REMARK                         _______ _______ _______ _____ _____    ______ ____
ROOT
ATOM      1  C   UNL     1       1.318   8.496  20.249  0.00  0.00    +0.000 A 
ATOM      2  C   UNL     1       1.760   8.807  18.907  0.00  0.00    +0.000 A 
ATOM      3  C   UNL     1       2.419   7.895  18.184  0.00  0.00    +0.000 A 
ATOM      4  N   UNL     1       2.736   6.653  18.711  0.00  0.00    +0.000 N 
ATOM      5  C   UNL     1       2.408   6.308  20.026  0.00  0.00    +0.000 A 
ATOM      6  O   UNL     1       2.664   5.227  20.552  0.00  0.00    +0.000 OA
ATOM      7  C   UNL     1       1.644   7.316  20.799  0.00  0.00    +0.000 A 
ENDROOT
BRANCH   1  11
ATOM      8  C   UNL     1      -1.161  11.117  22.533  0.00  0.00    +0.000 A 
ATOM      9  C   UNL     1      -0.600   9.980  23.121  0.00  0.00    +0.000 A 
ATOM     10  C   UNL     1       0.220   9.125  22.382  0.00  0.00    +0.000 A 
ATOM     11  C   UNL     1       0.469   9.396  21.036  0.00  0.00    +0.000 A 
ATOM     12  C   UNL     1      -0.109  10.524  20.437  0.00  0.00    +0.000 A 
ATOM     13  C   UNL     1      -0.927  11.379  21.185  0.00  0.00    +0.000 A 
BRANCH   8  15
ATOM     14  C   UNL     1      -2.680  12.909  22.722  0.00  0.00    +0.000 C 
ATOM     15  O   UNL     1      -1.946  11.869  23.361  0.00  0.00    +0.000 OA
ENDBRANCH   8  15
ENDBRANCH   1  11
BRANCH   4  16
ATOM     16  C   UNL     1       3.115   5.571  17.810  0.00  0.00    +0.000 C 
BRANCH  16  17
ATOM     17  C   UNL     1       4.391   5.790  16.988  0.00  0.00    +0.000 C 
BRANCH  17  18
ATOM     18  C   UNL     1       5.481   4.697  17.218  0.00  0.00    +0.000 C 
ATOM     19  C   UNL     1       6.064   4.215  15.877  0.00  0.00    +0.000 C 
BRANCH  18  20
ATOM     20  C   UNL     1       4.876   3.500  17.955  0.00  0.00    +0.000 C 
ATOM     21  O   UNL     1       3.976   2.805  17.477  0.00  0.00    +0.000 OA
ATOM     22  N   UNL     1       5.384   3.209  19.201  0.00  0.00    +0.000 N 
ATOM     23  H   UNL     1       6.357   3.416  19.443  0.00  0.00    +0.000 HD
BRANCH  22  24
ATOM     24  O   UNL     1       4.848   2.044  19.804  0.00  0.00    +0.000 OA
ATOM     25  H   UNL     1       3.955   2.336  20.096  0.00  0.00    +0.000 HD
ENDBRANCH  22  24
ENDBRANCH  18  20
BRANCH  18  26
ATOM     26  S   UNL     1       6.804   5.334  18.282  0.00  0.00    +0.000 S 
ATOM     27  C   UNL     1       7.390   6.849  17.560  0.00  0.00    +0.000 C 
ATOM     28  O   UNL     1       6.234   5.703  19.563  0.00  0.00    +0.000 OA
ATOM     29  O   UNL     1       7.889   4.368  18.230  0.00  0.00    +0.000 OA
ENDBRANCH  18  26
ENDBRANCH  17  18
ENDBRANCH  16  17
ENDBRANCH   4  16
TORSDOF 8
ENDMDL
MODEL 3
REMARK VINA RESULT:      -7.8      0.879      1.062
REMARK  Name = 
REMARK  11 active torsions:
REMARK  status: ('A' for Active; 'I' for Inactive)
REMARK    1  A    between atoms: C_1  and  O_2
REMARK    2  A    between atoms: O_2  and  C_3
REMARK    3  A    between atoms: C_6  and  C_7
REMARK    4  A    between atoms: N_10  and  C_11
REMARK    5  A    between atoms: C_11  and  C_12
REMARK    6  A    between atoms: C_12  and  C_13
REMARK    7  A    between atoms: C_13  and  C_14
REMARK    8  A    between atoms: C_13  and  C_15
REMARK    9  A    between atoms: C_13  and  S_19
REMARK   10  A    between atoms: N_17  and  O_18
REMARK   11  A    between atoms: S_19  and  C_20
REMARK                            x       y       z     vdW  Elec       q    Type
REMARK                         _______ _______ _______ _____ _____    ______ ____
ROOT
ATOM      1  C   UNL     1       1.025   9.376  19.515  0.00  0.00    +0.000 A 
ATOM      2  C   UNL     1       1.703   9.548  18.249  0.00  0.00    +0.000 A 
ATOM      3  C   UNL     1       2.514   8.593  17.781  0.00  0.00    +0.000 A 
ATOM      4  N   UNL     1       2.761   7.440  18.510  0.00  0.00    +0.000 N 
ATOM      5  C   UNL     1       2.201   7.237  19.775  0.00  0.00    +0.000 A 
ATOM      6  O   UNL     1       2.384   6.241  20.471  0.00  0.00    +0.000 OA
ATOM      7  C   UNL     1       1.275   8.288  20.261  0.00  0.00    +0.000 A 
ENDROOT
BRANCH   1  11
ATOM      8  C   UNL     1      -1.905  12.120  20.971  0.00  0.00    +0.000 A 
ATOM      9  C   UNL     1      -1.859  11.786  19.614  0.00  0.00    +0.000 A 
ATOM     10  C   UNL     1      -0.910  10.882  19.135  0.00  0.00    +0.000 A 
ATOM     11  C   UNL     1       0.016  10.317  20.012  0.00  0.00    +0.000 A 
ATOM     12  C   UNL     1      -0.014  10.666  21.371  0.00  0.00    +0.000 A 
ATOM     13  C   UNL     1      -0.970  11.571  21.845  0.00  0.00    +0.000 A 
BRANCH   8  15
ATOM     14  C   UNL     1      -2.901  13.390  22.687  0.00  0.00    +0.000 C 
ATOM     15  O   UNL     1      -2.877  13.018  21.313  0.00  0.00    +0.000 OA
ENDBRANCH   8  15
ENDBRANCH   1  11
BRANCH   4  16
ATOM     16  C   UNL     1       3.335   6.280  17.838  0.00  0.00    +0.000 C 
BRANCH  16  17
ATOM     17  C   UNL     1       4.781   6.428  17.348  0.00  0.00    +0.000 C 
BRANCH  17  18
ATOM     18  C   UNL     1       5.635   5.133  17.513  0.00  0.00    +0.000 C 
ATOM     19  C   UNL     1       4.796   3.879  17.202  0.00  0.00    +0.000 C 
BRANCH  18  20
ATOM     20  C   UNL     1       6.165   5.032  18.945  0.00  0.00    +0.000 C 
ATOM     21  O   UNL     1       5.558   4.443  19.843  0.00  0.00    +0.000 OA
ATOM     22  N   UNL     1       7.377   5.630  19.209  0.00  0.00    +0.000 N 
ATOM     23  H   UNL     1       8.099   5.714  18.488  0.00  0.00    +0.000 HD
BRANCH  22  24
ATOM     24  O   UNL     1       7.861   5.436  20.527  0.00  0.00    +0.000 OA
ATOM     25  H   UNL     1       8.463   4.665  20.431  0.00  0.00    +0.000 HD
ENDBRANCH  22  24
ENDBRANCH  18  20
BRANCH  18  26
ATOM     26  S   UNL     1       7.092   5.192  16.434  0.00  0.00    +0.000 S 
ATOM     27  C   UNL     1       6.564   4.747  14.796  0.00  0.00    +0.000 C 
ATOM     28  O   UNL     1       7.547   6.566  16.342  0.00  0.00    +0.000 OA
ATOM     29  O   UNL     1       8.006   4.162  16.902  0.00  0.00    +0.000 OA
ENDBRANCH  18  26
ENDBRANCH  17  18
ENDBRANCH  16  17
ENDBRANCH   4  16
TORSDOF 8
ENDMDL
MODEL 4
REMARK VINA RESULT:      -7.7      0.935      1.126
REMARK  Name = 
REMARK  11 active torsions:
REMARK  status: ('A' for Active; 'I' for Inactive)
REMARK    1  A    between atoms: C_1  and  O_2
REMARK    2  A    between atoms: O_2  and  C_3
REMARK    3  A    between atoms: C_6  and  C_7
REMARK    4  A    between atoms: N_10  and  C_11
REMARK    5  A    between atoms: C_11  and  C_12
REMARK    6  A    between atoms: C_12  and  C_13
REMARK    7  A    between atoms: C_13  and  C_14
REMARK    8  A    between atoms: C_13  and  C_15
REMARK    9  A    between atoms: C_13  and  S_19
REMARK   10  A    between atoms: N_17  and  O_18
REMARK   11  A    between atoms: S_19  and  C_20
REMARK                            x       y       z     vdW  Elec       q    Type
REMARK                         _______ _______ _______ _____ _____    ______ ____
ROOT
ATOM      1  C   UNL     1       1.237   8.867  20.215  0.00  0.00    +0.000 A 
ATOM      2  C   UNL     1       1.766   9.146  18.898  0.00  0.00    +0.000 A 
ATOM      3  C   UNL     1       2.442   8.206  18.228  0.00  0.00    +0.000 A 
ATOM      4  N   UNL     1       2.693   6.964  18.790  0.00  0.00    +0.000 N 
ATOM      5  C   UNL     1       2.278   6.647  20.087  0.00  0.00    +0.000 A 
ATOM      6  O   UNL     1       2.472   5.568  20.642  0.00  0.00    +0.000 OA
ATOM      7  C   UNL     1       1.498   7.687  20.800  0.00  0.00    +0.000 A 
ENDROOT
BRANCH   1  11
ATOM      8  C   UNL     1      -1.288  11.584  22.330  0.00  0.00    +0.000 A 
ATOM      9  C   UNL     1      -0.957  11.819  20.992  0.00  0.00    +0.000 A 
ATOM     10  C   UNL     1      -0.140  10.929  20.293  0.00  0.00    +0.000 A 
ATOM     11  C   UNL     1       0.368   9.801  20.938  0.00  0.00    +0.000 A 
ATOM     12  C   UNL     1       0.054   9.573  22.286  0.00  0.00    +0.000 A 
ATOM     13  C   UNL     1      -0.768  10.468  22.980  0.00  0.00    +0.000 A 
BRANCH   8  15
ATOM     14  C   UNL     1      -3.200  12.021  23.636  0.00  0.00    +0.000 C 
ATOM     15  O   UNL     1      -2.092  12.531  22.902  0.00  0.00    +0.000 OA
ENDBRANCH   8  15
ENDBRANCH   1  11
BRANCH   4  16
ATOM     16  C   UNL     1       3.094   5.859  17.928  0.00  0.00    +0.000 C 
BRANCH  16  17
ATOM     17  C   UNL     1       4.388   6.059  17.129  0.00  0.00    +0.000 C 
BRANCH  17  18
ATOM     18  C   UNL     1       5.307   4.798  17.096  0.00  0.00    +0.000 C 
ATOM     19  C   UNL     1       4.695   3.697  16.211  0.00  0.00    +0.000 C 
BRANCH  18  20
ATOM     20  C   UNL     1       5.496   4.249  18.512  0.00  0.00    +0.000 C 
ATOM     21  O   UNL     1       6.000   4.910  19.424  0.00  0.00    +0.000 OA
ATOM     22  N   UNL     1       5.068   2.962  18.748  0.00  0.00    +0.000 N 
ATOM     23  H   UNL     1       4.283   2.557  18.231  0.00  0.00    +0.000 HD
BRANCH  22  24
ATOM     24  O   UNL     1       5.190   2.532  20.093  0.00  0.00    +0.000 OA
ATOM     25  H   UNL     1       5.775   3.215  20.492  0.00  0.00    +0.000 HD
ENDBRANCH  22  24
ENDBRANCH  18  20
BRANCH  18  26
ATOM     26  S   UNL     1       6.963   5.234  16.496  0.00  0.00    +0.000 S 
ATOM     27  C   UNL     1       6.984   4.963  14.740  0.00  0.00    +0.000 C 
ATOM     28  O   UNL     1       7.163   6.659  16.677  0.00  0.00    +0.000 OA
ATOM     29  O   UNL     1       7.892   4.295  17.102  0.00  0.00    +0.000 OA
ENDBRANCH  18  26
ENDBRANCH  17  18
ENDBRANCH  16  17
ENDBRANCH   4  16
TORSDOF 8
ENDMDL
MODEL 5
REMARK VINA RESULT:      -7.6      1.409      1.758
REMARK  Name = 
REMARK  11 active torsions:
REMARK  status: ('A' for Active; 'I' for Inactive)
REMARK    1  A    between atoms: C_1  and  O_2
REMARK    2  A    between atoms: O_2  and  C_3
REMARK    3  A    between atoms: C_6  and  C_7
REMARK    4  A    between atoms: N_10  and  C_11
REMARK    5  A    between atoms: C_11  and  C_12
REMARK    6  A    between atoms: C_12  and  C_13
REMARK    7  A    between atoms: C_13  and  C_14
REMARK    8  A    between atoms: C_13  and  C_15
REMARK    9  A    between atoms: C_13  and  S_19
REMARK   10  A    between atoms: N_17  and  O_18
REMARK   11  A    between atoms: S_19  and  C_20
REMARK                            x       y       z     vdW  Elec       q    Type
REMARK                         _______ _______ _______ _____ _____    ______ ____
ROOT
ATOM      1  C   UNL     1       0.819   9.593  19.371  0.00  0.00    +0.000 A 
ATOM      2  C   UNL     1       1.501   9.647  18.098  0.00  0.00    +0.000 A 
ATOM      3  C   UNL     1       2.328   8.662  17.731  0.00  0.00    +0.000 A 
ATOM      4  N   UNL     1       2.588   7.592  18.573  0.00  0.00    +0.000 N 
ATOM      5  C   UNL     1       2.023   7.508  19.850  0.00  0.00    +0.000 A 
ATOM      6  O   UNL     1       2.216   6.589  20.643  0.00  0.00    +0.000 OA
ATOM      7  C   UNL     1       1.080   8.589  20.224  0.00  0.00    +0.000 A 
ENDROOT
BRANCH   1  11
ATOM      8  C   UNL     1      -2.157  12.427  20.532  0.00  0.00    +0.000 A 
ATOM      9  C   UNL     1      -2.118  11.936  19.224  0.00  0.00    +0.000 A 
ATOM     10  C   UNL     1      -1.154  11.001  18.842  0.00  0.00    +0.000 A 
ATOM     11  C   UNL     1      -0.206  10.564  19.768  0.00  0.00    +0.000 A 
ATOM     12  C   UNL     1      -0.230  11.070  21.076  0.00  0.00    +0.000 A 
ATOM     13  C   UNL     1      -1.201  12.004  21.453  0.00  0.00    +0.000 A 
BRANCH   8  15
ATOM     14  C   UNL     1      -4.269  12.834  21.495  0.00  0.00    +0.000 C 
ATOM     15  O   UNL     1      -3.146  13.337  20.779  0.00  0.00    +0.000 OA
ENDBRANCH   8  15
ENDBRANCH   1  11
BRANCH   4  16
ATOM     16  C   UNL     1       3.181   6.378  18.023  0.00  0.00    +0.000 C 
BRANCH  16  17
ATOM     17  C   UNL     1       4.640   6.488  17.563  0.00  0.00    +0.000 C 
BRANCH  17  18
ATOM     18  C   UNL     1       5.334   5.107  17.342  0.00  0.00    +0.000 C 
ATOM     19  C   UNL     1       4.501   4.220  16.398  0.00  0.00    +0.000 C 
BRANCH  18  20
ATOM     20  C   UNL     1       5.503   4.385  18.681  0.00  0.00    +0.000 C 
ATOM     21  O   UNL     1       5.968   4.934  19.683  0.00  0.00    +0.000 OA
ATOM     22  N   UNL     1       5.105   3.068  18.738  0.00  0.00    +0.000 N 
ATOM     23  H   UNL     1       4.344   2.715  18.153  0.00  0.00    +0.000 HD
BRANCH  22  24
ATOM     24  O   UNL     1       5.206   2.472  20.020  0.00  0.00    +0.000 OA
ATOM     25  H   UNL     1       6.177   2.361  20.137  0.00  0.00    +0.000 HD
ENDBRANCH  22  24
ENDBRANCH  18  20
BRANCH  18  26
ATOM     26  S   UNL     1       7.004   5.336  16.673  0.00  0.00    +0.000 S 
ATOM     27  C   UNL     1       6.962   4.871  14.958  0.00  0.00    +0.000 C 
ATOM     28  O   UNL     1       7.323   6.750  16.690  0.00  0.00    +0.000 OA
ATOM     29  O   UNL     1       7.869   4.396  17.368  0.00  0.00    +0.000 OA
ENDBRANCH  18  26
ENDBRANCH  17  18
ENDBRANCH  16  17
ENDBRANCH   4  16
TORSDOF 8
ENDMDL
MODEL 6
REMARK VINA RESULT:      -7.6      1.132      1.552
REMARK  Name = 
REMARK  11 active torsions:
REMARK  status: ('A' for Active; 'I' for Inactive)
REMARK    1  A    between atoms: C_1  and  O_2
REMARK    2  A    between atoms: O_2  and  C_3
REMARK    3  A    between atoms: C_6  and  C_7
REMARK    4  A    between atoms: N_10  and  C_11
REMARK    5  A    between atoms: C_11  and  C_12
REMARK    6  A    between atoms: C_12  and  C_13
REMARK    7  A    between atoms: C_13  and  C_14
REMARK    8  A    between atoms: C_13  and  C_15
REMARK    9  A    between atoms: C_13  and  S_19
REMARK   10  A    between atoms: N_17  and  O_18
REMARK   11  A    between atoms: S_19  and  C_20
REMARK                            x       y       z     vdW  Elec       q    Type
REMARK                         _______ _______ _______ _____ _____    ______ ____
ROOT
ATOM      1  C   UNL     1       1.101   9.132  19.923  0.00  0.00    +0.000 A 
ATOM      2  C   UNL     1       1.713   9.366  18.633  0.00  0.00    +0.000 A 
ATOM      3  C   UNL     1       2.469   8.420  18.063  0.00  0.00    +0.000 A 
ATOM      4  N   UNL     1       2.723   7.219  18.706  0.00  0.00    +0.000 N 
ATOM      5  C   UNL     1       2.226   6.951  19.986  0.00  0.00    +0.000 A 
ATOM      6  O   UNL     1       2.418   5.910  20.609  0.00  0.00    +0.000 OA
ATOM      7  C   UNL     1       1.360   7.994  20.586  0.00  0.00    +0.000 A 
ENDROOT
BRANCH   1  11
ATOM      8  C   UNL     1      -1.663  11.854  21.708  0.00  0.00    +0.000 A 
ATOM      9  C   UNL     1      -1.513  11.805  20.319  0.00  0.00    +0.000 A 
ATOM     10  C   UNL     1      -0.619  10.910  19.730  0.00  0.00    +0.000 A 
ATOM     11  C   UNL     1       0.149  10.066  20.533  0.00  0.00    +0.000 A 
ATOM     12  C   UNL     1       0.017  10.128  21.928  0.00  0.00    +0.000 A 
ATOM     13  C   UNL     1      -0.885  11.025  22.512  0.00  0.00    +0.000 A 
BRANCH   8  15
ATOM     14  C   UNL     1      -2.341  13.246  23.484  0.00  0.00    +0.000 C 
ATOM     15  O   UNL     1      -2.567  12.774  22.160  0.00  0.00    +0.000 OA
ENDBRANCH   8  15
ENDBRANCH   1  11
BRANCH   4  16
ATOM     16  C   UNL     1       3.224   6.088  17.933  0.00  0.00    +0.000 C 
BRANCH  16  17
ATOM     17  C   UNL     1       4.595   6.276  17.271  0.00  0.00    +0.000 C 
BRANCH  17  18
ATOM     18  C   UNL     1       5.460   4.978  17.241  0.00  0.00    +0.000 C 
ATOM     19  C   UNL     1       4.879   3.954  16.249  0.00  0.00    +0.000 C 
BRANCH  18  20
ATOM     20  C   UNL     1       5.508   4.347  18.635  0.00  0.00    +0.000 C 
ATOM     21  O   UNL     1       5.900   4.959  19.633  0.00  0.00    +0.000 OA
ATOM     22  N   UNL     1       5.084   3.042  18.748  0.00  0.00    +0.000 N 
ATOM     23  H   UNL     1       4.367   2.658  18.127  0.00  0.00    +0.000 HD
BRANCH  22  24
ATOM     24  O   UNL     1       5.071   2.534  20.071  0.00  0.00    +0.000 OA
ATOM     25  H   UNL     1       5.678   1.762  20.018  0.00  0.00    +0.000 HD
ENDBRANCH  22  24
ENDBRANCH  18  20
BRANCH  18  26
ATOM     26  S   UNL     1       7.176   5.369  16.801  0.00  0.00    +0.000 S 
ATOM     27  C   UNL     1       7.611   6.878  17.633  0.00  0.00    +0.000 C 
ATOM     28  O   UNL     1       8.043   4.349  17.358  0.00  0.00    +0.000 OA
ATOM     29  O   UNL     1       7.197   5.627  15.371  0.00  0.00    +0.000 OA
ENDBRANCH  18  26
ENDBRANCH  17  18
ENDBRANCH  16  17
ENDBRANCH   4  16
TORSDOF 8
ENDMDL
MODEL 7
REMARK VINA RESULT:      -7.5      2.357      3.226
REMARK  Name = 
REMARK  11 active torsions:
REMARK  status: ('A' for Active; 'I' for Inactive)
REMARK    1  A    between atoms: C_1  and  O_2
REMARK    2  A    between atoms: O_2  and  C_3
REMARK    3  A    between atoms: C_6  and  C_7
REMARK    4  A    between atoms: N_10  and  C_11
REMARK    5  A    between atoms: C_11  and  C_12
REMARK    6  A    between atoms: C_12  and  C_13
REMARK    7  A    between atoms: C_13  and  C_14
REMARK    8  A    between atoms: C_13  and  C_15
REMARK    9  A    between atoms: C_13  and  S_19
REMARK   10  A    between atoms: N_17  and  O_18
REMARK   11  A    between atoms: S_19  and  C_20
REMARK                            x       y       z     vdW  Elec       q    Type
REMARK                         _______ _______ _______ _____ _____    ______ ____
ROOT
ATOM      1  C   UNL     1       0.739   9.617  20.600  0.00  0.00    +0.000 A 
ATOM      2  C   UNL     1       1.026   8.340  21.214  0.00  0.00    +0.000 A 
ATOM      3  C   UNL     1       1.704   7.403  20.541  0.00  0.00    +0.000 A 
ATOM      4  N   UNL     1       2.107   7.611  19.231  0.00  0.00    +0.000 N 
ATOM      5  C   UNL     1       1.800   8.791  18.546  0.00  0.00    +0.000 A 
ATOM      6  O   UNL     1       2.124   9.033  17.386  0.00  0.00    +0.000 OA
ATOM      7  C   UNL     1       1.082   9.832  19.320  0.00  0.00    +0.000 A 
ENDROOT
BRANCH   1  11
ATOM      8  C   UNL     1      -1.034  12.861  22.737  0.00  0.00    +0.000 A 
ATOM      9  C   UNL     1      -0.159  13.106  21.676  0.00  0.00    +0.000 A 
ATOM     10  C   UNL     1       0.416  12.049  20.967  0.00  0.00    +0.000 A 
ATOM     11  C   UNL     1       0.129  10.733  21.331  0.00  0.00    +0.000 A 
ATOM     12  C   UNL     1      -0.733  10.484  22.408  0.00  0.00    +0.000 A 
ATOM     13  C   UNL     1      -1.308  11.547  23.113  0.00  0.00    +0.000 A 
BRANCH   8  15
ATOM     14  C   UNL     1      -2.755  14.468  22.823  0.00  0.00    +0.000 C 
ATOM     15  O   UNL     1      -1.526  13.978  23.351  0.00  0.00    +0.000 OA
ENDBRANCH   8  15
ENDBRANCH   1  11
BRANCH   4  16
ATOM     16  C   UNL     1       3.137   6.753  18.656  0.00  0.00    +0.000 C 
BRANCH  16  17
ATOM     17  C   UNL     1       2.654   5.426  18.056  0.00  0.00    +0.000 C 
BRANCH  17  18
ATOM     18  C   UNL     1       3.294   4.167  18.720  0.00  0.00    +0.000 C 
ATOM     19  C   UNL     1       3.072   4.178  20.243  0.00  0.00    +0.000 C 
BRANCH  18  20
ATOM     20  C   UNL     1       4.798   4.133  18.437  0.00  0.00    +0.000 C 
ATOM     21  O   UNL     1       5.648   4.277  19.321  0.00  0.00    +0.000 OA
ATOM     22  N   UNL     1       5.187   3.923  17.134  0.00  0.00    +0.000 N 
ATOM     23  H   UNL     1       4.616   3.371  16.489  0.00  0.00    +0.000 HD
BRANCH  22  24
ATOM     24  O   UNL     1       6.588   3.817  16.941  0.00  0.00    +0.000 OA
ATOM     25  H   UNL     1       6.661   3.509  16.010  0.00  0.00    +0.000 HD
ENDBRANCH  22  24
ENDBRANCH  18  20
BRANCH  18  26
ATOM     26  S   UNL     1       2.607   2.651  17.999  0.00  0.00    +0.000 S 
ATOM     27  C   UNL     1       1.072   2.313  18.828  0.00  0.00    +0.000 C 
ATOM     28  O   UNL     1       2.259   2.910  16.615  0.00  0.00    +0.000 OA
ATOM     29  O   UNL     1       3.532   1.575  18.318  0.00  0.00    +0.000 OA
ENDBRANCH  18  26
ENDBRANCH  17  18
ENDBRANCH  16  17
ENDBRANCH   4  16
TORSDOF 8
ENDMDL
MODEL 8
REMARK VINA RESULT:      -7.4      1.481      2.081
REMARK  Name = 
REMARK  11 active torsions:
REMARK  status: ('A' for Active; 'I' for Inactive)
REMARK    1  A    between atoms: C_1  and  O_2
REMARK    2  A    between atoms: O_2  and  C_3
REMARK    3  A    between atoms: C_6  and  C_7
REMARK    4  A    between atoms: N_10  and  C_11
REMARK    5  A    between atoms: C_11  and  C_12
REMARK    6  A    between atoms: C_12  and  C_13
REMARK    7  A    between atoms: C_13  and  C_14
REMARK    8  A    between atoms: C_13  and  C_15
REMARK    9  A    between atoms: C_13  and  S_19
REMARK   10  A    between atoms: N_17  and  O_18
REMARK   11  A    between atoms: S_19  and  C_20
REMARK                            x       y       z     vdW  Elec       q    Type
REMARK                         _______ _______ _______ _____ _____    ______ ____
ROOT
ATOM      1  C   UNL     1       0.920   9.560  19.497  0.00  0.00    +0.000 A 
ATOM      2  C   UNL     1       1.587   9.692  18.220  0.00  0.00    +0.000 A 
ATOM      3  C   UNL     1       2.386   8.718  17.772  0.00  0.00    +0.000 A 
ATOM      4  N   UNL     1       2.633   7.584  18.531  0.00  0.00    +0.000 N 
ATOM      5  C   UNL     1       2.082   7.420  19.806  0.00  0.00    +0.000 A 
ATOM      6  O   UNL     1       2.265   6.443  20.528  0.00  0.00    +0.000 OA
ATOM      7  C   UNL     1       1.170   8.492  20.270  0.00  0.00    +0.000 A 
ENDROOT
BRANCH   1  11
ATOM      8  C   UNL     1      -1.991  12.357  20.890  0.00  0.00    +0.000 A 
ATOM      9  C   UNL     1      -1.036  11.832  21.765  0.00  0.00    +0.000 A 
ATOM     10  C   UNL     1      -0.076  10.925  21.313  0.00  0.00    +0.000 A 
ATOM     11  C   UNL     1      -0.077  10.522  19.977  0.00  0.00    +0.000 A 
ATOM     12  C   UNL     1      -1.046  11.032  19.100  0.00  0.00    +0.000 A 
ATOM     13  C   UNL     1      -2.003  11.943  19.560  0.00  0.00    +0.000 A 
BRANCH   8  15
ATOM     14  C   UNL     1      -4.221  13.107  21.006  0.00  0.00    +0.000 C 
ATOM     15  O   UNL     1      -2.876  13.232  21.455  0.00  0.00    +0.000 OA
ENDBRANCH   8  15
ENDBRANCH   1  11
BRANCH   4  16
ATOM     16  C   UNL     1       3.191   6.401  17.886  0.00  0.00    +0.000 C 
BRANCH  16  17
ATOM     17  C   UNL     1       4.671   6.481  17.491  0.00  0.00    +0.000 C 
BRANCH  17  18
ATOM     18  C   UNL     1       5.386   5.095  17.453  0.00  0.00    +0.000 C 
ATOM     19  C   UNL     1       4.773   4.191  16.368  0.00  0.00    +0.000 C 
BRANCH  18  20
ATOM     20  C   UNL     1       5.255   4.399  18.810  0.00  0.00    +0.000 C 
ATOM     21  O   UNL     1       5.229   5.017  19.878  0.00  0.00    +0.000 OA
ATOM     22  N   UNL     1       5.159   3.026  18.805  0.00  0.00    +0.000 N 
ATOM     23  H   UNL     1       4.733   2.524  18.022  0.00  0.00    +0.000 HD
BRANCH  22  24
ATOM     24  O   UNL     1       4.957   2.440  20.080  0.00  0.00    +0.000 OA
ATOM     25  H   UNL     1       4.555   1.569  19.862  0.00  0.00    +0.000 HD
ENDBRANCH  22  24
ENDBRANCH  18  20
BRANCH  18  26
ATOM     26  S   UNL     1       7.164   5.305  17.160  0.00  0.00    +0.000 S 
ATOM     27  C   UNL     1       7.579   6.984  17.569  0.00  0.00    +0.000 C 
ATOM     28  O   UNL     1       7.892   4.478  18.103  0.00  0.00    +0.000 OA
ATOM     29  O   UNL     1       7.380   5.128  15.733  0.00  0.00    +0.000 OA
ENDBRANCH  18  26
ENDBRANCH  17  18
ENDBRANCH  16  17
ENDBRANCH   4  16
TORSDOF 8
ENDMDL
MODEL 9
REMARK VINA RESULT:      -7.4      4.742      7.445
REMARK  Name = 
REMARK  11 active torsions:
REMARK  status: ('A' for Active; 'I' for Inactive)
REMARK    1  A    between atoms: C_1  and  O_2
REMARK    2  A    between atoms: O_2  and  C_3
REMARK    3  A    between atoms: C_6  and  C_7
REMARK    4  A    between atoms: N_10  and  C_11
REMARK    5  A    between atoms: C_11  and  C_12
REMARK    6  A    between atoms: C_12  and  C_13
REMARK    7  A    between atoms: C_13  and  C_14
REMARK    8  A    between atoms: C_13  and  C_15
REMARK    9  A    between atoms: C_13  and  S_19
REMARK   10  A    between atoms: N_17  and  O_18
REMARK   11  A    between atoms: S_19  and  C_20
REMARK                            x       y       z     vdW  Elec       q    Type
REMARK                         _______ _______ _______ _____ _____    ______ ____
ROOT
ATOM      1  C   UNL     1       8.202   8.492  18.247  0.00  0.00    +0.000 A 
ATOM      2  C   UNL     1       7.288   8.175  17.171  0.00  0.00    +0.000 A 
ATOM      3  C   UNL     1       6.775   6.944  17.062  0.00  0.00    +0.000 A 
ATOM      4  N   UNL     1       7.135   5.934  17.940  0.00  0.00    +0.000 N 
ATOM      5  C   UNL     1       8.069   6.146  18.959  0.00  0.00    +0.000 A 
ATOM      6  O   UNL     1       8.432   5.294  19.766  0.00  0.00    +0.000 OA
ATOM      7  C   UNL     1       8.599   7.525  19.089  0.00  0.00    +0.000 A 
ENDROOT
BRANCH   1  11
ATOM      8  C   UNL     1       9.617  12.448  19.006  0.00  0.00    +0.000 A 
ATOM      9  C   UNL     1       8.856  12.174  17.866  0.00  0.00    +0.000 A 
ATOM     10  C   UNL     1       8.382  10.885  17.618  0.00  0.00    +0.000 A 
ATOM     11  C   UNL     1       8.684   9.852  18.506  0.00  0.00    +0.000 A 
ATOM     12  C   UNL     1       9.465  10.119  19.641  0.00  0.00    +0.000 A 
ATOM     13  C   UNL     1       9.934  11.415  19.885  0.00  0.00    +0.000 A 
BRANCH   8  15
ATOM     14  C   UNL     1      10.397  14.386  17.916  0.00  0.00    +0.000 C 
ATOM     15  O   UNL     1      10.023  13.747  19.132  0.00  0.00    +0.000 OA
ENDBRANCH   8  15
ENDBRANCH   1  11
BRANCH   4  16
ATOM     16  C   UNL     1       6.307   4.737  18.030  0.00  0.00    +0.000 C 
BRANCH  16  17
ATOM     17  C   UNL     1       5.299   4.698  19.186  0.00  0.00    +0.000 C 
BRANCH  17  18
ATOM     18  C   UNL     1       3.917   4.090  18.792  0.00  0.00    +0.000 C 
ATOM     19  C   UNL     1       3.820   3.891  17.268  0.00  0.00    +0.000 C 
BRANCH  18  20
ATOM     20  C   UNL     1       2.787   5.019  19.244  0.00  0.00    +0.000 C 
ATOM     21  O   UNL     1       1.810   5.276  18.537  0.00  0.00    +0.000 OA
ATOM     22  N   UNL     1       2.893   5.569  20.502  0.00  0.00    +0.000 N 
ATOM     23  H   UNL     1       3.376   5.080  21.259  0.00  0.00    +0.000 HD
BRANCH  22  24
ATOM     24  O   UNL     1       1.782   6.353  20.902  0.00  0.00    +0.000 OA
ATOM     25  H   UNL     1       1.018   5.757  20.734  0.00  0.00    +0.000 HD
ENDBRANCH  22  24
ENDBRANCH  18  20
BRANCH  18  26
ATOM     26  S   UNL     1       3.650   2.512  19.647  0.00  0.00    +0.000 S 
ATOM     27  C   UNL     1       3.449   1.258  18.404  0.00  0.00    +0.000 C 
ATOM     28  O   UNL     1       4.860   2.163  20.367  0.00  0.00    +0.000 OA
ATOM     29  O   UNL     1       2.393   2.630  20.368  0.00  0.00    +0.000 OA
ENDBRANCH  18  26
ENDBRANCH  17  18
ENDBRANCH  16  17
ENDBRANCH   4  16
TORSDOF 8
ENDMDL
