MODEL 1
REMARK VINA RESULT:      -9.1      0.000      0.000
REMARK  Name = 
REMARK  6 active torsions:
REMARK  status: ('A' for Active; 'I' for Inactive)
REMARK    1  A    between atoms: C_1  and  C_2
REMARK    2  A    between atoms: C_5  and  O_6
REMARK    3  A    between atoms: O_6  and  C_7
REMARK    4  A    between atoms: C_7  and  C_9
REMARK    5  A    between atoms: C_11  and  C_12
REMARK    6  A    between atoms: C_22  and  C_23
REMARK                            x       y       z     vdW  Elec       q    Type
REMARK                         _______ _______ _______ _____ _____    ______ ____
ROOT
ATOM      1  C   UNL     1       3.548   7.044  18.268  0.00  0.00    +0.000 A 
ATOM      2  C   UNL     1       3.545   6.500  19.551  0.00  0.00    +0.000 A 
ATOM      3  C   UNL     1       4.121   5.277  19.581  0.00  0.00    +0.000 A 
ATOM      4  N   UNL     1       5.411   5.431  19.270  0.00  0.00    +0.000 NA
ATOM      5  C   UNL     1       5.635   5.988  18.067  0.00  0.00    +0.000 A 
ATOM      6  C   UNL     1       6.923   5.912  17.555  0.00  0.00    +0.000 A 
ATOM      7  C   UNL     1       7.115   5.521  16.249  0.00  0.00    +0.000 A 
ATOM      8  C   UNL     1       5.989   5.167  15.520  0.00  0.00    +0.000 A 
ATOM      9  C   UNL     1       6.215   3.949  14.631  0.00  0.00    +0.000 C 
ATOM     10  C   UNL     1       4.736   5.751  15.939  0.00  0.00    +0.000 A 
ATOM     11  C   UNL     1       4.552   6.386  17.298  0.00  0.00    +0.000 A 
ENDROOT
BRANCH   3  12
ATOM     12  C   UNL     1       3.375   4.143  18.836  0.00  0.00    +0.000 A 
ATOM     13  C   UNL     1       1.970   4.080  18.753  0.00  0.00    +0.000 A 
ATOM     14  C   UNL     1       1.308   2.904  18.350  0.00  0.00    +0.000 A 
ATOM     15  C   UNL     1       2.029   1.762  18.009  0.00  0.00    +0.000 A 
ATOM     16  C   UNL     1       3.417   1.804  18.031  0.00  0.00    +0.000 A 
ATOM     17  C   UNL     1       4.075   2.983  18.413  0.00  0.00    +0.000 A 
ENDBRANCH   3  12
BRANCH   1  18
ATOM     18  C   UNL     1       2.499   8.175  18.158  0.00  0.00    +0.000 C 
ATOM     19  O   UNL     1       2.366   8.917  17.197  0.00  0.00    +0.000 OA
BRANCH  18  20
ATOM     20  O   UNL     1       1.598   8.246  19.364  0.00  0.00    +0.000 OA
BRANCH  20  25
ATOM     21  C   UNL     1      -1.503  11.581  23.134  0.00  0.00    +0.000 C 
ATOM     22  C   UNL     1      -0.643  10.769  22.182  0.00  0.00    +0.000 A 
ATOM     23  C   UNL     1       0.113   9.657  22.624  0.00  0.00    +0.000 A 
ATOM     24  C   UNL     1       0.899   8.861  21.731  0.00  0.00    +0.000 A 
ATOM     25  C   UNL     1       0.898   9.126  20.382  0.00  0.00    +0.000 A 
ATOM     26  C   UNL     1       0.169  10.261  19.916  0.00  0.00    +0.000 A 
ATOM     27  C   UNL     1      -0.585  11.062  20.816  0.00  0.00    +0.000 A 
ENDBRANCH  20  25
ENDBRANCH  18  20
ENDBRANCH   1  18
TORSDOF 4
ENDMDL
MODEL 2
REMARK VINA RESULT:      -8.5      0.272      1.332
REMARK  Name = 
REMARK  6 active torsions:
REMARK  status: ('A' for Active; 'I' for Inactive)
REMARK    1  A    between atoms: C_1  and  C_2
REMARK    2  A    between atoms: C_5  and  O_6
REMARK    3  A    between atoms: O_6  and  C_7
REMARK    4  A    between atoms: C_7  and  C_9
REMARK    5  A    between atoms: C_11  and  C_12
REMARK    6  A    between atoms: C_22  and  C_23
REMARK                            x       y       z     vdW  Elec       q    Type
REMARK                         _______ _______ _______ _____ _____    ______ ____
ROOT
ATOM      1  C   UNL     1       3.626   6.928  18.318  0.00  0.00    +0.000 A 
ATOM      2  C   UNL     1       3.743   6.479  19.631  0.00  0.00    +0.000 A 
ATOM      3  C   UNL     1       4.364   5.279  19.700  0.00  0.00    +0.000 A 
ATOM      4  N   UNL     1       5.619   5.450  19.275  0.00  0.00    +0.000 NA
ATOM      5  C   UNL     1       5.727   5.924  18.023  0.00  0.00    +0.000 A 
ATOM      6  C   UNL     1       6.974   5.851  17.414  0.00  0.00    +0.000 A 
ATOM      7  C   UNL     1       7.077   5.373  16.128  0.00  0.00    +0.000 A 
ATOM      8  C   UNL     1       5.911   4.933  15.519  0.00  0.00    +0.000 A 
ATOM      9  C   UNL     1       6.110   3.661  14.701  0.00  0.00    +0.000 C 
ATOM     10  C   UNL     1       4.673   5.507  15.995  0.00  0.00    +0.000 A 
ATOM     11  C   UNL     1       4.574   6.233  17.318  0.00  0.00    +0.000 A 
ENDROOT
BRANCH   3  12
ATOM     12  C   UNL     1       3.603   4.072  19.099  0.00  0.00    +0.000 A 
ATOM     13  C   UNL     1       4.259   2.929  18.599  0.00  0.00    +0.000 A 
ATOM     14  C   UNL     1       3.589   1.992  17.788  0.00  0.00    +0.000 A 
ATOM     15  C   UNL     1       2.246   2.163  17.464  0.00  0.00    +0.000 A 
ATOM     16  C   UNL     1       1.556   3.251  17.980  0.00  0.00    +0.000 A 
ATOM     17  C   UNL     1       2.219   4.172  18.805  0.00  0.00    +0.000 A 
ENDBRANCH   3  12
BRANCH   1  18
ATOM     18  C   UNL     1       2.531   8.016  18.213  0.00  0.00    +0.000 C 
ATOM     19  O   UNL     1       2.296   8.682  17.218  0.00  0.00    +0.000 OA
BRANCH  18  20
ATOM     20  O   UNL     1       1.725   8.146  19.481  0.00  0.00    +0.000 OA
BRANCH  20  25
ATOM     21  C   UNL     1      -1.335  11.707  23.073  0.00  0.00    +0.000 C 
ATOM     22  C   UNL     1      -0.615  10.751  22.139  0.00  0.00    +0.000 A 
ATOM     23  C   UNL     1      -0.591  10.952  20.739  0.00  0.00    +0.000 A 
ATOM     24  C   UNL     1       0.115  10.079  19.850  0.00  0.00    +0.000 A 
ATOM     25  C   UNL     1       0.848   9.028  20.348  0.00  0.00    +0.000 A 
ATOM     26  C   UNL     1       0.814   8.785  21.753  0.00  0.00    +0.000 A 
ATOM     27  C   UNL     1       0.086   9.642  22.623  0.00  0.00    +0.000 A 
ENDBRANCH  20  25
ENDBRANCH  18  20
ENDBRANCH   1  18
TORSDOF 4
ENDMDL
MODEL 3
REMARK VINA RESULT:      -8.1      2.653      8.823
REMARK  Name = 
REMARK  6 active torsions:
REMARK  status: ('A' for Active; 'I' for Inactive)
REMARK    1  A    between atoms: C_1  and  C_2
REMARK    2  A    between atoms: C_5  and  O_6
REMARK    3  A    between atoms: O_6  and  C_7
REMARK    4  A    between atoms: C_7  and  C_9
REMARK    5  A    between atoms: C_11  and  C_12
REMARK    6  A    between atoms: C_22  and  C_23
REMARK                            x       y       z     vdW  Elec       q    Type
REMARK                         _______ _______ _______ _____ _____    ______ ____
ROOT
ATOM      1  C   UNL     1       0.739   9.917  20.170  0.00  0.00    +0.000 A 
ATOM      2  C   UNL     1       0.904  10.430  18.886  0.00  0.00    +0.000 A 
ATOM      3  C   UNL     1       0.022  11.421  18.622  0.00  0.00    +0.000 A 
ATOM      4  N   UNL     1       0.301  12.438  19.442  0.00  0.00    +0.000 NA
ATOM      5  C   UNL     1       0.236  12.136  20.750  0.00  0.00    +0.000 A 
ATOM      6  C   UNL     1       0.222  13.191  21.652  0.00  0.00    +0.000 A 
ATOM      7  C   UNL     1      -0.697  13.201  22.676  0.00  0.00    +0.000 A 
ATOM      8  C   UNL     1      -1.611  12.158  22.718  0.00  0.00    +0.000 A 
ATOM      9  C   UNL     1      -3.017  12.615  23.093  0.00  0.00    +0.000 C 
ATOM     10  C   UNL     1      -1.207  10.916  22.101  0.00  0.00    +0.000 A 
ATOM     11  C   UNL     1      -0.054  10.833  21.127  0.00  0.00    +0.000 A 
ENDROOT
BRANCH   3  12
ATOM     12  C   UNL     1      -1.469  11.013  18.529  0.00  0.00    +0.000 A 
ATOM     13  C   UNL     1      -1.900   9.841  17.876  0.00  0.00    +0.000 A 
ATOM     14  C   UNL     1      -3.252   9.644  17.534  0.00  0.00    +0.000 A 
ATOM     15  C   UNL     1      -4.212  10.605  17.845  0.00  0.00    +0.000 A 
ATOM     16  C   UNL     1      -3.831  11.748  18.533  0.00  0.00    +0.000 A 
ATOM     17  C   UNL     1      -2.487  11.934  18.891  0.00  0.00    +0.000 A 
ENDBRANCH   3  12
BRANCH   1  18
ATOM     18  C   UNL     1       1.394   8.521  20.284  0.00  0.00    +0.000 C 
ATOM     19  O   UNL     1       1.347   7.802  21.269  0.00  0.00    +0.000 OA
BRANCH  18  20
ATOM     20  O   UNL     1       2.077   8.099  19.008  0.00  0.00    +0.000 OA
BRANCH  20  25
ATOM     21  C   UNL     1       5.199   3.886  16.278  0.00  0.00    +0.000 C 
ATOM     22  C   UNL     1       4.350   4.971  16.916  0.00  0.00    +0.000 A 
ATOM     23  C   UNL     1       3.187   4.667  17.662  0.00  0.00    +0.000 A 
ATOM     24  C   UNL     1       2.399   5.678  18.299  0.00  0.00    +0.000 A 
ATOM     25  C   UNL     1       2.787   6.996  18.248  0.00  0.00    +0.000 A 
ATOM     26  C   UNL     1       3.938   7.332  17.475  0.00  0.00    +0.000 A 
ATOM     27  C   UNL     1       4.698   6.323  16.823  0.00  0.00    +0.000 A 
ENDBRANCH  20  25
ENDBRANCH  18  20
ENDBRANCH   1  18
TORSDOF 4
ENDMDL
MODEL 4
REMARK VINA RESULT:      -7.8      2.819      9.128
REMARK  Name = 
REMARK  6 active torsions:
REMARK  status: ('A' for Active; 'I' for Inactive)
REMARK    1  A    between atoms: C_1  and  C_2
REMARK    2  A    between atoms: C_5  and  O_6
REMARK    3  A    between atoms: O_6  and  C_7
REMARK    4  A    between atoms: C_7  and  C_9
REMARK    5  A    between atoms: C_11  and  C_12
REMARK    6  A    between atoms: C_22  and  C_23
REMARK                            x       y       z     vdW  Elec       q    Type
REMARK                         _______ _______ _______ _____ _____    ______ ____
ROOT
ATOM      1  C   UNL     1       0.485  10.747  21.562  0.00  0.00    +0.000 A 
ATOM      2  C   UNL     1       0.922  11.277  20.350  0.00  0.00    +0.000 A 
ATOM      3  C   UNL     1       0.021  12.136  19.821  0.00  0.00    +0.000 A 
ATOM      4  N   UNL     1      -0.070  13.182  20.647  0.00  0.00    +0.000 NA
ATOM      5  C   UNL     1      -0.446  12.876  21.900  0.00  0.00    +0.000 A 
ATOM      6  C   UNL     1      -0.843  13.920  22.725  0.00  0.00    +0.000 A 
ATOM      7  C   UNL     1      -1.998  13.804  23.464  0.00  0.00    +0.000 A 
ATOM      8  C   UNL     1      -2.742  12.645  23.300  0.00  0.00    +0.000 A 
ATOM      9  C   UNL     1      -4.245  12.904  23.266  0.00  0.00    +0.000 C 
ATOM     10  C   UNL     1      -2.025  11.470  22.861  0.00  0.00    +0.000 A 
ATOM     11  C   UNL     1      -0.651  11.546  22.235  0.00  0.00    +0.000 A 
ENDROOT
BRANCH   3  12
ATOM     12  C   UNL     1      -1.322  11.526  19.348  0.00  0.00    +0.000 A 
ATOM     13  C   UNL     1      -1.399  10.320  18.622  0.00  0.00    +0.000 A 
ATOM     14  C   UNL     1      -2.573   9.944  17.943  0.00  0.00    +0.000 A 
ATOM     15  C   UNL     1      -3.707  10.754  17.978  0.00  0.00    +0.000 A 
ATOM     16  C   UNL     1      -3.682  11.923  18.725  0.00  0.00    +0.000 A 
ATOM     17  C   UNL     1      -2.518  12.286  19.419  0.00  0.00    +0.000 A 
ENDBRANCH   3  12
BRANCH   1  18
ATOM     18  C   UNL     1       1.264   9.455  21.901  0.00  0.00    +0.000 C 
ATOM     19  O   UNL     1       1.828   9.233  22.960  0.00  0.00    +0.000 OA
BRANCH  18  20
ATOM     20  O   UNL     1       1.221   8.445  20.782  0.00  0.00    +0.000 OA
BRANCH  20  25
ATOM     21  C   UNL     1       4.572   5.627  16.810  0.00  0.00    +0.000 C 
ATOM     22  C   UNL     1       3.648   6.316  17.799  0.00  0.00    +0.000 A 
ATOM     23  C   UNL     1       3.268   5.705  19.017  0.00  0.00    +0.000 A 
ATOM     24  C   UNL     1       2.428   6.358  19.974  0.00  0.00    +0.000 A 
ATOM     25  C   UNL     1       1.999   7.646  19.756  0.00  0.00    +0.000 A 
ATOM     26  C   UNL     1       2.342   8.273  18.521  0.00  0.00    +0.000 A 
ATOM     27  C   UNL     1       3.154   7.604  17.565  0.00  0.00    +0.000 A 
ENDBRANCH  20  25
ENDBRANCH  18  20
ENDBRANCH   1  18
TORSDOF 4
ENDMDL
MODEL 5
REMARK VINA RESULT:      -7.6      3.068      8.013
REMARK  Name = 
REMARK  6 active torsions:
REMARK  status: ('A' for Active; 'I' for Inactive)
REMARK    1  A    between atoms: C_1  and  C_2
REMARK    2  A    between atoms: C_5  and  O_6
REMARK    3  A    between atoms: O_6  and  C_7
REMARK    4  A    between atoms: C_7  and  C_9
REMARK    5  A    between atoms: C_11  and  C_12
REMARK    6  A    between atoms: C_22  and  C_23
REMARK                            x       y       z     vdW  Elec       q    Type
REMARK                         _______ _______ _______ _____ _____    ______ ____
ROOT
ATOM      1  C   UNL     1       1.112  10.329  18.505  0.00  0.00    +0.000 A 
ATOM      2  C   UNL     1      -0.196   9.923  18.253  0.00  0.00    +0.000 A 
ATOM      3  C   UNL     1      -1.092  10.638  18.971  0.00  0.00    +0.000 A 
ATOM      4  N   UNL     1      -1.031  11.903  18.547  0.00  0.00    +0.000 NA
ATOM      5  C   UNL     1       0.178  12.477  18.666  0.00  0.00    +0.000 A 
ATOM      6  C   UNL     1       0.251  13.856  18.525  0.00  0.00    +0.000 A 
ATOM      7  C   UNL     1       0.963  14.598  19.440  0.00  0.00    +0.000 A 
ATOM      8  C   UNL     1       1.536  13.915  20.503  0.00  0.00    +0.000 A 
ATOM      9  C   UNL     1       1.415  14.665  21.826  0.00  0.00    +0.000 C 
ATOM     10  C   UNL     1       1.839  12.519  20.289  0.00  0.00    +0.000 A 
ATOM     11  C   UNL     1       1.235  11.723  19.155  0.00  0.00    +0.000 A 
ENDROOT
BRANCH   3  12
ATOM     12  C   UNL     1      -1.067  10.436  20.506  0.00  0.00    +0.000 A 
ATOM     13  C   UNL     1      -1.386  11.463  21.417  0.00  0.00    +0.000 A 
ATOM     14  C   UNL     1      -1.066  11.360  22.784  0.00  0.00    +0.000 A 
ATOM     15  C   UNL     1      -0.429  10.226  23.283  0.00  0.00    +0.000 A 
ATOM     16  C   UNL     1      -0.145   9.174  22.423  0.00  0.00    +0.000 A 
ATOM     17  C   UNL     1      -0.484   9.269  21.065  0.00  0.00    +0.000 A 
ENDBRANCH   3  12
BRANCH   1  18
ATOM     18  C   UNL     1       2.112   9.231  18.071  0.00  0.00    +0.000 C 
ATOM     19  O   UNL     1       2.824   9.281  17.081  0.00  0.00    +0.000 OA
BRANCH  18  20
ATOM     20  O   UNL     1       2.161   8.080  19.043  0.00  0.00    +0.000 OA
BRANCH  20  25
ATOM     21  C   UNL     1       1.560   2.265  19.924  0.00  0.00    +0.000 C 
ATOM     22  C   UNL     1       1.791   3.750  19.712  0.00  0.00    +0.000 A 
ATOM     23  C   UNL     1       2.158   4.276  18.450  0.00  0.00    +0.000 A 
ATOM     24  C   UNL     1       2.344   5.678  18.228  0.00  0.00    +0.000 A 
ATOM     25  C   UNL     1       2.114   6.577  19.242  0.00  0.00    +0.000 A 
ATOM     26  C   UNL     1       1.774   6.071  20.532  0.00  0.00    +0.000 A 
ATOM     27  C   UNL     1       1.620   4.674  20.748  0.00  0.00    +0.000 A 
ENDBRANCH  20  25
ENDBRANCH  18  20
ENDBRANCH   1  18
TORSDOF 4
ENDMDL
MODEL 6
REMARK VINA RESULT:      -7.6      1.324      3.927
REMARK  Name = 
REMARK  6 active torsions:
REMARK  status: ('A' for Active; 'I' for Inactive)
REMARK    1  A    between atoms: C_1  and  C_2
REMARK    2  A    between atoms: C_5  and  O_6
REMARK    3  A    between atoms: O_6  and  C_7
REMARK    4  A    between atoms: C_7  and  C_9
REMARK    5  A    between atoms: C_11  and  C_12
REMARK    6  A    between atoms: C_22  and  C_23
REMARK                            x       y       z     vdW  Elec       q    Type
REMARK                         _______ _______ _______ _____ _____    ______ ____
ROOT
ATOM      1  C   UNL     1       3.582   6.708  17.512  0.00  0.00    +0.000 A 
ATOM      2  C   UNL     1       4.237   6.785  16.285  0.00  0.00    +0.000 A 
ATOM      3  C   UNL     1       5.124   5.778  16.123  0.00  0.00    +0.000 A 
ATOM      4  N   UNL     1       4.434   4.635  16.079  0.00  0.00    +0.000 NA
ATOM      5  C   UNL     1       3.691   4.388  17.171  0.00  0.00    +0.000 A 
ATOM      6  C   UNL     1       3.185   3.104  17.326  0.00  0.00    +0.000 A 
ATOM      7  C   UNL     1       3.303   2.467  18.540  0.00  0.00    +0.000 A 
ATOM      8  C   UNL     1       3.981   3.140  19.547  0.00  0.00    +0.000 A 
ATOM      9  C   UNL     1       4.889   2.227  20.364  0.00  0.00    +0.000 C 
ATOM     10  C   UNL     1       3.999   4.582  19.465  0.00  0.00    +0.000 A 
ATOM     11  C   UNL     1       3.663   5.325  18.193  0.00  0.00    +0.000 A 
ENDROOT
BRANCH   3  12
ATOM     12  C   UNL     1       6.360   5.789  17.056  0.00  0.00    +0.000 A 
ATOM     13  C   UNL     1       6.826   4.636  17.719  0.00  0.00    +0.000 A 
ATOM     14  C   UNL     1       7.742   4.720  18.786  0.00  0.00    +0.000 A 
ATOM     15  C   UNL     1       8.226   5.954  19.213  0.00  0.00    +0.000 A 
ATOM     16  C   UNL     1       7.827   7.106  18.550  0.00  0.00    +0.000 A 
ATOM     17  C   UNL     1       6.931   7.019  17.474  0.00  0.00    +0.000 A 
ENDBRANCH   3  12
BRANCH   1  18
ATOM     18  C   UNL     1       2.955   8.074  17.878  0.00  0.00    +0.000 C 
ATOM     19  O   UNL     1       3.020   9.082  17.193  0.00  0.00    +0.000 OA
BRANCH  18  20
ATOM     20  O   UNL     1       2.192   8.028  19.177  0.00  0.00    +0.000 OA
BRANCH  20  25
ATOM     21  C   UNL     1      -1.150  10.949  23.082  0.00  0.00    +0.000 C 
ATOM     22  C   UNL     1      -0.353  10.151  22.066  0.00  0.00    +0.000 A 
ATOM     23  C   UNL     1      -0.395  10.449  20.683  0.00  0.00    +0.000 A 
ATOM     24  C   UNL     1       0.380   9.728  19.719  0.00  0.00    +0.000 A 
ATOM     25  C   UNL     1       1.245   8.740  20.124  0.00  0.00    +0.000 A 
ATOM     26  C   UNL     1       1.283   8.398  21.509  0.00  0.00    +0.000 A 
ATOM     27  C   UNL     1       0.487   9.102  22.454  0.00  0.00    +0.000 A 
ENDBRANCH  20  25
ENDBRANCH  18  20
ENDBRANCH   1  18
TORSDOF 4
ENDMDL
MODEL 7
REMARK VINA RESULT:      -7.6      2.826      9.122
REMARK  Name = 
REMARK  6 active torsions:
REMARK  status: ('A' for Active; 'I' for Inactive)
REMARK    1  A    between atoms: C_1  and  C_2
REMARK    2  A    between atoms: C_5  and  O_6
REMARK    3  A    between atoms: O_6  and  C_7
REMARK    4  A    between atoms: C_7  and  C_9
REMARK    5  A    between atoms: C_11  and  C_12
REMARK    6  A    between atoms: C_22  and  C_23
REMARK                            x       y       z     vdW  Elec       q    Type
REMARK                         _______ _______ _______ _____ _____    ______ ____
ROOT
ATOM      1  C   UNL     1       0.528  10.611  21.292  0.00  0.00    +0.000 A 
ATOM      2  C   UNL     1       0.899  11.142  20.059  0.00  0.00    +0.000 A 
ATOM      3  C   UNL     1      -0.012  12.028  19.597  0.00  0.00    +0.000 A 
ATOM      4  N   UNL     1      -0.024  13.068  20.434  0.00  0.00    +0.000 NA
ATOM      5  C   UNL     1      -0.325  12.759  21.707  0.00  0.00    +0.000 A 
ATOM      6  C   UNL     1      -0.643  13.805  22.564  0.00  0.00    +0.000 A 
ATOM      7  C   UNL     1      -1.750  13.709  23.375  0.00  0.00    +0.000 A 
ATOM      8  C   UNL     1      -2.532  12.570  23.250  0.00  0.00    +0.000 A 
ATOM      9  C   UNL     1      -4.027  12.865  23.315  0.00  0.00    +0.000 C 
ATOM     10  C   UNL     1      -1.874  11.382  22.756  0.00  0.00    +0.000 A 
ATOM     11  C   UNL     1      -0.542  11.431  22.044  0.00  0.00    +0.000 A 
ENDROOT
BRANCH   3  12
ATOM     12  C   UNL     1      -1.397  11.455  19.206  0.00  0.00    +0.000 A 
ATOM     13  C   UNL     1      -1.550  10.257  18.480  0.00  0.00    +0.000 A 
ATOM     14  C   UNL     1      -2.775   9.915  17.874  0.00  0.00    +0.000 A 
ATOM     15  C   UNL     1      -3.882  10.753  17.985  0.00  0.00    +0.000 A 
ATOM     16  C   UNL     1      -3.781  11.916  18.735  0.00  0.00    +0.000 A 
ATOM     17  C   UNL     1      -2.566  12.245  19.355  0.00  0.00    +0.000 A 
ENDBRANCH   3  12
BRANCH   1  18
ATOM     18  C   UNL     1       1.295   9.298  21.570  0.00  0.00    +0.000 C 
ATOM     19  O   UNL     1       1.624   8.896  22.675  0.00  0.00    +0.000 OA
BRANCH  18  20
ATOM     20  O   UNL     1       1.566   8.511  20.312  0.00  0.00    +0.000 OA
BRANCH  20  25
ATOM     21  C   UNL     1       3.191   3.350  17.931  0.00  0.00    +0.000 C 
ATOM     22  C   UNL     1       2.848   4.684  18.570  0.00  0.00    +0.000 A 
ATOM     23  C   UNL     1       3.047   5.910  17.892  0.00  0.00    +0.000 A 
ATOM     24  C   UNL     1       2.693   7.171  18.468  0.00  0.00    +0.000 A 
ATOM     25  C   UNL     1       2.087   7.225  19.701  0.00  0.00    +0.000 A 
ATOM     26  C   UNL     1       1.905   6.006  20.419  0.00  0.00    +0.000 A 
ATOM     27  C   UNL     1       2.286   4.761  19.848  0.00  0.00    +0.000 A 
ENDBRANCH  20  25
ENDBRANCH  18  20
ENDBRANCH   1  18
TORSDOF 4
ENDMDL
MODEL 8
REMARK VINA RESULT:      -7.6      1.285      3.793
REMARK  Name = 
REMARK  6 active torsions:
REMARK  status: ('A' for Active; 'I' for Inactive)
REMARK    1  A    between atoms: C_1  and  C_2
REMARK    2  A    between atoms: C_5  and  O_6
REMARK    3  A    between atoms: O_6  and  C_7
REMARK    4  A    between atoms: C_7  and  C_9
REMARK    5  A    between atoms: C_11  and  C_12
REMARK    6  A    between atoms: C_22  and  C_23
REMARK                            x       y       z     vdW  Elec       q    Type
REMARK                         _______ _______ _______ _____ _____    ______ ____
ROOT
ATOM      1  C   UNL     1       3.211   6.868  17.665  0.00  0.00    +0.000 A 
ATOM      2  C   UNL     1       4.007   6.992  16.529  0.00  0.00    +0.000 A 
ATOM      3  C   UNL     1       4.940   6.014  16.458  0.00  0.00    +0.000 A 
ATOM      4  N   UNL     1       4.296   4.853  16.309  0.00  0.00    +0.000 NA
ATOM      5  C   UNL     1       3.433   4.560  17.297  0.00  0.00    +0.000 A 
ATOM      6  C   UNL     1       2.953   3.259  17.364  0.00  0.00    +0.000 A 
ATOM      7  C   UNL     1       2.942   2.599  18.572  0.00  0.00    +0.000 A 
ATOM      8  C   UNL     1       3.470   3.268  19.666  0.00  0.00    +0.000 A 
ATOM      9  C   UNL     1       4.300   2.364  20.572  0.00  0.00    +0.000 C 
ATOM     10  C   UNL     1       3.452   4.712  19.614  0.00  0.00    +0.000 A 
ATOM     11  C   UNL     1       3.251   5.473  18.324  0.00  0.00    +0.000 A 
ENDROOT
BRANCH   3  12
ATOM     12  C   UNL     1       6.051   6.040  17.536  0.00  0.00    +0.000 A 
ATOM     13  C   UNL     1       6.802   7.196  17.831  0.00  0.00    +0.000 A 
ATOM     14  C   UNL     1       7.994   7.128  18.577  0.00  0.00    +0.000 A 
ATOM     15  C   UNL     1       8.465   5.909  19.059  0.00  0.00    +0.000 A 
ATOM     16  C   UNL     1       7.724   4.757  18.830  0.00  0.00    +0.000 A 
ATOM     17  C   UNL     1       6.525   4.829  18.105  0.00  0.00    +0.000 A 
ENDBRANCH   3  12
BRANCH   1  18
ATOM     18  C   UNL     1       2.501   8.206  17.976  0.00  0.00    +0.000 C 
ATOM     19  O   UNL     1       2.426   9.156  17.212  0.00  0.00    +0.000 OA
BRANCH  18  20
ATOM     20  O   UNL     1       1.850   8.211  19.336  0.00  0.00    +0.000 OA
BRANCH  20  25
ATOM     21  C   UNL     1      -1.475  11.168  23.229  0.00  0.00    +0.000 C 
ATOM     22  C   UNL     1      -0.562  10.459  22.244  0.00  0.00    +0.000 A 
ATOM     23  C   UNL     1       0.319   9.429  22.651  0.00  0.00    +0.000 A 
ATOM     24  C   UNL     1       1.158   8.727  21.728  0.00  0.00    +0.000 A 
ATOM     25  C   UNL     1       1.092   9.004  20.383  0.00  0.00    +0.000 A 
ATOM     26  C   UNL     1       0.235  10.059  19.950  0.00  0.00    +0.000 A 
ATOM     27  C   UNL     1      -0.573  10.769  20.880  0.00  0.00    +0.000 A 
ENDBRANCH  20  25
ENDBRANCH  18  20
ENDBRANCH   1  18
TORSDOF 4
ENDMDL
MODEL 9
REMARK VINA RESULT:      -7.5      2.710      8.987
REMARK  Name = 
REMARK  6 active torsions:
REMARK  status: ('A' for Active; 'I' for Inactive)
REMARK    1  A    between atoms: C_1  and  C_2
REMARK    2  A    between atoms: C_5  and  O_6
REMARK    3  A    between atoms: O_6  and  C_7
REMARK    4  A    between atoms: C_7  and  C_9
REMARK    5  A    between atoms: C_11  and  C_12
REMARK    6  A    between atoms: C_22  and  C_23
REMARK                            x       y       z     vdW  Elec       q    Type
REMARK                         _______ _______ _______ _____ _____    ______ ____
ROOT
ATOM      1  C   UNL     1       0.595  10.188  20.533  0.00  0.00    +0.000 A 
ATOM      2  C   UNL     1       0.831  10.688  19.255  0.00  0.00    +0.000 A 
ATOM      3  C   UNL     1      -0.042  11.667  18.927  0.00  0.00    +0.000 A 
ATOM      4  N   UNL     1       0.179  12.696  19.750  0.00  0.00    +0.000 NA
ATOM      5  C   UNL     1       0.041  12.409  21.056  0.00  0.00    +0.000 A 
ATOM      6  C   UNL     1      -0.034  13.475  21.943  0.00  0.00    +0.000 A 
ATOM      7  C   UNL     1      -1.013  13.488  22.911  0.00  0.00    +0.000 A 
ATOM      8  C   UNL     1      -1.918  12.437  22.912  0.00  0.00    +0.000 A 
ATOM      9  C   UNL     1      -3.348  12.886  23.198  0.00  0.00    +0.000 C 
ATOM     10  C   UNL     1      -1.469  11.192  22.334  0.00  0.00    +0.000 A 
ATOM     11  C   UNL     1      -0.260  11.108  21.430  0.00  0.00    +0.000 A 
ENDROOT
BRANCH   3  12
ATOM     12  C   UNL     1      -1.522  11.245  18.752  0.00  0.00    +0.000 A 
ATOM     13  C   UNL     1      -1.907  10.095  18.035  0.00  0.00    +0.000 A 
ATOM     14  C   UNL     1      -3.240   9.895  17.626  0.00  0.00    +0.000 A 
ATOM     15  C   UNL     1      -4.226  10.830  17.932  0.00  0.00    +0.000 A 
ATOM     16  C   UNL     1      -3.891  11.950  18.681  0.00  0.00    +0.000 A 
ATOM     17  C   UNL     1      -2.567  12.137  19.105  0.00  0.00    +0.000 A 
ENDBRANCH   3  12
BRANCH   1  18
ATOM     18  C   UNL     1       1.254   8.800  20.702  0.00  0.00    +0.000 C 
ATOM     19  O   UNL     1       1.137   8.081  21.682  0.00  0.00    +0.000 OA
BRANCH  18  20
ATOM     20  O   UNL     1       2.042   8.383  19.486  0.00  0.00    +0.000 OA
BRANCH  20  25
ATOM     21  C   UNL     1       4.393   3.852  16.503  0.00  0.00    +0.000 C 
ATOM     22  C   UNL     1       3.857   5.022  17.310  0.00  0.00    +0.000 A 
ATOM     23  C   UNL     1       4.078   6.363  16.918  0.00  0.00    +0.000 A 
ATOM     24  C   UNL     1       3.547   7.473  17.649  0.00  0.00    +0.000 A 
ATOM     25  C   UNL     1       2.745   7.262  18.746  0.00  0.00    +0.000 A 
ATOM     26  C   UNL     1       2.533   5.920  19.180  0.00  0.00    +0.000 A 
ATOM     27  C   UNL     1       3.089   4.826  18.463  0.00  0.00    +0.000 A 
ENDBRANCH  20  25
ENDBRANCH  18  20
ENDBRANCH   1  18
TORSDOF 4
ENDMDL
