MODEL 1
REMARK VINA RESULT:      -6.9      0.000      0.000
REMARK  Name = 
REMARK  8 active torsions:
REMARK  status: ('A' for Active; 'I' for Inactive)
REMARK    1  A    between atoms: C_2  and  C_3
REMARK    2  A    between atoms: C_3  and  N_4
REMARK    3  A    between atoms: N_7  and  C_8
REMARK    4  A    between atoms: C_8  and  C_9
REMARK    5  A    between atoms: C_9  and  O_10
REMARK    6  A    between atoms: O_10  and  C_11
REMARK    7  A    between atoms: C_14  and  O_15
REMARK    8  A    between atoms: O_15  and  C_16
REMARK                            x       y       z     vdW  Elec       q    Type
REMARK                         _______ _______ _______ _____ _____    ______ ____
ROOT
ATOM      1  N   UNL     1       0.237   8.680  20.814  0.00  0.00    +0.000 NA
ATOM      2  C   UNL     1      -0.615   8.727  22.026  0.00  0.00    +0.000 C 
ATOM      3  C   UNL     1      -0.022   9.600  23.150  0.00  0.00    +0.000 C 
ATOM      4  N   UNL     1       0.125  11.017  22.762  0.00  0.00    +0.000 NA
ATOM      5  C   UNL     1       0.876  11.098  21.488  0.00  0.00    +0.000 C 
ATOM      6  C   UNL     1       0.455  10.088  20.375  0.00  0.00    +0.000 C 
ENDROOT
BRANCH   1   7
ATOM      7  C   UNL     1       1.555   8.046  21.086  0.00  0.00    +0.000 C 
BRANCH   7   9
ATOM      8  O   UNL     1       2.380   7.306  18.968  0.00  0.00    +0.000 OA
ATOM      9  C   UNL     1       1.934   6.971  20.065  0.00  0.00    +0.000 C 
ATOM     10  N   UNL     1       1.681   5.688  20.492  0.00  0.00    +0.000 N 
ATOM     11  C   UNL     1       1.893   4.615  19.673  0.00  0.00    +0.000 A 
ATOM     12  N   UNL     1       2.505   4.574  18.518  0.00  0.00    +0.000 NA
ATOM     13  C   UNL     1       2.368   3.322  17.965  0.00  0.00    +0.000 A 
ATOM     14  C   UNL     1       1.656   2.415  18.725  0.00  0.00    +0.000 A 
ATOM     15  S   UNL     1       1.219   3.144  20.220  0.00  0.00    +0.000 S 
ATOM     16  H   UNL     1       1.272   5.535  21.403  0.00  0.00    +0.000 HD
ENDBRANCH   7   9
ENDBRANCH   1   7
BRANCH   4  17
ATOM     17  C   UNL     1      -1.165  11.726  22.669  0.00  0.00    +0.000 C 
BRANCH  17  18
ATOM     18  C   UNL     1      -1.012  13.244  22.478  0.00  0.00    +0.000 C 
BRANCH  18  19
ATOM     19  O   UNL     1      -2.043  13.713  21.612  0.00  0.00    +0.000 OA
BRANCH  19  20
ATOM     20  C   UNL     1      -2.078  13.132  20.375  0.00  0.00    +0.000 A 
ATOM     21  C   UNL     1      -3.270  12.477  20.077  0.00  0.00    +0.000 A 
ATOM     22  C   UNL     1      -3.440  11.854  18.841  0.00  0.00    +0.000 A 
ATOM     23  C   UNL     1      -2.432  11.904  17.876  0.00  0.00    +0.000 A 
ATOM     24  C   UNL     1      -1.227  12.530  18.181  0.00  0.00    +0.000 A 
ATOM     25  C   UNL     1      -1.056  13.159  19.420  0.00  0.00    +0.000 A 
BRANCH  23  26
ATOM     26  O   UNL     1      -2.714  11.255  16.715  0.00  0.00    +0.000 OA
BRANCH  26  27
ATOM     27  C   UNL     1      -2.452   9.861  16.621  0.00  0.00    +0.000 C 
ATOM     28  F   UNL     1      -2.489   9.366  15.368  0.00  0.00    +0.000 F 
ATOM     29  F   UNL     1      -1.238   9.603  17.156  0.00  0.00    +0.000 F 
ATOM     30  F   UNL     1      -3.380   9.204  17.353  0.00  0.00    +0.000 F 
ENDBRANCH  26  27
ENDBRANCH  23  26
ENDBRANCH  19  20
ENDBRANCH  18  19
ENDBRANCH  17  18
ENDBRANCH   4  17
TORSDOF 8
ENDMDL
MODEL 2
REMARK VINA RESULT:      -6.7      4.645      8.978
REMARK  Name = 
REMARK  8 active torsions:
REMARK  status: ('A' for Active; 'I' for Inactive)
REMARK    1  A    between atoms: C_2  and  C_3
REMARK    2  A    between atoms: C_3  and  N_4
REMARK    3  A    between atoms: N_7  and  C_8
REMARK    4  A    between atoms: C_8  and  C_9
REMARK    5  A    between atoms: C_9  and  O_10
REMARK    6  A    between atoms: O_10  and  C_11
REMARK    7  A    between atoms: C_14  and  O_15
REMARK    8  A    between atoms: O_15  and  C_16
REMARK                            x       y       z     vdW  Elec       q    Type
REMARK                         _______ _______ _______ _____ _____    ______ ____
ROOT
ATOM      1  N   UNL     1       2.207   5.854  20.353  0.00  0.00    +0.000 NA
ATOM      2  C   UNL     1       2.484   4.648  21.169  0.00  0.00    +0.000 C 
ATOM      3  C   UNL     1       1.395   3.563  21.037  0.00  0.00    +0.000 C 
ATOM      4  N   UNL     1       1.266   3.042  19.662  0.00  0.00    +0.000 NA
ATOM      5  C   UNL     1       1.093   4.175  18.725  0.00  0.00    +0.000 C 
ATOM      6  C   UNL     1       2.035   5.400  18.943  0.00  0.00    +0.000 C 
ENDROOT
BRANCH   1   7
ATOM      7  C   UNL     1       0.968   6.550  20.794  0.00  0.00    +0.000 C 
BRANCH   7   9
ATOM      8  O   UNL     1       1.607   8.432  22.122  0.00  0.00    +0.000 OA
ATOM      9  C   UNL     1       1.168   8.048  21.039  0.00  0.00    +0.000 C 
ATOM     10  N   UNL     1       0.775   8.839  19.984  0.00  0.00    +0.000 N 
ATOM     11  C   UNL     1       0.819  10.202  20.067  0.00  0.00    +0.000 A 
ATOM     12  N   UNL     1       1.373  10.949  20.987  0.00  0.00    +0.000 NA
ATOM     13  C   UNL     1       1.060  12.270  20.761  0.00  0.00    +0.000 A 
ATOM     14  C   UNL     1       0.273  12.509  19.653  0.00  0.00    +0.000 A 
ATOM     15  S   UNL     1      -0.009  11.029  18.823  0.00  0.00    +0.000 S 
ATOM     16  H   UNL     1       0.388   8.412  19.154  0.00  0.00    +0.000 HD
ENDBRANCH   7   9
ENDBRANCH   1   7
BRANCH   4  17
ATOM     17  C   UNL     1       2.398   2.185  19.262  0.00  0.00    +0.000 C 
BRANCH  17  18
ATOM     18  C   UNL     1       2.729   2.275  17.763  0.00  0.00    +0.000 C 
BRANCH  18  19
ATOM     19  O   UNL     1       4.145   2.330  17.599  0.00  0.00    +0.000 OA
BRANCH  19  20
ATOM     20  C   UNL     1       4.702   3.572  17.725  0.00  0.00    +0.000 A 
ATOM     21  C   UNL     1       4.623   4.361  16.580  0.00  0.00    +0.000 A 
ATOM     22  C   UNL     1       5.141   5.655  16.582  0.00  0.00    +0.000 A 
ATOM     23  C   UNL     1       5.718   6.188  17.737  0.00  0.00    +0.000 A 
ATOM     24  C   UNL     1       5.828   5.393  18.874  0.00  0.00    +0.000 A 
ATOM     25  C   UNL     1       5.305   4.094  18.874  0.00  0.00    +0.000 A 
BRANCH  23  26
ATOM     26  O   UNL     1       6.191   7.457  17.611  0.00  0.00    +0.000 OA
BRANCH  26  27
ATOM     27  C   UNL     1       7.596   7.671  17.589  0.00  0.00    +0.000 C 
ATOM     28  F   UNL     1       7.965   8.967  17.545  0.00  0.00    +0.000 F 
ATOM     29  F   UNL     1       8.148   7.097  18.681  0.00  0.00    +0.000 F 
ATOM     30  F   UNL     1       8.102   7.060  16.494  0.00  0.00    +0.000 F 
ENDBRANCH  26  27
ENDBRANCH  23  26
ENDBRANCH  19  20
ENDBRANCH  18  19
ENDBRANCH  17  18
ENDBRANCH   4  17
TORSDOF 8
ENDMDL
MODEL 3
REMARK VINA RESULT:      -6.7      1.375      1.483
REMARK  Name = 
REMARK  8 active torsions:
REMARK  status: ('A' for Active; 'I' for Inactive)
REMARK    1  A    between atoms: C_2  and  C_3
REMARK    2  A    between atoms: C_3  and  N_4
REMARK    3  A    between atoms: N_7  and  C_8
REMARK    4  A    between atoms: C_8  and  C_9
REMARK    5  A    between atoms: C_9  and  O_10
REMARK    6  A    between atoms: O_10  and  C_11
REMARK    7  A    between atoms: C_14  and  O_15
REMARK    8  A    between atoms: O_15  and  C_16
REMARK                            x       y       z     vdW  Elec       q    Type
REMARK                         _______ _______ _______ _____ _____    ______ ____
ROOT
ATOM      1  N   UNL     1       0.399   8.630  20.707  0.00  0.00    +0.000 NA
ATOM      2  C   UNL     1      -0.468   8.623  21.909  0.00  0.00    +0.000 C 
ATOM      3  C   UNL     1       0.089   9.481  23.063  0.00  0.00    +0.000 C 
ATOM      4  N   UNL     1       0.204  10.910  22.714  0.00  0.00    +0.000 NA
ATOM      5  C   UNL     1       0.968  11.045  21.452  0.00  0.00    +0.000 C 
ATOM      6  C   UNL     1       0.586  10.055  20.308  0.00  0.00    +0.000 C 
ENDROOT
BRANCH   1   7
ATOM      7  C   UNL     1       1.730   8.023  20.979  0.00  0.00    +0.000 C 
BRANCH   7   9
ATOM      8  O   UNL     1       1.495   5.682  20.558  0.00  0.00    +0.000 OA
ATOM      9  C   UNL     1       1.988   6.743  20.179  0.00  0.00    +0.000 C 
ATOM     10  N   UNL     1       2.819   6.924  19.098  0.00  0.00    +0.000 N 
ATOM     11  C   UNL     1       3.209   5.870  18.322  0.00  0.00    +0.000 A 
ATOM     12  N   UNL     1       2.762   4.641  18.323  0.00  0.00    +0.000 NA
ATOM     13  C   UNL     1       3.529   3.867  17.483  0.00  0.00    +0.000 A 
ATOM     14  C   UNL     1       4.554   4.532  16.840  0.00  0.00    +0.000 A 
ATOM     15  S   UNL     1       4.492   6.202  17.244  0.00  0.00    +0.000 S 
ATOM     16  H   UNL     1       3.200   7.840  18.907  0.00  0.00    +0.000 HD
ENDBRANCH   7   9
ENDBRANCH   1   7
BRANCH   4  17
ATOM     17  C   UNL     1      -1.102  11.589  22.624  0.00  0.00    +0.000 C 
BRANCH  17  18
ATOM     18  C   UNL     1      -0.985  13.108  22.417  0.00  0.00    +0.000 C 
BRANCH  18  19
ATOM     19  O   UNL     1      -2.051  13.550  21.578  0.00  0.00    +0.000 OA
BRANCH  19  20
ATOM     20  C   UNL     1      -2.071  13.009  20.324  0.00  0.00    +0.000 A 
ATOM     21  C   UNL     1      -3.254  12.351  19.996  0.00  0.00    +0.000 A 
ATOM     22  C   UNL     1      -3.408  11.766  18.740  0.00  0.00    +0.000 A 
ATOM     23  C   UNL     1      -2.395  11.859  17.784  0.00  0.00    +0.000 A 
ATOM     24  C   UNL     1      -1.199  12.488  18.117  0.00  0.00    +0.000 A 
ATOM     25  C   UNL     1      -1.044  13.078  19.376  0.00  0.00    +0.000 A 
BRANCH  23  26
ATOM     26  O   UNL     1      -2.662  11.244  16.600  0.00  0.00    +0.000 OA
BRANCH  26  27
ATOM     27  C   UNL     1      -2.490   9.837  16.498  0.00  0.00    +0.000 C 
ATOM     28  F   UNL     1      -2.571   9.352  15.242  0.00  0.00    +0.000 F 
ATOM     29  F   UNL     1      -1.289   9.500  17.019  0.00  0.00    +0.000 F 
ATOM     30  F   UNL     1      -3.450   9.236  17.236  0.00  0.00    +0.000 F 
ENDBRANCH  26  27
ENDBRANCH  23  26
ENDBRANCH  19  20
ENDBRANCH  18  19
ENDBRANCH  17  18
ENDBRANCH   4  17
TORSDOF 8
ENDMDL
MODEL 4
REMARK VINA RESULT:      -6.6      4.797      9.116
REMARK  Name = 
REMARK  8 active torsions:
REMARK  status: ('A' for Active; 'I' for Inactive)
REMARK    1  A    between atoms: C_2  and  C_3
REMARK    2  A    between atoms: C_3  and  N_4
REMARK    3  A    between atoms: N_7  and  C_8
REMARK    4  A    between atoms: C_8  and  C_9
REMARK    5  A    between atoms: C_9  and  O_10
REMARK    6  A    between atoms: O_10  and  C_11
REMARK    7  A    between atoms: C_14  and  O_15
REMARK    8  A    between atoms: O_15  and  C_16
REMARK                            x       y       z     vdW  Elec       q    Type
REMARK                         _______ _______ _______ _____ _____    ______ ____
ROOT
ATOM      1  N   UNL     1      -0.010  11.046  22.605  0.00  0.00    +0.000 NA
ATOM      2  C   UNL     1       0.666   9.727  22.612  0.00  0.00    +0.000 C 
ATOM      3  C   UNL     1       0.011   8.704  21.661  0.00  0.00    +0.000 C 
ATOM      4  N   UNL     1       0.058   9.122  20.247  0.00  0.00    +0.000 NA
ATOM      5  C   UNL     1      -0.497  10.489  20.122  0.00  0.00    +0.000 C 
ATOM      6  C   UNL     1      -0.027  11.523  21.192  0.00  0.00    +0.000 C 
ENDROOT
BRANCH   1   7
ATOM      7  C   UNL     1      -1.409  10.956  23.104  0.00  0.00    +0.000 C 
BRANCH   7   9
ATOM      8  O   UNL     1      -1.431  13.316  23.478  0.00  0.00    +0.000 OA
ATOM      9  C   UNL     1      -2.100  12.316  23.221  0.00  0.00    +0.000 C 
ATOM     10  N   UNL     1      -3.466  12.260  23.063  0.00  0.00    +0.000 N 
ATOM     11  C   UNL     1      -4.242  13.374  23.211  0.00  0.00    +0.000 A 
ATOM     12  N   UNL     1      -3.870  14.623  23.320  0.00  0.00    +0.000 NA
ATOM     13  C   UNL     1      -4.964  15.410  23.596  0.00  0.00    +0.000 A 
ATOM     14  C   UNL     1      -6.168  14.739  23.682  0.00  0.00    +0.000 A 
ATOM     15  S   UNL     1      -5.920  13.076  23.319  0.00  0.00    +0.000 S 
ATOM     16  H   UNL     1      -3.914  11.370  22.896  0.00  0.00    +0.000 HD
ENDBRANCH   7   9
ENDBRANCH   1   7
BRANCH   4  17
ATOM     17  C   UNL     1       1.411   9.039  19.666  0.00  0.00    +0.000 C 
BRANCH  17  18
ATOM     18  C   UNL     1       2.061   7.656  19.832  0.00  0.00    +0.000 C 
BRANCH  18  19
ATOM     19  O   UNL     1       1.772   6.861  18.684  0.00  0.00    +0.000 OA
BRANCH  19  20
ATOM     20  C   UNL     1       2.859   6.313  18.062  0.00  0.00    +0.000 A 
ATOM     21  C   UNL     1       3.799   7.239  17.617  0.00  0.00    +0.000 A 
ATOM     22  C   UNL     1       4.962   6.809  16.978  0.00  0.00    +0.000 A 
ATOM     23  C   UNL     1       5.214   5.447  16.803  0.00  0.00    +0.000 A 
ATOM     24  C   UNL     1       4.263   4.519  17.218  0.00  0.00    +0.000 A 
ATOM     25  C   UNL     1       3.097   4.949  17.862  0.00  0.00    +0.000 A 
BRANCH  23  26
ATOM     26  O   UNL     1       6.377   5.155  16.163  0.00  0.00    +0.000 OA
BRANCH  26  27
ATOM     27  C   UNL     1       6.325   4.534  14.885  0.00  0.00    +0.000 C 
ATOM     28  F   UNL     1       7.396   4.773  14.101  0.00  0.00    +0.000 F 
ATOM     29  F   UNL     1       6.194   3.198  15.048  0.00  0.00    +0.000 F 
ATOM     30  F   UNL     1       5.228   4.986  14.237  0.00  0.00    +0.000 F 
ENDBRANCH  26  27
ENDBRANCH  23  26
ENDBRANCH  19  20
ENDBRANCH  18  19
ENDBRANCH  17  18
ENDBRANCH   4  17
TORSDOF 8
ENDMDL
MODEL 5
REMARK VINA RESULT:      -6.5      5.542      8.855
REMARK  Name = 
REMARK  8 active torsions:
REMARK  status: ('A' for Active; 'I' for Inactive)
REMARK    1  A    between atoms: C_2  and  C_3
REMARK    2  A    between atoms: C_3  and  N_4
REMARK    3  A    between atoms: N_7  and  C_8
REMARK    4  A    between atoms: C_8  and  C_9
REMARK    5  A    between atoms: C_9  and  O_10
REMARK    6  A    between atoms: O_10  and  C_11
REMARK    7  A    between atoms: C_14  and  O_15
REMARK    8  A    between atoms: O_15  and  C_16
REMARK                            x       y       z     vdW  Elec       q    Type
REMARK                         _______ _______ _______ _____ _____    ______ ____
ROOT
ATOM      1  N   UNL     1       6.296   6.825  18.250  0.00  0.00    +0.000 NA
ATOM      2  C   UNL     1       5.869   6.719  16.835  0.00  0.00    +0.000 C 
ATOM      3  C   UNL     1       6.428   5.470  16.124  0.00  0.00    +0.000 C 
ATOM      4  N   UNL     1       5.966   4.207  16.732  0.00  0.00    +0.000 NA
ATOM      5  C   UNL     1       6.240   4.236  18.187  0.00  0.00    +0.000 C 
ATOM      6  C   UNL     1       5.885   5.562  18.929  0.00  0.00    +0.000 C 
ENDROOT
BRANCH   1   7
ATOM      7  C   UNL     1       7.770   6.986  18.375  0.00  0.00    +0.000 C 
BRANCH   7   9
ATOM      8  O   UNL     1       8.292   8.760  16.861  0.00  0.00    +0.000 OA
ATOM      9  C   UNL     1       8.257   8.397  18.035  0.00  0.00    +0.000 C 
ATOM     10  N   UNL     1       8.663   9.121  19.132  0.00  0.00    +0.000 N 
ATOM     11  C   UNL     1       9.193  10.373  18.997  0.00  0.00    +0.000 A 
ATOM     12  N   UNL     1       9.233  11.135  17.935  0.00  0.00    +0.000 NA
ATOM     13  C   UNL     1       9.986  12.257  18.197  0.00  0.00    +0.000 A 
ATOM     14  C   UNL     1      10.503  12.335  19.475  0.00  0.00    +0.000 A 
ATOM     15  S   UNL     1       9.951  10.992  20.397  0.00  0.00    +0.000 S 
ATOM     16  H   UNL     1       8.628   8.702  20.051  0.00  0.00    +0.000 HD
ENDBRANCH   7   9
ENDBRANCH   1   7
BRANCH   4  17
ATOM     17  C   UNL     1       4.544   3.924  16.462  0.00  0.00    +0.000 C 
BRANCH  17  18
ATOM     18  C   UNL     1       3.783   3.401  17.691  0.00  0.00    +0.000 C 
BRANCH  18  19
ATOM     19  O   UNL     1       2.464   3.944  17.692  0.00  0.00    +0.000 OA
BRANCH  19  20
ATOM     20  C   UNL     1       2.292   5.066  18.453  0.00  0.00    +0.000 A 
ATOM     21  C   UNL     1       1.954   4.819  19.781  0.00  0.00    +0.000 A 
ATOM     22  C   UNL     1       1.765   5.878  20.667  0.00  0.00    +0.000 A 
ATOM     23  C   UNL     1       1.940   7.198  20.244  0.00  0.00    +0.000 A 
ATOM     24  C   UNL     1       2.247   7.452  18.910  0.00  0.00    +0.000 A 
ATOM     25  C   UNL     1       2.440   6.388  18.021  0.00  0.00    +0.000 A 
BRANCH  23  26
ATOM     26  O   UNL     1       1.722   8.142  21.199  0.00  0.00    +0.000 OA
BRANCH  26  27
ATOM     27  C   UNL     1       0.436   8.739  21.298  0.00  0.00    +0.000 C 
ATOM     28  F   UNL     1       0.097   9.518  20.250  0.00  0.00    +0.000 F 
ATOM     29  F   UNL     1      -0.493   7.767  21.438  0.00  0.00    +0.000 F 
ATOM     30  F   UNL     1       0.409   9.508  22.410  0.00  0.00    +0.000 F 
ENDBRANCH  26  27
ENDBRANCH  23  26
ENDBRANCH  19  20
ENDBRANCH  18  19
ENDBRANCH  17  18
ENDBRANCH   4  17
TORSDOF 8
ENDMDL
MODEL 6
REMARK VINA RESULT:      -6.5      3.892      6.123
REMARK  Name = 
REMARK  8 active torsions:
REMARK  status: ('A' for Active; 'I' for Inactive)
REMARK    1  A    between atoms: C_2  and  C_3
REMARK    2  A    between atoms: C_3  and  N_4
REMARK    3  A    between atoms: N_7  and  C_8
REMARK    4  A    between atoms: C_8  and  C_9
REMARK    5  A    between atoms: C_9  and  O_10
REMARK    6  A    between atoms: O_10  and  C_11
REMARK    7  A    between atoms: C_14  and  O_15
REMARK    8  A    between atoms: O_15  and  C_16
REMARK                            x       y       z     vdW  Elec       q    Type
REMARK                         _______ _______ _______ _____ _____    ______ ____
ROOT
ATOM      1  N   UNL     1       3.925   4.147  17.387  0.00  0.00    +0.000 NA
ATOM      2  C   UNL     1       3.079   3.399  18.347  0.00  0.00    +0.000 C 
ATOM      3  C   UNL     1       3.391   3.736  19.820  0.00  0.00    +0.000 C 
ATOM      4  N   UNL     1       3.140   5.152  20.151  0.00  0.00    +0.000 NA
ATOM      5  C   UNL     1       3.852   6.015  19.181  0.00  0.00    +0.000 C 
ATOM      6  C   UNL     1       3.745   5.598  17.680  0.00  0.00    +0.000 C 
ENDROOT
BRANCH   1   7
ATOM      7  C   UNL     1       5.365   3.799  17.525  0.00  0.00    +0.000 C 
BRANCH   7   9
ATOM      8  O   UNL     1       6.933   5.403  16.702  0.00  0.00    +0.000 OA
ATOM      9  C   UNL     1       6.246   4.417  16.437  0.00  0.00    +0.000 C 
ATOM     10  N   UNL     1       6.133   3.798  15.214  0.00  0.00    +0.000 N 
ATOM     11  C   UNL     1       6.796   4.272  14.118  0.00  0.00    +0.000 A 
ATOM     12  N   UNL     1       7.730   5.185  14.056  0.00  0.00    +0.000 NA
ATOM     13  C   UNL     1       8.023   5.461  12.740  0.00  0.00    +0.000 A 
ATOM     14  C   UNL     1       7.305   4.735  11.811  0.00  0.00    +0.000 A 
ATOM     15  S   UNL     1       6.291   3.610  12.626  0.00  0.00    +0.000 S 
ATOM     16  H   UNL     1       5.501   3.018  15.104  0.00  0.00    +0.000 HD
ENDBRANCH   7   9
ENDBRANCH   1   7
BRANCH   4  17
ATOM     17  C   UNL     1       1.704   5.485  20.209  0.00  0.00    +0.000 C 
BRANCH  17  18
ATOM     18  C   UNL     1       1.385   6.638  21.174  0.00  0.00    +0.000 C 
BRANCH  18  19
ATOM     19  O   UNL     1       2.011   7.830  20.704  0.00  0.00    +0.000 OA
BRANCH  19  20
ATOM     20  C   UNL     1       1.182   8.721  20.082  0.00  0.00    +0.000 A 
ATOM     21  C   UNL     1       1.448   8.913  18.729  0.00  0.00    +0.000 A 
ATOM     22  C   UNL     1       0.664   9.787  17.976  0.00  0.00    +0.000 A 
ATOM     23  C   UNL     1      -0.414  10.456  18.559  0.00  0.00    +0.000 A 
ATOM     24  C   UNL     1      -0.665  10.292  19.918  0.00  0.00    +0.000 A 
ATOM     25  C   UNL     1       0.119   9.413  20.674  0.00  0.00    +0.000 A 
BRANCH  23  26
ATOM     26  O   UNL     1      -1.098  11.283  17.723  0.00  0.00    +0.000 OA
BRANCH  26  27
ATOM     27  C   UNL     1      -2.379  10.885  17.253  0.00  0.00    +0.000 C 
ATOM     28  F   UNL     1      -3.412  11.320  18.002  0.00  0.00    +0.000 F 
ATOM     29  F   UNL     1      -2.541  11.329  15.986  0.00  0.00    +0.000 F 
ATOM     30  F   UNL     1      -2.423   9.534  17.231  0.00  0.00    +0.000 F 
ENDBRANCH  26  27
ENDBRANCH  23  26
ENDBRANCH  19  20
ENDBRANCH  18  19
ENDBRANCH  17  18
ENDBRANCH   4  17
TORSDOF 8
ENDMDL
MODEL 7
REMARK VINA RESULT:      -6.5      3.982      6.648
REMARK  Name = 
REMARK  8 active torsions:
REMARK  status: ('A' for Active; 'I' for Inactive)
REMARK    1  A    between atoms: C_2  and  C_3
REMARK    2  A    between atoms: C_3  and  N_4
REMARK    3  A    between atoms: N_7  and  C_8
REMARK    4  A    between atoms: C_8  and  C_9
REMARK    5  A    between atoms: C_9  and  O_10
REMARK    6  A    between atoms: O_10  and  C_11
REMARK    7  A    between atoms: C_14  and  O_15
REMARK    8  A    between atoms: O_15  and  C_16
REMARK                            x       y       z     vdW  Elec       q    Type
REMARK                         _______ _______ _______ _____ _____    ______ ____
ROOT
ATOM      1  N   UNL     1       4.748   4.385  18.406  0.00  0.00    +0.000 NA
ATOM      2  C   UNL     1       3.546   5.250  18.471  0.00  0.00    +0.000 C 
ATOM      3  C   UNL     1       2.225   4.459  18.378  0.00  0.00    +0.000 C 
ATOM      4  N   UNL     1       2.043   3.511  19.494  0.00  0.00    +0.000 NA
ATOM      5  C   UNL     1       3.243   2.651  19.605  0.00  0.00    +0.000 C 
ATOM      6  C   UNL     1       4.621   3.375  19.496  0.00  0.00    +0.000 C 
ENDROOT
BRANCH   1   7
ATOM      7  C   UNL     1       4.857   3.681  17.100  0.00  0.00    +0.000 C 
BRANCH   7   9
ATOM      8  O   UNL     1       6.409   5.383  16.465  0.00  0.00    +0.000 OA
ATOM      9  C   UNL     1       5.830   4.351  16.128  0.00  0.00    +0.000 C 
ATOM     10  N   UNL     1       5.921   3.719  14.910  0.00  0.00    +0.000 N 
ATOM     11  C   UNL     1       6.690   4.229  13.903  0.00  0.00    +0.000 A 
ATOM     12  N   UNL     1       7.561   5.204  13.951  0.00  0.00    +0.000 NA
ATOM     13  C   UNL     1       8.005   5.491  12.680  0.00  0.00    +0.000 A 
ATOM     14  C   UNL     1       7.466   4.712  11.676  0.00  0.00    +0.000 A 
ATOM     15  S   UNL     1       6.431   3.525  12.368  0.00  0.00    +0.000 S 
ATOM     16  H   UNL     1       5.362   2.896  14.730  0.00  0.00    +0.000 HD
ENDBRANCH   7   9
ENDBRANCH   1   7
BRANCH   4  17
ATOM     17  C   UNL     1       1.742   4.178  20.775  0.00  0.00    +0.000 C 
BRANCH  17  18
ATOM     18  C   UNL     1       0.954   5.488  20.608  0.00  0.00    +0.000 C 
BRANCH  18  19
ATOM     19  O   UNL     1       1.778   6.584  21.001  0.00  0.00    +0.000 OA
BRANCH  19  20
ATOM     20  C   UNL     1       1.446   7.791  20.454  0.00  0.00    +0.000 A 
ATOM     21  C   UNL     1       0.630   8.586  21.256  0.00  0.00    +0.000 A 
ATOM     22  C   UNL     1       0.231   9.848  20.819  0.00  0.00    +0.000 A 
ATOM     23  C   UNL     1       0.666  10.345  19.589  0.00  0.00    +0.000 A 
ATOM     24  C   UNL     1       1.455   9.543  18.770  0.00  0.00    +0.000 A 
ATOM     25  C   UNL     1       1.859   8.277  19.208  0.00  0.00    +0.000 A 
BRANCH  23  26
ATOM     26  O   UNL     1       0.204  11.585  19.273  0.00  0.00    +0.000 OA
BRANCH  26  27
ATOM     27  C   UNL     1      -1.031  11.706  18.581  0.00  0.00    +0.000 C 
ATOM     28  F   UNL     1      -1.065  12.693  17.662  0.00  0.00    +0.000 F 
ATOM     29  F   UNL     1      -1.313  10.533  17.971  0.00  0.00    +0.000 F 
ATOM     30  F   UNL     1      -2.004  11.951  19.487  0.00  0.00    +0.000 F 
ENDBRANCH  26  27
ENDBRANCH  23  26
ENDBRANCH  19  20
ENDBRANCH  18  19
ENDBRANCH  17  18
ENDBRANCH   4  17
TORSDOF 8
ENDMDL
MODEL 8
REMARK VINA RESULT:      -6.4      4.714      8.790
REMARK  Name = 
REMARK  8 active torsions:
REMARK  status: ('A' for Active; 'I' for Inactive)
REMARK    1  A    between atoms: C_2  and  C_3
REMARK    2  A    between atoms: C_3  and  N_4
REMARK    3  A    between atoms: N_7  and  C_8
REMARK    4  A    between atoms: C_8  and  C_9
REMARK    5  A    between atoms: C_9  and  O_10
REMARK    6  A    between atoms: O_10  and  C_11
REMARK    7  A    between atoms: C_14  and  O_15
REMARK    8  A    between atoms: O_15  and  C_16
REMARK                            x       y       z     vdW  Elec       q    Type
REMARK                         _______ _______ _______ _____ _____    ______ ____
ROOT
ATOM      1  N   UNL     1      -0.897  11.616  21.201  0.00  0.00    +0.000 NA
ATOM      2  C   UNL     1      -0.921  10.524  20.199  0.00  0.00    +0.000 C 
ATOM      3  C   UNL     1      -0.651  11.014  18.761  0.00  0.00    +0.000 C 
ATOM      4  N   UNL     1       0.687  11.617  18.602  0.00  0.00    +0.000 NA
ATOM      5  C   UNL     1       0.878  12.663  19.632  0.00  0.00    +0.000 C 
ATOM      6  C   UNL     1       0.425  12.295  21.080  0.00  0.00    +0.000 C 
ENDROOT
BRANCH   1   7
ATOM      7  C   UNL     1      -1.979  12.610  20.965  0.00  0.00    +0.000 C 
BRANCH   7   9
ATOM      8  O   UNL     1      -2.851  12.139  23.140  0.00  0.00    +0.000 OA
ATOM      9  C   UNL     1      -3.099  12.547  22.006  0.00  0.00    +0.000 C 
ATOM     10  N   UNL     1      -4.328  12.930  21.521  0.00  0.00    +0.000 N 
ATOM     11  C   UNL     1      -5.448  12.863  22.300  0.00  0.00    +0.000 A 
ATOM     12  N   UNL     1      -5.541  12.638  23.585  0.00  0.00    +0.000 NA
ATOM     13  C   UNL     1      -6.864  12.511  23.939  0.00  0.00    +0.000 A 
ATOM     14  C   UNL     1      -7.769  12.656  22.906  0.00  0.00    +0.000 A 
ATOM     15  S   UNL     1      -6.924  13.047  21.460  0.00  0.00    +0.000 S 
ATOM     16  H   UNL     1      -4.420  13.209  20.554  0.00  0.00    +0.000 HD
ENDBRANCH   7   9
ENDBRANCH   1   7
BRANCH   4  17
ATOM     17  C   UNL     1       1.776  10.623  18.641  0.00  0.00    +0.000 C 
BRANCH  17  18
ATOM     18  C   UNL     1       1.408   9.290  17.968  0.00  0.00    +0.000 C 
BRANCH  18  19
ATOM     19  O   UNL     1       2.538   8.800  17.249  0.00  0.00    +0.000 OA
BRANCH  19  20
ATOM     20  C   UNL     1       3.106   7.665  17.756  0.00  0.00    +0.000 A 
ATOM     21  C   UNL     1       2.442   7.125  18.854  0.00  0.00    +0.000 A 
ATOM     22  C   UNL     1       2.912   5.958  19.456  0.00  0.00    +0.000 A 
ATOM     23  C   UNL     1       4.035   5.300  18.949  0.00  0.00    +0.000 A 
ATOM     24  C   UNL     1       4.721   5.853  17.871  0.00  0.00    +0.000 A 
ATOM     25  C   UNL     1       4.248   7.022  17.265  0.00  0.00    +0.000 A 
BRANCH  23  26
ATOM     26  O   UNL     1       4.398   4.178  19.625  0.00  0.00    +0.000 OA
BRANCH  26  27
ATOM     27  C   UNL     1       3.807   2.935  19.268  0.00  0.00    +0.000 C 
ATOM     28  F   UNL     1       4.511   1.849  19.648  0.00  0.00    +0.000 F 
ATOM     29  F   UNL     1       2.570   2.863  19.807  0.00  0.00    +0.000 F 
ATOM     30  F   UNL     1       3.680   2.895  17.922  0.00  0.00    +0.000 F 
ENDBRANCH  26  27
ENDBRANCH  23  26
ENDBRANCH  19  20
ENDBRANCH  18  19
ENDBRANCH  17  18
ENDBRANCH   4  17
TORSDOF 8
ENDMDL
MODEL 9
REMARK VINA RESULT:      -6.4      4.483      8.499
REMARK  Name = 
REMARK  8 active torsions:
REMARK  status: ('A' for Active; 'I' for Inactive)
REMARK    1  A    between atoms: C_2  and  C_3
REMARK    2  A    between atoms: C_3  and  N_4
REMARK    3  A    between atoms: N_7  and  C_8
REMARK    4  A    between atoms: C_8  and  C_9
REMARK    5  A    between atoms: C_9  and  O_10
REMARK    6  A    between atoms: O_10  and  C_11
REMARK    7  A    between atoms: C_14  and  O_15
REMARK    8  A    between atoms: O_15  and  C_16
REMARK                            x       y       z     vdW  Elec       q    Type
REMARK                         _______ _______ _______ _____ _____    ______ ____
ROOT
ATOM      1  N   UNL     1      -1.703  13.026  20.590  0.00  0.00    +0.000 NA
ATOM      2  C   UNL     1      -0.430  13.604  20.097  0.00  0.00    +0.000 C 
ATOM      3  C   UNL     1       0.815  12.843  20.596  0.00  0.00    +0.000 C 
ATOM      4  N   UNL     1       0.857  11.442  20.134  0.00  0.00    +0.000 NA
ATOM      5  C   UNL     1      -0.422  10.777  20.474  0.00  0.00    +0.000 C 
ATOM      6  C   UNL     1      -1.721  11.592  20.182  0.00  0.00    +0.000 C 
ENDROOT
BRANCH   1   7
ATOM      7  C   UNL     1      -1.815  13.111  22.071  0.00  0.00    +0.000 C 
BRANCH   7   9
ATOM      8  O   UNL     1      -3.323  11.940  23.509  0.00  0.00    +0.000 OA
ATOM      9  C   UNL     1      -3.208  12.757  22.596  0.00  0.00    +0.000 C 
ATOM     10  N   UNL     1      -4.230  13.389  21.926  0.00  0.00    +0.000 N 
ATOM     11  C   UNL     1      -5.538  13.128  22.221  0.00  0.00    +0.000 A 
ATOM     12  N   UNL     1      -6.032  12.451  23.225  0.00  0.00    +0.000 NA
ATOM     13  C   UNL     1      -7.391  12.309  23.064  0.00  0.00    +0.000 A 
ATOM     14  C   UNL     1      -7.916  12.897  21.930  0.00  0.00    +0.000 A 
ATOM     15  S   UNL     1      -6.667  13.727  21.088  0.00  0.00    +0.000 S 
ATOM     16  H   UNL     1      -4.016  14.012  21.160  0.00  0.00    +0.000 HD
ENDBRANCH   7   9
ENDBRANCH   1   7
BRANCH   4  17
ATOM     17  C   UNL     1       1.157  11.319  18.695  0.00  0.00    +0.000 C 
BRANCH  17  18
ATOM     18  C   UNL     1       0.887   9.913  18.135  0.00  0.00    +0.000 C 
BRANCH  18  19
ATOM     19  O   UNL     1       2.077   9.414  17.526  0.00  0.00    +0.000 OA
BRANCH  19  20
ATOM     20  C   UNL     1       2.507   8.202  17.988  0.00  0.00    +0.000 A 
ATOM     21  C   UNL     1       2.049   7.872  19.261  0.00  0.00    +0.000 A 
ATOM     22  C   UNL     1       2.406   6.656  19.842  0.00  0.00    +0.000 A 
ATOM     23  C   UNL     1       3.199   5.741  19.147  0.00  0.00    +0.000 A 
ATOM     24  C   UNL     1       3.685   6.080  17.887  0.00  0.00    +0.000 A 
ATOM     25  C   UNL     1       3.326   7.299  17.302  0.00  0.00    +0.000 A 
BRANCH  23  26
ATOM     26  O   UNL     1       3.482   4.594  19.821  0.00  0.00    +0.000 OA
BRANCH  26  27
ATOM     27  C   UNL     1       2.411   3.765  20.252  0.00  0.00    +0.000 C 
ATOM     28  F   UNL     1       1.791   4.186  21.373  0.00  0.00    +0.000 F 
ATOM     29  F   UNL     1       1.499   3.669  19.259  0.00  0.00    +0.000 F 
ATOM     30  F   UNL     1       2.901   2.527  20.490  0.00  0.00    +0.000 F 
ENDBRANCH  26  27
ENDBRANCH  23  26
ENDBRANCH  19  20
ENDBRANCH  18  19
ENDBRANCH  17  18
ENDBRANCH   4  17
TORSDOF 8
ENDMDL
