MODEL 1
REMARK VINA RESULT:      -7.5      0.000      0.000
REMARK  Name = 
REMARK  7 active torsions:
REMARK  status: ('A' for Active; 'I' for Inactive)
REMARK    1  A    between atoms: C_1  and  C_2
REMARK    2  A    between atoms: C_7  and  C_9
REMARK    3  A    between atoms: C_9  and  C_10
REMARK    4  A    between atoms: C_10  and  C_11
REMARK    5  A    between atoms: C_11  and  O_12
REMARK    6  A    between atoms: O_12  and  C_13
REMARK    7  A    between atoms: C_17  and  C_18
REMARK                            x       y       z     vdW  Elec       q    Type
REMARK                         _______ _______ _______ _____ _____    ______ ____
ROOT
ATOM      1  C   UNL     1       7.140   6.277  17.475  0.00  0.00    +0.000 C 
ENDROOT
BRANCH   1   2
ATOM      2  C   UNL     1       8.030   6.955  18.521  0.00  0.00    +0.000 C 
BRANCH   2   9
ATOM      3  C   UNL     1      11.098  13.794  19.486  0.00  0.00    +0.000 C 
ATOM      4  C   UNL     1      10.260  12.622  19.134  0.00  0.00    +0.000 A 
ATOM      5  C   UNL     1       9.329  12.500  18.122  0.00  0.00    +0.000 A 
ATOM      6  N   UNL     1       8.743  11.262  18.002  0.00  0.00    +0.000 NA
ATOM      7  C   UNL     1       9.221  10.456  18.914  0.00  0.00    +0.000 A 
ATOM      8  N   UNL     1       8.945   9.127  19.105  0.00  0.00    +0.000 N 
ATOM      9  C   UNL     1       8.236   8.418  18.159  0.00  0.00    +0.000 C 
ATOM     10  O   UNL     1       7.778   8.862  17.110  0.00  0.00    +0.000 OA
ATOM     11  S   UNL     1      10.354  11.137  19.998  0.00  0.00    +0.000 S 
ATOM     12  H   UNL     1       9.376   8.678  19.899  0.00  0.00    +0.000 HD
ENDBRANCH   2   9
ENDBRANCH   1   2
BRANCH   1  13
ATOM     13  C   UNL     1       7.178   4.756  17.558  0.00  0.00    +0.000 C 
BRANCH  13  14
ATOM     14  O   UNL     1       6.401   4.353  18.692  0.00  0.00    +0.000 OA
BRANCH  14  15
ATOM     15  C   UNL     1       5.077   4.085  18.475  0.00  0.00    +0.000 A 
ATOM     16  C   UNL     1       4.503   3.794  17.243  0.00  0.00    +0.000 A 
ATOM     17  C   UNL     1       3.140   3.551  17.199  0.00  0.00    +0.000 A 
ATOM     18  N   UNL     1       2.333   3.578  18.278  0.00  0.00    +0.000 NA
ATOM     19  C   UNL     1       2.898   3.862  19.485  0.00  0.00    +0.000 A 
ATOM     20  C   UNL     1       4.266   4.120  19.610  0.00  0.00    +0.000 A 
BRANCH  19  21
ATOM     21  C   UNL     1       2.019   3.900  20.725  0.00  0.00    +0.000 C 
ATOM     22  F   UNL     1       2.215   4.993  21.518  0.00  0.00    +0.000 F 
ATOM     23  F   UNL     1       0.687   3.898  20.425  0.00  0.00    +0.000 F 
ATOM     24  F   UNL     1       2.210   2.818  21.537  0.00  0.00    +0.000 F 
ENDBRANCH  19  21
ENDBRANCH  14  15
ENDBRANCH  13  14
ENDBRANCH   1  13
TORSDOF 6
ENDMDL
MODEL 2
REMARK VINA RESULT:      -7.5      5.781      7.343
REMARK  Name = 
REMARK  7 active torsions:
REMARK  status: ('A' for Active; 'I' for Inactive)
REMARK    1  A    between atoms: C_1  and  C_2
REMARK    2  A    between atoms: C_7  and  C_9
REMARK    3  A    between atoms: C_9  and  C_10
REMARK    4  A    between atoms: C_10  and  C_11
REMARK    5  A    between atoms: C_11  and  O_12
REMARK    6  A    between atoms: O_12  and  C_13
REMARK    7  A    between atoms: C_17  and  C_18
REMARK                            x       y       z     vdW  Elec       q    Type
REMARK                         _______ _______ _______ _____ _____    ______ ____
ROOT
ATOM      1  C   UNL     1       2.627   6.226  18.175  0.00  0.00    +0.000 C 
ENDROOT
BRANCH   1   2
ATOM      2  C   UNL     1       3.193   7.613  17.858  0.00  0.00    +0.000 C 
BRANCH   2   9
ATOM      3  C   UNL     1      -1.095  11.256  22.905  0.00  0.00    +0.000 C 
ATOM      4  C   UNL     1      -0.468  10.671  21.694  0.00  0.00    +0.000 A 
ATOM      5  C   UNL     1      -0.566  11.090  20.383  0.00  0.00    +0.000 A 
ATOM      6  N   UNL     1       0.180  10.377  19.475  0.00  0.00    +0.000 NA
ATOM      7  C   UNL     1       0.833   9.425  20.089  0.00  0.00    +0.000 A 
ATOM      8  N   UNL     1       1.725   8.527  19.563  0.00  0.00    +0.000 N 
ATOM      9  C   UNL     1       2.202   8.688  18.279  0.00  0.00    +0.000 C 
ATOM     10  O   UNL     1       1.893   9.580  17.494  0.00  0.00    +0.000 OA
ATOM     11  S   UNL     1       0.557   9.290  21.771  0.00  0.00    +0.000 S 
ATOM     12  H   UNL     1       2.095   7.827  20.187  0.00  0.00    +0.000 HD
ENDBRANCH   2   9
ENDBRANCH   1   2
BRANCH   1  13
ATOM     13  C   UNL     1       3.489   5.442  19.157  0.00  0.00    +0.000 C 
BRANCH  13  14
ATOM     14  O   UNL     1       3.996   4.286  18.480  0.00  0.00    +0.000 OA
BRANCH  14  15
ATOM     15  C   UNL     1       5.198   4.417  17.839  0.00  0.00    +0.000 A 
ATOM     16  C   UNL     1       6.420   4.655  18.456  0.00  0.00    +0.000 A 
ATOM     17  C   UNL     1       7.545   4.766  17.656  0.00  0.00    +0.000 A 
ATOM     18  N   UNL     1       7.530   4.658  16.313  0.00  0.00    +0.000 NA
ATOM     19  C   UNL     1       6.330   4.424  15.710  0.00  0.00    +0.000 A 
ATOM     20  C   UNL     1       5.152   4.301  16.450  0.00  0.00    +0.000 A 
BRANCH  19  21
ATOM     21  C   UNL     1       6.275   4.295  14.196  0.00  0.00    +0.000 C 
ATOM     22  F   UNL     1       6.479   3.027  13.733  0.00  0.00    +0.000 F 
ATOM     23  F   UNL     1       5.073   4.685  13.679  0.00  0.00    +0.000 F 
ATOM     24  F   UNL     1       7.209   5.069  13.569  0.00  0.00    +0.000 F 
ENDBRANCH  19  21
ENDBRANCH  14  15
ENDBRANCH  13  14
ENDBRANCH   1  13
TORSDOF 6
ENDMDL
MODEL 3
REMARK VINA RESULT:      -7.3      5.030      6.198
REMARK  Name = 
REMARK  7 active torsions:
REMARK  status: ('A' for Active; 'I' for Inactive)
REMARK    1  A    between atoms: C_1  and  C_2
REMARK    2  A    between atoms: C_7  and  C_9
REMARK    3  A    between atoms: C_9  and  C_10
REMARK    4  A    between atoms: C_10  and  C_11
REMARK    5  A    between atoms: C_11  and  O_12
REMARK    6  A    between atoms: O_12  and  C_13
REMARK    7  A    between atoms: C_17  and  C_18
REMARK                            x       y       z     vdW  Elec       q    Type
REMARK                         _______ _______ _______ _____ _____    ______ ____
ROOT
ATOM      1  C   UNL     1       4.077   7.187  17.776  0.00  0.00    +0.000 C 
ENDROOT
BRANCH   1   2
ATOM      2  C   UNL     1       2.572   7.468  17.786  0.00  0.00    +0.000 C 
BRANCH   2   9
ATOM      3  C   UNL     1      -1.348  11.242  23.032  0.00  0.00    +0.000 C 
ATOM      4  C   UNL     1      -0.395  10.405  22.263  0.00  0.00    +0.000 A 
ATOM      5  C   UNL     1       0.404   9.372  22.712  0.00  0.00    +0.000 A 
ATOM      6  N   UNL     1       1.150   8.738  21.748  0.00  0.00    +0.000 NA
ATOM      7  C   UNL     1       0.924   9.284  20.582  0.00  0.00    +0.000 A 
ATOM      8  N   UNL     1       1.422   8.918  19.358  0.00  0.00    +0.000 N 
ATOM      9  C   UNL     1       2.100   7.726  19.209  0.00  0.00    +0.000 C 
ATOM     10  O   UNL     1       2.344   6.913  20.095  0.00  0.00    +0.000 OA
ATOM     11  S   UNL     1      -0.148  10.616  20.573  0.00  0.00    +0.000 S 
ATOM     12  H   UNL     1       1.171   9.494  18.570  0.00  0.00    +0.000 HD
ENDBRANCH   2   9
ENDBRANCH   1   2
BRANCH   1  13
ATOM     13  C   UNL     1       4.455   6.002  16.897  0.00  0.00    +0.000 C 
BRANCH  13  14
ATOM     14  O   UNL     1       4.839   4.918  17.753  0.00  0.00    +0.000 OA
BRANCH  14  15
ATOM     15  C   UNL     1       3.864   4.019  18.093  0.00  0.00    +0.000 A 
ATOM     16  C   UNL     1       3.189   3.187  17.209  0.00  0.00    +0.000 A 
ATOM     17  C   UNL     1       2.224   2.336  17.722  0.00  0.00    +0.000 A 
ATOM     18  N   UNL     1       1.897   2.264  19.027  0.00  0.00    +0.000 NA
ATOM     19  C   UNL     1       2.561   3.081  19.892  0.00  0.00    +0.000 A 
ATOM     20  C   UNL     1       3.547   3.967  19.451  0.00  0.00    +0.000 A 
BRANCH  19  21
ATOM     21  C   UNL     1       2.220   3.026  21.373  0.00  0.00    +0.000 C 
ATOM     22  F   UNL     1       2.331   4.223  22.019  0.00  0.00    +0.000 F 
ATOM     23  F   UNL     1       0.943   2.602  21.603  0.00  0.00    +0.000 F 
ATOM     24  F   UNL     1       3.020   2.162  22.064  0.00  0.00    +0.000 F 
ENDBRANCH  19  21
ENDBRANCH  14  15
ENDBRANCH  13  14
ENDBRANCH   1  13
TORSDOF 6
ENDMDL
MODEL 4
REMARK VINA RESULT:      -7.3      3.962      5.471
REMARK  Name = 
REMARK  7 active torsions:
REMARK  status: ('A' for Active; 'I' for Inactive)
REMARK    1  A    between atoms: C_1  and  C_2
REMARK    2  A    between atoms: C_7  and  C_9
REMARK    3  A    between atoms: C_9  and  C_10
REMARK    4  A    between atoms: C_10  and  C_11
REMARK    5  A    between atoms: C_11  and  O_12
REMARK    6  A    between atoms: O_12  and  C_13
REMARK    7  A    between atoms: C_17  and  C_18
REMARK                            x       y       z     vdW  Elec       q    Type
REMARK                         _______ _______ _______ _____ _____    ______ ____
ROOT
ATOM      1  C   UNL     1       7.155   5.309  19.211  0.00  0.00    +0.000 C 
ENDROOT
BRANCH   1   2
ATOM      2  C   UNL     1       7.496   6.636  18.527  0.00  0.00    +0.000 C 
BRANCH   2   9
ATOM      3  C   UNL     1       5.880   3.107  12.042  0.00  0.00    +0.000 C 
ATOM      4  C   UNL     1       6.468   3.901  13.148  0.00  0.00    +0.000 A 
ATOM      5  C   UNL     1       7.382   4.933  13.079  0.00  0.00    +0.000 A 
ATOM      6  N   UNL     1       7.703   5.522  14.279  0.00  0.00    +0.000 NA
ATOM      7  C   UNL     1       7.043   4.943  15.247  0.00  0.00    +0.000 A 
ATOM      8  N   UNL     1       7.033   5.260  16.581  0.00  0.00    +0.000 N 
ATOM      9  C   UNL     1       7.607   6.433  17.023  0.00  0.00    +0.000 C 
ATOM     10  O   UNL     1       8.176   7.271  16.331  0.00  0.00    +0.000 OA
ATOM     11  S   UNL     1       6.045   3.631  14.795  0.00  0.00    +0.000 S 
ATOM     12  H   UNL     1       6.497   4.663  17.191  0.00  0.00    +0.000 HD
ENDBRANCH   2   9
ENDBRANCH   1   2
BRANCH   1  13
ATOM     13  C   UNL     1       5.665   5.145  19.481  0.00  0.00    +0.000 C 
BRANCH  13  14
ATOM     14  O   UNL     1       5.055   4.610  18.301  0.00  0.00    +0.000 OA
BRANCH  14  15
ATOM     15  C   UNL     1       3.995   3.762  18.477  0.00  0.00    +0.000 A 
ATOM     16  C   UNL     1       3.393   3.004  17.481  0.00  0.00    +0.000 A 
ATOM     17  C   UNL     1       2.323   2.198  17.832  0.00  0.00    +0.000 A 
ATOM     18  N   UNL     1       1.827   2.101  19.081  0.00  0.00    +0.000 NA
ATOM     19  C   UNL     1       2.420   2.845  20.057  0.00  0.00    +0.000 A 
ATOM     20  C   UNL     1       3.504   3.682  19.781  0.00  0.00    +0.000 A 
BRANCH  19  21
ATOM     21  C   UNL     1       1.889   2.760  21.480  0.00  0.00    +0.000 C 
ATOM     22  F   UNL     1       2.260   1.631  22.150  0.00  0.00    +0.000 F 
ATOM     23  F   UNL     1       2.305   3.802  22.258  0.00  0.00    +0.000 F 
ATOM     24  F   UNL     1       0.525   2.788  21.533  0.00  0.00    +0.000 F 
ENDBRANCH  19  21
ENDBRANCH  14  15
ENDBRANCH  13  14
ENDBRANCH   1  13
TORSDOF 6
ENDMDL
MODEL 5
REMARK VINA RESULT:      -7.3      5.136      7.204
REMARK  Name = 
REMARK  7 active torsions:
REMARK  status: ('A' for Active; 'I' for Inactive)
REMARK    1  A    between atoms: C_1  and  C_2
REMARK    2  A    between atoms: C_7  and  C_9
REMARK    3  A    between atoms: C_9  and  C_10
REMARK    4  A    between atoms: C_10  and  C_11
REMARK    5  A    between atoms: C_11  and  O_12
REMARK    6  A    between atoms: O_12  and  C_13
REMARK    7  A    between atoms: C_17  and  C_18
REMARK                            x       y       z     vdW  Elec       q    Type
REMARK                         _______ _______ _______ _____ _____    ______ ____
ROOT
ATOM      1  C   UNL     1       2.062   5.489  18.124  0.00  0.00    +0.000 C 
ENDROOT
BRANCH   1   2
ATOM      2  C   UNL     1       2.613   6.848  18.562  0.00  0.00    +0.000 C 
BRANCH   2   9
ATOM      3  C   UNL     1      -1.218  11.754  22.850  0.00  0.00    +0.000 C 
ATOM      4  C   UNL     1      -0.371  10.666  22.303  0.00  0.00    +0.000 A 
ATOM      5  C   UNL     1       0.027   9.493  22.911  0.00  0.00    +0.000 A 
ATOM      6  N   UNL     1       0.770   8.641  22.129  0.00  0.00    +0.000 NA
ATOM      7  C   UNL     1       0.938   9.164  20.942  0.00  0.00    +0.000 A 
ATOM      8  N   UNL     1       1.570   8.620  19.853  0.00  0.00    +0.000 N 
ATOM      9  C   UNL     1       1.937   7.292  19.852  0.00  0.00    +0.000 C 
ATOM     10  O   UNL     1       1.776   6.491  20.768  0.00  0.00    +0.000 OA
ATOM     11  S   UNL     1       0.268  10.719  20.705  0.00  0.00    +0.000 S 
ATOM     12  H   UNL     1       1.644   9.198  19.030  0.00  0.00    +0.000 HD
ENDBRANCH   2   9
ENDBRANCH   1   2
BRANCH   1  13
ATOM     13  C   UNL     1       3.083   4.365  18.247  0.00  0.00    +0.000 C 
BRANCH  13  14
ATOM     14  O   UNL     1       3.581   4.070  16.937  0.00  0.00    +0.000 OA
BRANCH  14  15
ATOM     15  C   UNL     1       4.903   4.337  16.700  0.00  0.00    +0.000 A 
ATOM     16  C   UNL     1       5.556   4.163  15.486  0.00  0.00    +0.000 A 
ATOM     17  C   UNL     1       6.903   4.478  15.419  0.00  0.00    +0.000 A 
ATOM     18  N   UNL     1       7.623   4.944  16.459  0.00  0.00    +0.000 NA
ATOM     19  C   UNL     1       6.979   5.113  17.649  0.00  0.00    +0.000 A 
ATOM     20  C   UNL     1       5.622   4.817  17.795  0.00  0.00    +0.000 A 
BRANCH  19  21
ATOM     21  C   UNL     1       7.759   5.638  18.845  0.00  0.00    +0.000 C 
ATOM     22  F   UNL     1       8.823   4.864  19.204  0.00  0.00    +0.000 F 
ATOM     23  F   UNL     1       8.268   6.887  18.633  0.00  0.00    +0.000 F 
ATOM     24  F   UNL     1       6.987   5.746  19.967  0.00  0.00    +0.000 F 
ENDBRANCH  19  21
ENDBRANCH  14  15
ENDBRANCH  13  14
ENDBRANCH   1  13
TORSDOF 6
ENDMDL
MODEL 6
REMARK VINA RESULT:      -7.2      5.325      6.725
REMARK  Name = 
REMARK  7 active torsions:
REMARK  status: ('A' for Active; 'I' for Inactive)
REMARK    1  A    between atoms: C_1  and  C_2
REMARK    2  A    between atoms: C_7  and  C_9
REMARK    3  A    between atoms: C_9  and  C_10
REMARK    4  A    between atoms: C_10  and  C_11
REMARK    5  A    between atoms: C_11  and  O_12
REMARK    6  A    between atoms: O_12  and  C_13
REMARK    7  A    between atoms: C_17  and  C_18
REMARK                            x       y       z     vdW  Elec       q    Type
REMARK                         _______ _______ _______ _____ _____    ______ ____
ROOT
ATOM      1  C   UNL     1       1.206   4.181  20.320  0.00  0.00    +0.000 C 
ENDROOT
BRANCH   1   2
ATOM      2  C   UNL     1       2.224   5.183  20.872  0.00  0.00    +0.000 C 
BRANCH   2   9
ATOM      3  C   UNL     1       0.347  12.503  21.005  0.00  0.00    +0.000 C 
ATOM      4  C   UNL     1       0.646  11.093  20.654  0.00  0.00    +0.000 A 
ATOM      5  C   UNL     1       0.966  10.559  19.422  0.00  0.00    +0.000 A 
ATOM      6  N   UNL     1       1.249   9.214  19.414  0.00  0.00    +0.000 NA
ATOM      7  C   UNL     1       1.141   8.732  20.624  0.00  0.00    +0.000 A 
ATOM      8  N   UNL     1       1.388   7.455  21.058  0.00  0.00    +0.000 N 
ATOM      9  C   UNL     1       2.014   6.546  20.231  0.00  0.00    +0.000 C 
ATOM     10  O   UNL     1       2.381   6.745  19.077  0.00  0.00    +0.000 OA
ATOM     11  S   UNL     1       0.645   9.837  21.831  0.00  0.00    +0.000 S 
ATOM     12  H   UNL     1       1.200   7.255  22.028  0.00  0.00    +0.000 HD
ENDBRANCH   2   9
ENDBRANCH   1   2
BRANCH   1  13
ATOM     13  C   UNL     1       1.855   3.026  19.569  0.00  0.00    +0.000 C 
BRANCH  13  14
ATOM     14  O   UNL     1       3.275   3.136  19.724  0.00  0.00    +0.000 OA
BRANCH  14  15
ATOM     15  C   UNL     1       3.983   3.601  18.649  0.00  0.00    +0.000 A 
ATOM     16  C   UNL     1       3.537   3.618  17.334  0.00  0.00    +0.000 A 
ATOM     17  C   UNL     1       4.386   4.120  16.363  0.00  0.00    +0.000 A 
ATOM     18  N   UNL     1       5.622   4.595  16.613  0.00  0.00    +0.000 NA
ATOM     19  C   UNL     1       6.058   4.578  17.904  0.00  0.00    +0.000 A 
ATOM     20  C   UNL     1       5.259   4.086  18.939  0.00  0.00    +0.000 A 
BRANCH  19  21
ATOM     21  C   UNL     1       7.447   5.108  18.225  0.00  0.00    +0.000 C 
ATOM     22  F   UNL     1       7.643   5.407  19.542  0.00  0.00    +0.000 F 
ATOM     23  F   UNL     1       8.435   4.223  17.898  0.00  0.00    +0.000 F 
ATOM     24  F   UNL     1       7.743   6.252  17.541  0.00  0.00    +0.000 F 
ENDBRANCH  19  21
ENDBRANCH  14  15
ENDBRANCH  13  14
ENDBRANCH   1  13
TORSDOF 6
ENDMDL
MODEL 7
REMARK VINA RESULT:      -7.2      4.941      6.915
REMARK  Name = 
REMARK  7 active torsions:
REMARK  status: ('A' for Active; 'I' for Inactive)
REMARK    1  A    between atoms: C_1  and  C_2
REMARK    2  A    between atoms: C_7  and  C_9
REMARK    3  A    between atoms: C_9  and  C_10
REMARK    4  A    between atoms: C_10  and  C_11
REMARK    5  A    between atoms: C_11  and  O_12
REMARK    6  A    between atoms: O_12  and  C_13
REMARK    7  A    between atoms: C_17  and  C_18
REMARK                            x       y       z     vdW  Elec       q    Type
REMARK                         _______ _______ _______ _____ _____    ______ ____
ROOT
ATOM      1  C   UNL     1       2.394   4.012  18.866  0.00  0.00    +0.000 C 
ENDROOT
BRANCH   1   2
ATOM      2  C   UNL     1       2.978   5.001  19.879  0.00  0.00    +0.000 C 
BRANCH   2   9
ATOM      3  C   UNL     1       0.096  11.771  21.608  0.00  0.00    +0.000 C 
ATOM      4  C   UNL     1       0.565  10.522  20.960  0.00  0.00    +0.000 A 
ATOM      5  C   UNL     1       0.864  10.299  19.631  0.00  0.00    +0.000 A 
ATOM      6  N   UNL     1       1.333   9.042  19.332  0.00  0.00    +0.000 NA
ATOM      7  C   UNL     1       1.386   8.318  20.420  0.00  0.00    +0.000 A 
ATOM      8  N   UNL     1       1.845   7.035  20.568  0.00  0.00    +0.000 N 
ATOM      9  C   UNL     1       2.528   6.416  19.543  0.00  0.00    +0.000 C 
ATOM     10  O   UNL     1       2.776   6.894  18.440  0.00  0.00    +0.000 OA
ATOM     11  S   UNL     1       0.832   9.073  21.850  0.00  0.00    +0.000 S 
ATOM     12  H   UNL     1       1.760   6.620  21.483  0.00  0.00    +0.000 HD
ENDBRANCH   2   9
ENDBRANCH   1   2
BRANCH   1  13
ATOM     13  C   UNL     1       3.435   3.473  17.893  0.00  0.00    +0.000 C 
BRANCH  13  14
ATOM     14  O   UNL     1       4.731   3.843  18.377  0.00  0.00    +0.000 OA
BRANCH  14  15
ATOM     15  C   UNL     1       5.568   4.474  17.497  0.00  0.00    +0.000 A 
ATOM     16  C   UNL     1       5.854   4.046  16.207  0.00  0.00    +0.000 A 
ATOM     17  C   UNL     1       6.730   4.803  15.447  0.00  0.00    +0.000 A 
ATOM     18  N   UNL     1       7.324   5.932  15.881  0.00  0.00    +0.000 NA
ATOM     19  C   UNL     1       7.041   6.351  17.146  0.00  0.00    +0.000 A 
ATOM     20  C   UNL     1       6.168   5.640  17.974  0.00  0.00    +0.000 A 
BRANCH  19  21
ATOM     21  C   UNL     1       7.692   7.622  17.670  0.00  0.00    +0.000 C 
ATOM     22  F   UNL     1       8.603   8.176  16.819  0.00  0.00    +0.000 F 
ATOM     23  F   UNL     1       6.784   8.608  17.929  0.00  0.00    +0.000 F 
ATOM     24  F   UNL     1       8.359   7.424  18.845  0.00  0.00    +0.000 F 
ENDBRANCH  19  21
ENDBRANCH  14  15
ENDBRANCH  13  14
ENDBRANCH   1  13
TORSDOF 6
ENDMDL
MODEL 8
REMARK VINA RESULT:      -7.1      5.578      7.441
REMARK  Name = 
REMARK  7 active torsions:
REMARK  status: ('A' for Active; 'I' for Inactive)
REMARK    1  A    between atoms: C_1  and  C_2
REMARK    2  A    between atoms: C_7  and  C_9
REMARK    3  A    between atoms: C_9  and  C_10
REMARK    4  A    between atoms: C_10  and  C_11
REMARK    5  A    between atoms: C_11  and  O_12
REMARK    6  A    between atoms: O_12  and  C_13
REMARK    7  A    between atoms: C_17  and  C_18
REMARK                            x       y       z     vdW  Elec       q    Type
REMARK                         _______ _______ _______ _____ _____    ______ ____
ROOT
ATOM      1  C   UNL     1       2.126   5.176  19.124  0.00  0.00    +0.000 C 
ENDROOT
BRANCH   1   2
ATOM      2  C   UNL     1       2.724   6.197  20.097  0.00  0.00    +0.000 C 
BRANCH   2   9
ATOM      3  C   UNL     1      -1.232  11.963  22.966  0.00  0.00    +0.000 C 
ATOM      4  C   UNL     1      -0.600  10.924  22.116  0.00  0.00    +0.000 A 
ATOM      5  C   UNL     1      -0.410  10.924  20.749  0.00  0.00    +0.000 A 
ATOM      6  N   UNL     1       0.263   9.838  20.244  0.00  0.00    +0.000 NA
ATOM      7  C   UNL     1       0.576   9.020  21.215  0.00  0.00    +0.000 A 
ATOM      8  N   UNL     1       1.293   7.853  21.148  0.00  0.00    +0.000 N 
ATOM      9  C   UNL     1       1.969   7.514  19.995  0.00  0.00    +0.000 C 
ATOM     10  O   UNL     1       1.995   8.159  18.951  0.00  0.00    +0.000 OA
ATOM     11  S   UNL     1       0.043   9.470  22.775  0.00  0.00    +0.000 S 
ATOM     12  H   UNL     1       1.393   7.326  22.002  0.00  0.00    +0.000 HD
ENDBRANCH   2   9
ENDBRANCH   1   2
BRANCH   1  13
ATOM     13  C   UNL     1       3.151   4.173  18.611  0.00  0.00    +0.000 C 
BRANCH  13  14
ATOM     14  O   UNL     1       4.363   4.356  19.352  0.00  0.00    +0.000 OA
BRANCH  14  15
ATOM     15  C   UNL     1       5.466   4.761  18.651  0.00  0.00    +0.000 A 
ATOM     16  C   UNL     1       6.595   5.359  19.197  0.00  0.00    +0.000 A 
ATOM     17  C   UNL     1       7.625   5.713  18.341  0.00  0.00    +0.000 A 
ATOM     18  N   UNL     1       7.602   5.514  17.008  0.00  0.00    +0.000 NA
ATOM     19  C   UNL     1       6.493   4.927  16.475  0.00  0.00    +0.000 A 
ATOM     20  C   UNL     1       5.414   4.543  17.274  0.00  0.00    +0.000 A 
BRANCH  19  21
ATOM     21  C   UNL     1       6.431   4.685  14.975  0.00  0.00    +0.000 C 
ATOM     22  F   UNL     1       7.518   5.143  14.288  0.00  0.00    +0.000 F 
ATOM     23  F   UNL     1       6.329   3.360  14.660  0.00  0.00    +0.000 F 
ATOM     24  F   UNL     1       5.350   5.282  14.392  0.00  0.00    +0.000 F 
ENDBRANCH  19  21
ENDBRANCH  14  15
ENDBRANCH  13  14
ENDBRANCH   1  13
TORSDOF 6
ENDMDL
MODEL 9
REMARK VINA RESULT:      -7.1      5.038      9.558
REMARK  Name = 
REMARK  7 active torsions:
REMARK  status: ('A' for Active; 'I' for Inactive)
REMARK    1  A    between atoms: C_1  and  C_2
REMARK    2  A    between atoms: C_7  and  C_9
REMARK    3  A    between atoms: C_9  and  C_10
REMARK    4  A    between atoms: C_10  and  C_11
REMARK    5  A    between atoms: C_11  and  O_12
REMARK    6  A    between atoms: O_12  and  C_13
REMARK    7  A    between atoms: C_17  and  C_18
REMARK                            x       y       z     vdW  Elec       q    Type
REMARK                         _______ _______ _______ _____ _____    ______ ____
ROOT
ATOM      1  C   UNL     1       8.187   7.371  18.346  0.00  0.00    +0.000 C 
ENDROOT
BRANCH   1   2
ATOM      2  C   UNL     1       7.235   6.674  17.369  0.00  0.00    +0.000 C 
BRANCH   2   9
ATOM      3  C   UNL     1       1.597   2.692  20.449  0.00  0.00    +0.000 C 
ATOM      4  C   UNL     1       2.896   3.261  20.015  0.00  0.00    +0.000 A 
ATOM      5  C   UNL     1       4.139   2.661  19.997  0.00  0.00    +0.000 A 
ATOM      6  N   UNL     1       5.160   3.425  19.484  0.00  0.00    +0.000 NA
ATOM      7  C   UNL     1       4.698   4.593  19.121  0.00  0.00    +0.000 A 
ATOM      8  N   UNL     1       5.370   5.625  18.517  0.00  0.00    +0.000 N 
ATOM      9  C   UNL     1       6.641   5.432  18.019  0.00  0.00    +0.000 C 
ATOM     10  O   UNL     1       7.293   4.394  18.071  0.00  0.00    +0.000 OA
ATOM     11  S   UNL     1       3.037   4.869  19.416  0.00  0.00    +0.000 S 
ATOM     12  H   UNL     1       4.855   6.476  18.355  0.00  0.00    +0.000 HD
ENDBRANCH   2   9
ENDBRANCH   1   2
BRANCH   1  13
ATOM     13  C   UNL     1       8.277   8.874  18.116  0.00  0.00    +0.000 C 
BRANCH  13  14
ATOM     14  O   UNL     1       9.120   9.430  19.132  0.00  0.00    +0.000 OA
BRANCH  14  15
ATOM     15  C   UNL     1       9.393  10.769  19.052  0.00  0.00    +0.000 A 
ATOM     16  C   UNL     1       9.742  11.453  17.895  0.00  0.00    +0.000 A 
ATOM     17  C   UNL     1       9.990  12.812  17.991  0.00  0.00    +0.000 A 
ATOM     18  N   UNL     1       9.914  13.516  19.138  0.00  0.00    +0.000 NA
ATOM     19  C   UNL     1       9.570  12.841  20.271  0.00  0.00    +0.000 A 
ATOM     20  C   UNL     1       9.306  11.470  20.255  0.00  0.00    +0.000 A 
BRANCH  19  21
ATOM     21  C   UNL     1       9.473  13.602  21.585  0.00  0.00    +0.000 C 
ATOM     22  F   UNL     1      10.549  14.397  21.854  0.00  0.00    +0.000 F 
ATOM     23  F   UNL     1       8.385  14.426  21.635  0.00  0.00    +0.000 F 
ATOM     24  F   UNL     1       9.351  12.773  22.663  0.00  0.00    +0.000 F 
ENDBRANCH  19  21
ENDBRANCH  14  15
ENDBRANCH  13  14
ENDBRANCH   1  13
TORSDOF 6
ENDMDL
