MODEL 1
REMARK VINA RESULT:      -8.7      0.000      0.000
REMARK  Name = 
REMARK  4 active torsions:
REMARK  status: ('A' for Active; 'I' for Inactive)
REMARK    1  A    between atoms: C_2  and  C_3
REMARK    2  A    between atoms: C_3  and  C_4
REMARK    3  A    between atoms: C_4  and  N_5
REMARK    4  A    between atoms: N_15  and  C_16
REMARK                            x       y       z     vdW  Elec       q    Type
REMARK                         _______ _______ _______ _____ _____    ______ ____
ROOT
ATOM      1  O   UNL     1       8.252   7.014  18.694  0.00  0.00    +0.000 OA
ATOM      2  C   UNL     1       7.807   7.801  17.864  0.00  0.00    +0.000 C 
ATOM      3  N   UNL     1       6.893   7.493  16.861  0.00  0.00    +0.000 N 
ATOM      4  H   UNL     1       6.767   8.187  16.138  0.00  0.00    +0.000 HD
ENDROOT
BRANCH   3   5
ATOM      5  C   UNL     1       6.271   6.227  16.649  0.00  0.00    +0.000 A 
ATOM      6  C   UNL     1       6.947   5.217  15.948  0.00  0.00    +0.000 A 
ATOM      7  C   UNL     1       6.341   3.994  15.677  0.00  0.00    +0.000 A 
ATOM      8  C   UNL     1       5.049   3.750  16.117  0.00  0.00    +0.000 A 
ATOM      9  C   UNL     1       4.354   4.706  16.865  0.00  0.00    +0.000 A 
ATOM     10  C   UNL     1       3.060   4.403  17.317  0.00  0.00    +0.000 A 
ATOM     11  C   UNL     1       2.332   5.316  18.072  0.00  0.00    +0.000 A 
ATOM     12  C   UNL     1       2.891   6.547  18.376  0.00  0.00    +0.000 A 
ATOM     13  C   UNL     1       4.176   6.870  17.925  0.00  0.00    +0.000 A 
ATOM     14  C   UNL     1       4.955   5.963  17.156  0.00  0.00    +0.000 A 
ENDBRANCH   3   5
BRANCH   2  15
ATOM     15  C   UNL     1       8.228   9.261  17.869  0.00  0.00    +0.000 C 
BRANCH  15  16
ATOM     16  C   UNL     1       8.975   9.598  19.163  0.00  0.00    +0.000 C 
BRANCH  16  17
ATOM     17  N   UNL     1       9.537  10.952  19.112  0.00  0.00    +0.000 N 
ATOM     18  C   UNL     1      10.178  11.405  17.881  0.00  0.00    +0.000 C 
ATOM     19  C   UNL     1       9.531  12.690  17.395  0.00  0.00    +0.000 C 
ATOM     20  C   UNL     1       9.660  13.776  18.455  0.00  0.00    +0.000 C 
ATOM     21  C   UNL     1       9.391  13.268  19.850  0.00  0.00    +0.000 A 
ATOM     22  C   UNL     1       9.210  14.213  20.878  0.00  0.00    +0.000 A 
ATOM     23  C   UNL     1       8.988  13.803  22.188  0.00  0.00    +0.000 A 
ATOM     24  C   UNL     1       8.955  12.446  22.481  0.00  0.00    +0.000 A 
ATOM     25  C   UNL     1       9.131  11.504  21.462  0.00  0.00    +0.000 A 
ATOM     26  C   UNL     1       9.349  11.883  20.127  0.00  0.00    +0.000 A 
ENDBRANCH  16  17
ENDBRANCH  15  16
ENDBRANCH   2  15
TORSDOF 4
ENDMDL
MODEL 2
REMARK VINA RESULT:      -8.6      6.018      9.463
REMARK  Name = 
REMARK  4 active torsions:
REMARK  status: ('A' for Active; 'I' for Inactive)
REMARK    1  A    between atoms: C_2  and  C_3
REMARK    2  A    between atoms: C_3  and  C_4
REMARK    3  A    between atoms: C_4  and  N_5
REMARK    4  A    between atoms: N_15  and  C_16
REMARK                            x       y       z     vdW  Elec       q    Type
REMARK                         _______ _______ _______ _____ _____    ______ ____
ROOT
ATOM      1  O   UNL     1       2.127  10.642  17.588  0.00  0.00    +0.000 OA
ATOM      2  C   UNL     1       1.719   9.570  18.023  0.00  0.00    +0.000 C 
ATOM      3  N   UNL     1       0.535   9.377  18.728  0.00  0.00    +0.000 N 
ATOM      4  H   UNL     1       0.424   8.485  19.188  0.00  0.00    +0.000 HD
ENDROOT
BRANCH   3   5
ATOM      5  C   UNL     1      -0.439  10.377  19.027  0.00  0.00    +0.000 A 
ATOM      6  C   UNL     1      -0.264  11.224  20.131  0.00  0.00    +0.000 A 
ATOM      7  C   UNL     1      -1.226  12.167  20.480  0.00  0.00    +0.000 A 
ATOM      8  C   UNL     1      -2.378  12.294  19.718  0.00  0.00    +0.000 A 
ATOM      9  C   UNL     1      -2.571  11.508  18.577  0.00  0.00    +0.000 A 
ATOM     10  C   UNL     1      -3.738  11.694  17.818  0.00  0.00    +0.000 A 
ATOM     11  C   UNL     1      -3.974  10.943  16.671  0.00  0.00    +0.000 A 
ATOM     12  C   UNL     1      -3.045   9.994  16.275  0.00  0.00    +0.000 A 
ATOM     13  C   UNL     1      -1.880   9.789  17.026  0.00  0.00    +0.000 A 
ATOM     14  C   UNL     1      -1.601  10.539  18.201  0.00  0.00    +0.000 A 
ENDBRANCH   3   5
BRANCH   2  15
ATOM     15  C   UNL     1       2.505   8.289  17.804  0.00  0.00    +0.000 C 
BRANCH  15  16
ATOM     16  C   UNL     1       2.470   7.417  19.063  0.00  0.00    +0.000 C 
BRANCH  16  17
ATOM     17  N   UNL     1       3.106   6.116  18.824  0.00  0.00    +0.000 N 
ATOM     18  C   UNL     1       4.287   6.054  17.968  0.00  0.00    +0.000 C 
ATOM     19  C   UNL     1       5.440   5.403  18.711  0.00  0.00    +0.000 C 
ATOM     20  C   UNL     1       5.058   3.993  19.142  0.00  0.00    +0.000 C 
ATOM     21  C   UNL     1       3.653   3.907  19.688  0.00  0.00    +0.000 A 
ATOM     22  C   UNL     1       3.276   2.733  20.366  0.00  0.00    +0.000 A 
ATOM     23  C   UNL     1       1.987   2.585  20.866  0.00  0.00    +0.000 A 
ATOM     24  C   UNL     1       1.064   3.606  20.682  0.00  0.00    +0.000 A 
ATOM     25  C   UNL     1       1.437   4.776  20.012  0.00  0.00    +0.000 A 
ATOM     26  C   UNL     1       2.732   4.961  19.502  0.00  0.00    +0.000 A 
ENDBRANCH  16  17
ENDBRANCH  15  16
ENDBRANCH   2  15
TORSDOF 4
ENDMDL
MODEL 3
REMARK VINA RESULT:      -8.6      5.898      8.597
REMARK  Name = 
REMARK  4 active torsions:
REMARK  status: ('A' for Active; 'I' for Inactive)
REMARK    1  A    between atoms: C_2  and  C_3
REMARK    2  A    between atoms: C_3  and  C_4
REMARK    3  A    between atoms: C_4  and  N_5
REMARK    4  A    between atoms: N_15  and  C_16
REMARK                            x       y       z     vdW  Elec       q    Type
REMARK                         _______ _______ _______ _____ _____    ______ ____
ROOT
ATOM      1  O   UNL     1       2.237   9.006  17.310  0.00  0.00    +0.000 OA
ATOM      2  C   UNL     1       2.008   8.570  18.434  0.00  0.00    +0.000 C 
ATOM      3  N   UNL     1       2.361   7.309  18.905  0.00  0.00    +0.000 N 
ATOM      4  H   UNL     1       1.941   7.019  19.776  0.00  0.00    +0.000 HD
ENDROOT
BRANCH   3   5
ATOM      5  C   UNL     1       3.095   6.318  18.187  0.00  0.00    +0.000 A 
ATOM      6  C   UNL     1       4.226   6.681  17.440  0.00  0.00    +0.000 A 
ATOM      7  C   UNL     1       4.924   5.745  16.684  0.00  0.00    +0.000 A 
ATOM      8  C   UNL     1       4.515   4.420  16.672  0.00  0.00    +0.000 A 
ATOM      9  C   UNL     1       3.426   4.001  17.443  0.00  0.00    +0.000 A 
ATOM     10  C   UNL     1       3.067   2.644  17.426  0.00  0.00    +0.000 A 
ATOM     11  C   UNL     1       1.997   2.176  18.181  0.00  0.00    +0.000 A 
ATOM     12  C   UNL     1       1.271   3.064  18.957  0.00  0.00    +0.000 A 
ATOM     13  C   UNL     1       1.609   4.423  18.979  0.00  0.00    +0.000 A 
ATOM     14  C   UNL     1       2.698   4.940  18.226  0.00  0.00    +0.000 A 
ENDBRANCH   3   5
BRANCH   2  15
ATOM     15  C   UNL     1       1.294   9.422  19.471  0.00  0.00    +0.000 C 
BRANCH  15  16
ATOM     16  C   UNL     1       0.723  10.687  18.823  0.00  0.00    +0.000 C 
BRANCH  16  17
ATOM     17  N   UNL     1      -0.677  10.895  19.211  0.00  0.00    +0.000 N 
ATOM     18  C   UNL     1      -0.973  11.358  20.564  0.00  0.00    +0.000 C 
ATOM     19  C   UNL     1      -1.799  12.631  20.513  0.00  0.00    +0.000 C 
ATOM     20  C   UNL     1      -3.106  12.380  19.773  0.00  0.00    +0.000 C 
ATOM     21  C   UNL     1      -2.924  11.539  18.532  0.00  0.00    +0.000 A 
ATOM     22  C   UNL     1      -3.993  11.463  17.620  0.00  0.00    +0.000 A 
ATOM     23  C   UNL     1      -3.894  10.681  16.474  0.00  0.00    +0.000 A 
ATOM     24  C   UNL     1      -2.729   9.963  16.238  0.00  0.00    +0.000 A 
ATOM     25  C   UNL     1      -1.664  10.039  17.141  0.00  0.00    +0.000 A 
ATOM     26  C   UNL     1      -1.727  10.825  18.304  0.00  0.00    +0.000 A 
ENDBRANCH  16  17
ENDBRANCH  15  16
ENDBRANCH   2  15
TORSDOF 4
ENDMDL
MODEL 4
REMARK VINA RESULT:      -8.5      5.913      8.536
REMARK  Name = 
REMARK  4 active torsions:
REMARK  status: ('A' for Active; 'I' for Inactive)
REMARK    1  A    between atoms: C_2  and  C_3
REMARK    2  A    between atoms: C_3  and  C_4
REMARK    3  A    between atoms: C_4  and  N_5
REMARK    4  A    between atoms: N_15  and  C_16
REMARK                            x       y       z     vdW  Elec       q    Type
REMARK                         _______ _______ _______ _____ _____    ______ ____
ROOT
ATOM      1  O   UNL     1       0.640   4.524  19.912  0.00  0.00    +0.000 OA
ATOM      2  C   UNL     1       1.689   4.694  20.527  0.00  0.00    +0.000 C 
ATOM      3  N   UNL     1       2.478   5.840  20.486  0.00  0.00    +0.000 N 
ATOM      4  H   UNL     1       3.402   5.765  20.885  0.00  0.00    +0.000 HD
ENDROOT
BRANCH   3   5
ATOM      5  C   UNL     1       2.187   7.037  19.766  0.00  0.00    +0.000 A 
ATOM      6  C   UNL     1       2.620   7.186  18.440  0.00  0.00    +0.000 A 
ATOM      7  C   UNL     1       2.401   8.366  17.736  0.00  0.00    +0.000 A 
ATOM      8  C   UNL     1       1.727   9.417  18.339  0.00  0.00    +0.000 A 
ATOM      9  C   UNL     1       1.229   9.295  19.641  0.00  0.00    +0.000 A 
ATOM     10  C   UNL     1       0.525  10.373  20.199  0.00  0.00    +0.000 A 
ATOM     11  C   UNL     1       0.004  10.299  21.487  0.00  0.00    +0.000 A 
ATOM     12  C   UNL     1       0.188   9.145  22.230  0.00  0.00    +0.000 A 
ATOM     13  C   UNL     1       0.896   8.063  21.692  0.00  0.00    +0.000 A 
ATOM     14  C   UNL     1       1.440   8.098  20.379  0.00  0.00    +0.000 A 
ENDBRANCH   3   5
BRANCH   2  15
ATOM     15  C   UNL     1       2.237   3.617  21.447  0.00  0.00    +0.000 C 
BRANCH  15  16
ATOM     16  C   UNL     1       3.667   3.245  21.043  0.00  0.00    +0.000 C 
BRANCH  16  17
ATOM     17  N   UNL     1       3.758   2.979  19.603  0.00  0.00    +0.000 N 
ATOM     18  C   UNL     1       3.005   1.862  19.042  0.00  0.00    +0.000 C 
ATOM     19  C   UNL     1       2.101   2.348  17.922  0.00  0.00    +0.000 C 
ATOM     20  C   UNL     1       2.931   2.995  16.821  0.00  0.00    +0.000 C 
ATOM     21  C   UNL     1       4.025   3.886  17.359  0.00  0.00    +0.000 A 
ATOM     22  C   UNL     1       4.681   4.748  16.460  0.00  0.00    +0.000 A 
ATOM     23  C   UNL     1       5.716   5.570  16.893  0.00  0.00    +0.000 A 
ATOM     24  C   UNL     1       6.108   5.529  18.224  0.00  0.00    +0.000 A 
ATOM     25  C   UNL     1       5.455   4.676  19.121  0.00  0.00    +0.000 A 
ATOM     26  C   UNL     1       4.402   3.838  18.720  0.00  0.00    +0.000 A 
ENDBRANCH  16  17
ENDBRANCH  15  16
ENDBRANCH   2  15
TORSDOF 4
ENDMDL
MODEL 5
REMARK VINA RESULT:      -8.4      0.948      2.322
REMARK  Name = 
REMARK  4 active torsions:
REMARK  status: ('A' for Active; 'I' for Inactive)
REMARK    1  A    between atoms: C_2  and  C_3
REMARK    2  A    between atoms: C_3  and  C_4
REMARK    3  A    between atoms: C_4  and  N_5
REMARK    4  A    between atoms: N_15  and  C_16
REMARK                            x       y       z     vdW  Elec       q    Type
REMARK                         _______ _______ _______ _____ _____    ______ ____
ROOT
ATOM      1  O   UNL     1       8.446   7.265  18.761  0.00  0.00    +0.000 OA
ATOM      2  C   UNL     1       7.890   8.061  18.010  0.00  0.00    +0.000 C 
ATOM      3  N   UNL     1       6.909   7.746  17.074  0.00  0.00    +0.000 N 
ATOM      4  H   UNL     1       6.685   8.462  16.399  0.00  0.00    +0.000 HD
ENDROOT
BRANCH   3   5
ATOM      5  C   UNL     1       6.338   6.457  16.855  0.00  0.00    +0.000 A 
ATOM      6  C   UNL     1       7.085   5.453  16.221  0.00  0.00    +0.000 A 
ATOM      7  C   UNL     1       6.533   4.207  15.941  0.00  0.00    +0.000 A 
ATOM      8  C   UNL     1       5.224   3.932  16.308  0.00  0.00    +0.000 A 
ATOM      9  C   UNL     1       4.458   4.883  16.991  0.00  0.00    +0.000 A 
ATOM     10  C   UNL     1       3.148   4.550  17.371  0.00  0.00    +0.000 A 
ATOM     11  C   UNL     1       2.348   5.457  18.058  0.00  0.00    +0.000 A 
ATOM     12  C   UNL     1       2.851   6.710  18.367  0.00  0.00    +0.000 A 
ATOM     13  C   UNL     1       4.152   7.063  17.987  0.00  0.00    +0.000 A 
ATOM     14  C   UNL     1       5.002   6.163  17.288  0.00  0.00    +0.000 A 
ENDBRANCH   3   5
BRANCH   2  15
ATOM     15  C   UNL     1       8.232   9.540  18.050  0.00  0.00    +0.000 C 
BRANCH  15  16
ATOM     16  C   UNL     1       9.397   9.795  19.013  0.00  0.00    +0.000 C 
BRANCH  16  17
ATOM     17  N   UNL     1       9.427  11.196  19.448  0.00  0.00    +0.000 N 
ATOM     18  C   UNL     1       8.708  11.575  20.661  0.00  0.00    +0.000 C 
ATOM     19  C   UNL     1       9.652  12.250  21.640  0.00  0.00    +0.000 C 
ATOM     20  C   UNL     1      10.260  13.496  21.009  0.00  0.00    +0.000 C 
ATOM     21  C   UNL     1      10.675  13.282  19.574  0.00  0.00    +0.000 A 
ATOM     22  C   UNL     1      11.490  14.257  18.966  0.00  0.00    +0.000 A 
ATOM     23  C   UNL     1      11.881  14.127  17.638  0.00  0.00    +0.000 A 
ATOM     24  C   UNL     1      11.451  13.029  16.906  0.00  0.00    +0.000 A 
ATOM     25  C   UNL     1      10.645  12.057  17.507  0.00  0.00    +0.000 A 
ATOM     26  C   UNL     1      10.239  12.152  18.848  0.00  0.00    +0.000 A 
ENDBRANCH  16  17
ENDBRANCH  15  16
ENDBRANCH   2  15
TORSDOF 4
ENDMDL
MODEL 6
REMARK VINA RESULT:      -8.4      5.309      7.902
REMARK  Name = 
REMARK  4 active torsions:
REMARK  status: ('A' for Active; 'I' for Inactive)
REMARK    1  A    between atoms: C_2  and  C_3
REMARK    2  A    between atoms: C_3  and  C_4
REMARK    3  A    between atoms: C_4  and  N_5
REMARK    4  A    between atoms: N_15  and  C_16
REMARK                            x       y       z     vdW  Elec       q    Type
REMARK                         _______ _______ _______ _____ _____    ______ ____
ROOT
ATOM      1  O   UNL     1       1.893   5.199  18.179  0.00  0.00    +0.000 OA
ATOM      2  C   UNL     1       2.501   5.402  19.225  0.00  0.00    +0.000 C 
ATOM      3  N   UNL     1       2.633   6.632  19.862  0.00  0.00    +0.000 N 
ATOM      4  H   UNL     1       3.318   6.685  20.602  0.00  0.00    +0.000 HD
ENDROOT
BRANCH   3   5
ATOM      5  C   UNL     1       2.046   7.863  19.444  0.00  0.00    +0.000 A 
ATOM      6  C   UNL     1       2.212   8.313  18.126  0.00  0.00    +0.000 A 
ATOM      7  C   UNL     1       1.700   9.538  17.709  0.00  0.00    +0.000 A 
ATOM      8  C   UNL     1       0.994  10.332  18.600  0.00  0.00    +0.000 A 
ATOM      9  C   UNL     1       0.756   9.901  19.910  0.00  0.00    +0.000 A 
ATOM     10  C   UNL     1       0.009  10.723  20.768  0.00  0.00    +0.000 A 
ATOM     11  C   UNL     1      -0.261  10.337  22.076  0.00  0.00    +0.000 A 
ATOM     12  C   UNL     1       0.220   9.124  22.541  0.00  0.00    +0.000 A 
ATOM     13  C   UNL     1       0.975   8.295  21.702  0.00  0.00    +0.000 A 
ATOM     14  C   UNL     1       1.269   8.652  20.358  0.00  0.00    +0.000 A 
ENDBRANCH   3   5
BRANCH   2  15
ATOM     15  C   UNL     1       3.186   4.264  19.963  0.00  0.00    +0.000 C 
BRANCH  15  16
ATOM     16  C   UNL     1       4.247   3.610  19.072  0.00  0.00    +0.000 C 
BRANCH  16  17
ATOM     17  N   UNL     1       5.182   4.609  18.540  0.00  0.00    +0.000 N 
ATOM     18  C   UNL     1       5.833   5.529  19.468  0.00  0.00    +0.000 C 
ATOM     19  C   UNL     1       7.342   5.442  19.319  0.00  0.00    +0.000 C 
ATOM     20  C   UNL     1       7.751   5.793  17.894  0.00  0.00    +0.000 C 
ATOM     21  C   UNL     1       6.845   5.176  16.856  0.00  0.00    +0.000 A 
ATOM     22  C   UNL     1       7.266   5.195  15.513  0.00  0.00    +0.000 A 
ATOM     23  C   UNL     1       6.461   4.667  14.509  0.00  0.00    +0.000 A 
ATOM     24  C   UNL     1       5.226   4.126  14.841  0.00  0.00    +0.000 A 
ATOM     25  C   UNL     1       4.807   4.101  16.175  0.00  0.00    +0.000 A 
ATOM     26  C   UNL     1       5.598   4.619  17.214  0.00  0.00    +0.000 A 
ENDBRANCH  16  17
ENDBRANCH  15  16
ENDBRANCH   2  15
TORSDOF 4
ENDMDL
MODEL 7
REMARK VINA RESULT:      -8.4      5.832      9.542
REMARK  Name = 
REMARK  4 active torsions:
REMARK  status: ('A' for Active; 'I' for Inactive)
REMARK    1  A    between atoms: C_2  and  C_3
REMARK    2  A    between atoms: C_3  and  C_4
REMARK    3  A    between atoms: C_4  and  N_5
REMARK    4  A    between atoms: N_15  and  C_16
REMARK                            x       y       z     vdW  Elec       q    Type
REMARK                         _______ _______ _______ _____ _____    ______ ____
ROOT
ATOM      1  O   UNL     1       1.414   8.662  19.729  0.00  0.00    +0.000 OA
ATOM      2  C   UNL     1       1.597   9.029  18.572  0.00  0.00    +0.000 C 
ATOM      3  N   UNL     1       0.930  10.071  17.935  0.00  0.00    +0.000 N 
ATOM      4  H   UNL     1       1.043  10.132  16.934  0.00  0.00    +0.000 HD
ENDROOT
BRANCH   3   5
ATOM      5  C   UNL     1      -0.046  10.930  18.523  0.00  0.00    +0.000 A 
ATOM      6  C   UNL     1       0.337  11.883  19.478  0.00  0.00    +0.000 A 
ATOM      7  C   UNL     1      -0.602  12.692  20.110  0.00  0.00    +0.000 A 
ATOM      8  C   UNL     1      -1.946  12.577  19.785  0.00  0.00    +0.000 A 
ATOM      9  C   UNL     1      -2.369  11.678  18.800  0.00  0.00    +0.000 A 
ATOM     10  C   UNL     1      -3.735  11.618  18.481  0.00  0.00    +0.000 A 
ATOM     11  C   UNL     1      -4.205  10.747  17.504  0.00  0.00    +0.000 A 
ATOM     12  C   UNL     1      -3.312   9.923  16.839  0.00  0.00    +0.000 A 
ATOM     13  C   UNL     1      -1.947   9.963  17.151  0.00  0.00    +0.000 A 
ATOM     14  C   UNL     1      -1.426  10.842  18.140  0.00  0.00    +0.000 A 
ENDBRANCH   3   5
BRANCH   2  15
ATOM     15  C   UNL     1       2.635   8.351  17.694  0.00  0.00    +0.000 C 
BRANCH  15  16
ATOM     16  C   UNL     1       3.348   7.239  18.469  0.00  0.00    +0.000 C 
BRANCH  16  17
ATOM     17  N   UNL     1       3.663   6.103  17.594  0.00  0.00    +0.000 N 
ATOM     18  C   UNL     1       4.717   6.253  16.595  0.00  0.00    +0.000 C 
ATOM     19  C   UNL     1       5.768   5.172  16.775  0.00  0.00    +0.000 C 
ATOM     20  C   UNL     1       5.135   3.795  16.632  0.00  0.00    +0.000 C 
ATOM     21  C   UNL     1       3.803   3.687  17.333  0.00  0.00    +0.000 A 
ATOM     22  C   UNL     1       3.247   2.405  17.509  0.00  0.00    +0.000 A 
ATOM     23  C   UNL     1       2.010   2.246  18.123  0.00  0.00    +0.000 A 
ATOM     24  C   UNL     1       1.315   3.368  18.556  0.00  0.00    +0.000 A 
ATOM     25  C   UNL     1       1.866   4.643  18.386  0.00  0.00    +0.000 A 
ATOM     26  C   UNL     1       3.116   4.838  17.778  0.00  0.00    +0.000 A 
ENDBRANCH  16  17
ENDBRANCH  15  16
ENDBRANCH   2  15
TORSDOF 4
ENDMDL
MODEL 8
REMARK VINA RESULT:      -8.4      5.672      9.284
REMARK  Name = 
REMARK  4 active torsions:
REMARK  status: ('A' for Active; 'I' for Inactive)
REMARK    1  A    between atoms: C_2  and  C_3
REMARK    2  A    between atoms: C_3  and  C_4
REMARK    3  A    between atoms: C_4  and  N_5
REMARK    4  A    between atoms: N_15  and  C_16
REMARK                            x       y       z     vdW  Elec       q    Type
REMARK                         _______ _______ _______ _____ _____    ______ ____
ROOT
ATOM      1  O   UNL     1       2.206  10.548  17.523  0.00  0.00    +0.000 OA
ATOM      2  C   UNL     1       1.807   9.473  17.961  0.00  0.00    +0.000 C 
ATOM      3  N   UNL     1       0.651   9.281  18.710  0.00  0.00    +0.000 N 
ATOM      4  H   UNL     1       0.552   8.384  19.164  0.00  0.00    +0.000 HD
ENDROOT
BRANCH   3   5
ATOM      5  C   UNL     1      -0.303  10.283  19.059  0.00  0.00    +0.000 A 
ATOM      6  C   UNL     1      -0.091  11.100  20.180  0.00  0.00    +0.000 A 
ATOM      7  C   UNL     1      -1.032  12.044  20.576  0.00  0.00    +0.000 A 
ATOM      8  C   UNL     1      -2.201  12.204  19.847  0.00  0.00    +0.000 A 
ATOM      9  C   UNL     1      -2.432  11.451  18.691  0.00  0.00    +0.000 A 
ATOM     10  C   UNL     1      -3.614  11.670  17.966  0.00  0.00    +0.000 A 
ATOM     11  C   UNL     1      -3.888  10.952  16.807  0.00  0.00    +0.000 A 
ATOM     12  C   UNL     1      -2.981  10.003  16.364  0.00  0.00    +0.000 A 
ATOM     13  C   UNL     1      -1.800   9.765  17.080  0.00  0.00    +0.000 A 
ATOM     14  C   UNL     1      -1.483  10.480  18.266  0.00  0.00    +0.000 A 
ENDBRANCH   3   5
BRANCH   2  15
ATOM     15  C   UNL     1       2.575   8.189  17.696  0.00  0.00    +0.000 C 
BRANCH  15  16
ATOM     16  C   UNL     1       2.649   7.338  18.968  0.00  0.00    +0.000 C 
BRANCH  16  17
ATOM     17  N   UNL     1       2.932   5.934  18.649  0.00  0.00    +0.000 N 
ATOM     18  C   UNL     1       1.961   4.913  19.030  0.00  0.00    +0.000 C 
ATOM     19  C   UNL     1       1.542   4.107  17.812  0.00  0.00    +0.000 C 
ATOM     20  C   UNL     1       2.756   3.434  17.186  0.00  0.00    +0.000 C 
ATOM     21  C   UNL     1       3.962   4.340  17.123  0.00  0.00    +0.000 A 
ATOM     22  C   UNL     1       5.053   3.939  16.329  0.00  0.00    +0.000 A 
ATOM     23  C   UNL     1       6.201   4.720  16.255  0.00  0.00    +0.000 A 
ATOM     24  C   UNL     1       6.270   5.901  16.982  0.00  0.00    +0.000 A 
ATOM     25  C   UNL     1       5.186   6.305  17.768  0.00  0.00    +0.000 A 
ATOM     26  C   UNL     1       4.008   5.545  17.859  0.00  0.00    +0.000 A 
ENDBRANCH  16  17
ENDBRANCH  15  16
ENDBRANCH   2  15
TORSDOF 4
ENDMDL
MODEL 9
REMARK VINA RESULT:      -8.3      6.324      9.966
REMARK  Name = 
REMARK  4 active torsions:
REMARK  status: ('A' for Active; 'I' for Inactive)
REMARK    1  A    between atoms: C_2  and  C_3
REMARK    2  A    between atoms: C_3  and  C_4
REMARK    3  A    between atoms: C_4  and  N_5
REMARK    4  A    between atoms: N_15  and  C_16
REMARK                            x       y       z     vdW  Elec       q    Type
REMARK                         _______ _______ _______ _____ _____    ______ ____
ROOT
ATOM      1  O   UNL     1      -0.586   8.336  21.547  0.00  0.00    +0.000 OA
ATOM      2  C   UNL     1       0.342   8.817  20.904  0.00  0.00    +0.000 C 
ATOM      3  N   UNL     1       0.282   9.970  20.128  0.00  0.00    +0.000 N 
ATOM      4  H   UNL     1       1.059  10.137  19.506  0.00  0.00    +0.000 HD
ENDROOT
BRANCH   3   5
ATOM      5  C   UNL     1      -0.850  10.828  19.981  0.00  0.00    +0.000 A 
ATOM      6  C   UNL     1      -1.181  11.739  20.995  0.00  0.00    +0.000 A 
ATOM      7  C   UNL     1      -2.312  12.544  20.904  0.00  0.00    +0.000 A 
ATOM      8  C   UNL     1      -3.128  12.467  19.785  0.00  0.00    +0.000 A 
ATOM      9  C   UNL     1      -2.809  11.612  18.724  0.00  0.00    +0.000 A 
ATOM     10  C   UNL     1      -3.646  11.590  17.598  0.00  0.00    +0.000 A 
ATOM     11  C   UNL     1      -3.368  10.763  16.514  0.00  0.00    +0.000 A 
ATOM     12  C   UNL     1      -2.251   9.946  16.551  0.00  0.00    +0.000 A 
ATOM     13  C   UNL     1      -1.410   9.947  17.670  0.00  0.00    +0.000 A 
ATOM     14  C   UNL     1      -1.656  10.780  18.795  0.00  0.00    +0.000 A 
ENDBRANCH   3   5
BRANCH   2  15
ATOM     15  C   UNL     1       1.716   8.168  20.912  0.00  0.00    +0.000 C 
BRANCH  15  16
ATOM     16  C   UNL     1       2.039   7.582  19.535  0.00  0.00    +0.000 C 
BRANCH  16  17
ATOM     17  N   UNL     1       2.369   6.155  19.630  0.00  0.00    +0.000 N 
ATOM     18  C   UNL     1       1.812   5.374  20.731  0.00  0.00    +0.000 C 
ATOM     19  C   UNL     1       1.047   4.178  20.191  0.00  0.00    +0.000 C 
ATOM     20  C   UNL     1       1.972   3.293  19.366  0.00  0.00    +0.000 C 
ATOM     21  C   UNL     1       2.888   4.083  18.463  0.00  0.00    +0.000 A 
ATOM     22  C   UNL     1       3.591   3.389  17.460  0.00  0.00    +0.000 A 
ATOM     23  C   UNL     1       4.471   4.060  16.617  0.00  0.00    +0.000 A 
ATOM     24  C   UNL     1       4.661   5.426  16.778  0.00  0.00    +0.000 A 
ATOM     25  C   UNL     1       3.960   6.119  17.771  0.00  0.00    +0.000 A 
ATOM     26  C   UNL     1       3.059   5.474  18.634  0.00  0.00    +0.000 A 
ENDBRANCH  16  17
ENDBRANCH  15  16
ENDBRANCH   2  15
TORSDOF 4
ENDMDL
