MODEL 1
REMARK VINA RESULT:      -6.4      0.000      0.000
REMARK  Name = 
REMARK  3 active torsions:
REMARK  status: ('A' for Active; 'I' for Inactive)
REMARK    1  A    between atoms: C_2  and  C_3
REMARK    2  A    between atoms: C_3  and  C_4
REMARK    3  A    between atoms: C_4  and  C_5
REMARK                            x       y       z     vdW  Elec       q    Type
REMARK                         _______ _______ _______ _____ _____    ______ ____
ROOT
ATOM      1  O   UNL     1       1.784   5.382  20.718  0.00  0.00    +0.000 OA
ATOM      2  C   UNL     1       2.261   5.904  19.713  0.00  0.00    +0.000 C 
ATOM      3  N   UNL     1       2.189   7.271  19.486  0.00  0.00    +0.000 N 
ATOM      4  C   UNL     1       2.706   7.990  18.309  0.00  0.00    +0.000 C 
ATOM      5  C   UNL     1       1.661   8.975  17.764  0.00  0.00    +0.000 C 
ATOM      6  N   UNL     1       1.189   9.872  18.818  0.00  0.00    +0.000 N 
ATOM      7  C   UNL     1       1.426  11.207  18.728  0.00  0.00    +0.000 A 
ATOM      8  N   UNL     1       2.407  11.730  18.021  0.00  0.00    +0.000 NA
ATOM      9  C   UNL     1       2.390  13.108  18.107  0.00  0.00    +0.000 A 
ATOM     10  C   UNL     1       1.361  13.644  18.844  0.00  0.00    +0.000 A 
ATOM     11  S   UNL     1       0.399  12.385  19.480  0.00  0.00    +0.000 S 
ATOM     12  C   UNL     1       0.715   9.236  20.051  0.00  0.00    +0.000 C 
ATOM     13  C   UNL     1       1.705   8.158  20.552  0.00  0.00    +0.000 C 
ENDROOT
BRANCH   2  14
ATOM     14  C   UNL     1       3.035   5.070  18.703  0.00  0.00    +0.000 C 
BRANCH  14  15
ATOM     15  C   UNL     1       4.302   4.449  19.282  0.00  0.00    +0.000 C 
BRANCH  15  16
ATOM     16  C   UNL     1       5.416   4.542  18.277  0.00  0.00    +0.000 A 
ATOM     17  N   UNL     1       6.698   4.547  18.595  0.00  0.00    +0.000 NA
ATOM     18  C   UNL     1       7.464   4.595  17.445  0.00  0.00    +0.000 A 
ATOM     19  C   UNL     1       6.757   4.633  16.263  0.00  0.00    +0.000 A 
ATOM     20  S   UNL     1       5.077   4.601  16.594  0.00  0.00    +0.000 S 
ENDBRANCH  15  16
ENDBRANCH  14  15
ENDBRANCH   2  14
TORSDOF 3
ENDMDL
MODEL 2
REMARK VINA RESULT:      -6.4      4.869      7.321
REMARK  Name = 
REMARK  3 active torsions:
REMARK  status: ('A' for Active; 'I' for Inactive)
REMARK    1  A    between atoms: C_2  and  C_3
REMARK    2  A    between atoms: C_3  and  C_4
REMARK    3  A    between atoms: C_4  and  C_5
REMARK                            x       y       z     vdW  Elec       q    Type
REMARK                         _______ _______ _______ _____ _____    ______ ____
ROOT
ATOM      1  O   UNL     1       7.775   6.251  16.096  0.00  0.00    +0.000 OA
ATOM      2  C   UNL     1       7.323   6.467  17.218  0.00  0.00    +0.000 C 
ATOM      3  N   UNL     1       6.301   5.704  17.764  0.00  0.00    +0.000 N 
ATOM      4  C   UNL     1       5.676   5.893  19.084  0.00  0.00    +0.000 C 
ATOM      5  C   UNL     1       4.145   5.844  18.980  0.00  0.00    +0.000 C 
ATOM      6  N   UNL     1       3.706   4.620  18.312  0.00  0.00    +0.000 N 
ATOM      7  C   UNL     1       2.959   3.709  18.990  0.00  0.00    +0.000 A 
ATOM      8  N   UNL     1       2.955   3.598  20.303  0.00  0.00    +0.000 NA
ATOM      9  C   UNL     1       2.092   2.599  20.705  0.00  0.00    +0.000 A 
ATOM     10  C   UNL     1       1.395   1.974  19.698  0.00  0.00    +0.000 A 
ATOM     11  S   UNL     1       1.857   2.634  18.192  0.00  0.00    +0.000 S 
ATOM     12  C   UNL     1       4.328   4.324  17.018  0.00  0.00    +0.000 C 
ATOM     13  C   UNL     1       5.866   4.480  17.076  0.00  0.00    +0.000 C 
ENDROOT
BRANCH   2  14
ATOM     14  C   UNL     1       7.934   7.545  18.101  0.00  0.00    +0.000 C 
BRANCH  14  15
ATOM     15  C   UNL     1       7.847   8.941  17.494  0.00  0.00    +0.000 C 
BRANCH  15  16
ATOM     16  C   UNL     1       8.590   9.918  18.361  0.00  0.00    +0.000 A 
ATOM     17  N   UNL     1       9.136   9.607  19.523  0.00  0.00    +0.000 NA
ATOM     18  C   UNL     1       9.783  10.712  20.045  0.00  0.00    +0.000 A 
ATOM     19  C   UNL     1       9.717  11.855  19.279  0.00  0.00    +0.000 A 
ATOM     20  S   UNL     1       8.823  11.543  17.851  0.00  0.00    +0.000 S 
ENDBRANCH  15  16
ENDBRANCH  14  15
ENDBRANCH   2  14
TORSDOF 3
ENDMDL
MODEL 3
REMARK VINA RESULT:      -6.1      0.941      1.054
REMARK  Name = 
REMARK  3 active torsions:
REMARK  status: ('A' for Active; 'I' for Inactive)
REMARK    1  A    between atoms: C_2  and  C_3
REMARK    2  A    between atoms: C_3  and  C_4
REMARK    3  A    between atoms: C_4  and  C_5
REMARK                            x       y       z     vdW  Elec       q    Type
REMARK                         _______ _______ _______ _____ _____    ______ ____
ROOT
ATOM      1  O   UNL     1       1.860   5.440  20.571  0.00  0.00    +0.000 OA
ATOM      2  C   UNL     1       2.306   5.993  19.568  0.00  0.00    +0.000 C 
ATOM      3  N   UNL     1       2.226   7.366  19.384  0.00  0.00    +0.000 N 
ATOM      4  C   UNL     1       2.706   8.121  18.214  0.00  0.00    +0.000 C 
ATOM      5  C   UNL     1       1.645   9.121  17.732  0.00  0.00    +0.000 C 
ATOM      6  N   UNL     1       1.205   9.985  18.826  0.00  0.00    +0.000 N 
ATOM      7  C   UNL     1       1.438  11.322  18.769  0.00  0.00    +0.000 A 
ATOM      8  N   UNL     1       2.397  11.868  18.049  0.00  0.00    +0.000 NA
ATOM      9  C   UNL     1       2.382  13.242  18.177  0.00  0.00    +0.000 A 
ATOM     10  C   UNL     1       1.376  13.755  18.960  0.00  0.00    +0.000 A 
ATOM     11  S   UNL     1       0.434  12.476  19.587  0.00  0.00    +0.000 S 
ATOM     12  C   UNL     1       0.769   9.311  20.053  0.00  0.00    +0.000 C 
ATOM     13  C   UNL     1       1.774   8.220  20.491  0.00  0.00    +0.000 C 
ENDROOT
BRANCH   2  14
ATOM     14  C   UNL     1       3.049   5.191  18.510  0.00  0.00    +0.000 C 
BRANCH  14  15
ATOM     15  C   UNL     1       4.523   4.983  18.840  0.00  0.00    +0.000 C 
BRANCH  15  16
ATOM     16  C   UNL     1       5.298   4.750  17.572  0.00  0.00    +0.000 A 
ATOM     17  N   UNL     1       4.738   4.531  16.396  0.00  0.00    +0.000 NA
ATOM     18  C   UNL     1       5.719   4.403  15.430  0.00  0.00    +0.000 A 
ATOM     19  C   UNL     1       7.015   4.518  15.882  0.00  0.00    +0.000 A 
ATOM     20  S   UNL     1       7.015   4.804  17.571  0.00  0.00    +0.000 S 
ENDBRANCH  15  16
ENDBRANCH  14  15
ENDBRANCH   2  14
TORSDOF 3
ENDMDL
MODEL 4
REMARK VINA RESULT:      -6.1      2.985      4.294
REMARK  Name = 
REMARK  3 active torsions:
REMARK  status: ('A' for Active; 'I' for Inactive)
REMARK    1  A    between atoms: C_2  and  C_3
REMARK    2  A    between atoms: C_3  and  C_4
REMARK    3  A    between atoms: C_4  and  C_5
REMARK                            x       y       z     vdW  Elec       q    Type
REMARK                         _______ _______ _______ _____ _____    ______ ____
ROOT
ATOM      1  O   UNL     1       2.545   8.511  17.413  0.00  0.00    +0.000 OA
ATOM      2  C   UNL     1       2.224   8.132  18.537  0.00  0.00    +0.000 C 
ATOM      3  N   UNL     1       1.441   8.904  19.382  0.00  0.00    +0.000 N 
ATOM      4  C   UNL     1       1.021   8.554  20.750  0.00  0.00    +0.000 C 
ATOM      5  C   UNL     1       1.245   9.729  21.712  0.00  0.00    +0.000 C 
ATOM      6  N   UNL     1       0.602  10.944  21.212  0.00  0.00    +0.000 N 
ATOM      7  C   UNL     1      -0.412  11.511  21.916  0.00  0.00    +0.000 A 
ATOM      8  N   UNL     1      -1.171  10.852  22.768  0.00  0.00    +0.000 NA
ATOM      9  C   UNL     1      -2.105  11.692  23.341  0.00  0.00    +0.000 A 
ATOM     10  C   UNL     1      -2.030  13.011  22.961  0.00  0.00    +0.000 A 
ATOM     11  S   UNL     1      -0.771  13.206  21.824  0.00  0.00    +0.000 S 
ATOM     12  C   UNL     1       0.919  11.329  19.833  0.00  0.00    +0.000 C 
ATOM     13  C   UNL     1       0.808  10.126  18.867  0.00  0.00    +0.000 C 
ENDROOT
BRANCH   2  14
ATOM     14  C   UNL     1       2.610   6.742  19.022  0.00  0.00    +0.000 C 
BRANCH  14  15
ATOM     15  C   UNL     1       2.404   5.660  17.969  0.00  0.00    +0.000 C 
BRANCH  15  16
ATOM     16  C   UNL     1       1.987   4.378  18.635  0.00  0.00    +0.000 A 
ATOM     17  N   UNL     1       1.365   4.319  19.799  0.00  0.00    +0.000 NA
ATOM     18  C   UNL     1       1.082   3.002  20.110  0.00  0.00    +0.000 A 
ATOM     19  C   UNL     1       1.498   2.071  19.185  0.00  0.00    +0.000 A 
ATOM     20  S   UNL     1       2.265   2.863  17.873  0.00  0.00    +0.000 S 
ENDBRANCH  15  16
ENDBRANCH  14  15
ENDBRANCH   2  14
TORSDOF 3
ENDMDL
MODEL 5
REMARK VINA RESULT:      -6.0      2.968      3.977
REMARK  Name = 
REMARK  3 active torsions:
REMARK  status: ('A' for Active; 'I' for Inactive)
REMARK    1  A    between atoms: C_2  and  C_3
REMARK    2  A    between atoms: C_3  and  C_4
REMARK    3  A    between atoms: C_4  and  C_5
REMARK                            x       y       z     vdW  Elec       q    Type
REMARK                         _______ _______ _______ _____ _____    ______ ____
ROOT
ATOM      1  O   UNL     1       2.575   8.539  17.353  0.00  0.00    +0.000 OA
ATOM      2  C   UNL     1       2.229   8.127  18.458  0.00  0.00    +0.000 C 
ATOM      3  N   UNL     1       1.457   8.889  19.323  0.00  0.00    +0.000 N 
ATOM      4  C   UNL     1       1.010   8.498  20.671  0.00  0.00    +0.000 C 
ATOM      5  C   UNL     1       1.255   9.629  21.680  0.00  0.00    +0.000 C 
ATOM      6  N   UNL     1       0.654  10.880  21.220  0.00  0.00    +0.000 N 
ATOM      7  C   UNL     1      -0.353  11.450  21.933  0.00  0.00    +0.000 A 
ATOM      8  N   UNL     1      -1.141  10.781  22.750  0.00  0.00    +0.000 NA
ATOM      9  C   UNL     1      -2.057  11.625  23.344  0.00  0.00    +0.000 A 
ATOM     10  C   UNL     1      -1.940  12.955  23.017  0.00  0.00    +0.000 A 
ATOM     11  S   UNL     1      -0.661  13.156  21.904  0.00  0.00    +0.000 S 
ATOM     12  C   UNL     1       0.999  11.308  19.861  0.00  0.00    +0.000 C 
ATOM     13  C   UNL     1       0.866  10.147  18.848  0.00  0.00    +0.000 C 
ENDROOT
BRANCH   2  14
ATOM     14  C   UNL     1       2.568   6.709  18.893  0.00  0.00    +0.000 C 
BRANCH  14  15
ATOM     15  C   UNL     1       3.194   5.873  17.781  0.00  0.00    +0.000 C 
BRANCH  15  16
ATOM     16  C   UNL     1       2.993   4.411  18.073  0.00  0.00    +0.000 A 
ATOM     17  N   UNL     1       2.194   3.623  17.376  0.00  0.00    +0.000 NA
ATOM     18  C   UNL     1       2.269   2.333  17.867  0.00  0.00    +0.000 A 
ATOM     19  C   UNL     1       3.117   2.153  18.937  0.00  0.00    +0.000 A 
ATOM     20  S   UNL     1       3.856   3.644  19.345  0.00  0.00    +0.000 S 
ENDBRANCH  15  16
ENDBRANCH  14  15
ENDBRANCH   2  14
TORSDOF 3
ENDMDL
MODEL 6
REMARK VINA RESULT:      -6.0      2.465      2.805
REMARK  Name = 
REMARK  3 active torsions:
REMARK  status: ('A' for Active; 'I' for Inactive)
REMARK    1  A    between atoms: C_2  and  C_3
REMARK    2  A    between atoms: C_3  and  C_4
REMARK    3  A    between atoms: C_4  and  C_5
REMARK                            x       y       z     vdW  Elec       q    Type
REMARK                         _______ _______ _______ _____ _____    ______ ____
ROOT
ATOM      1  O   UNL     1       2.268   5.994  20.211  0.00  0.00    +0.000 OA
ATOM      2  C   UNL     1       2.202   7.034  19.561  0.00  0.00    +0.000 C 
ATOM      3  N   UNL     1       1.651   8.196  20.080  0.00  0.00    +0.000 N 
ATOM      4  C   UNL     1       1.505   9.484  19.380  0.00  0.00    +0.000 C 
ATOM      5  C   UNL     1       0.094  10.058  19.575  0.00  0.00    +0.000 C 
ATOM      6  N   UNL     1      -0.246  10.139  20.995  0.00  0.00    +0.000 N 
ATOM      7  C   UNL     1      -0.465  11.351  21.570  0.00  0.00    +0.000 A 
ATOM      8  N   UNL     1       0.019  12.483  21.101  0.00  0.00    +0.000 NA
ATOM      9  C   UNL     1      -0.382  13.547  21.884  0.00  0.00    +0.000 A 
ATOM     10  C   UNL     1      -1.217  13.234  22.930  0.00  0.00    +0.000 A 
ATOM     11  S   UNL     1      -1.486  11.548  22.959  0.00  0.00    +0.000 S 
ATOM     12  C   UNL     1      -0.067   8.914  21.779  0.00  0.00    +0.000 C 
ATOM     13  C   UNL     1       1.309   8.260  21.508  0.00  0.00    +0.000 C 
ENDROOT
BRANCH   2  14
ATOM     14  C   UNL     1       2.808   7.113  18.167  0.00  0.00    +0.000 C 
BRANCH  14  15
ATOM     15  C   UNL     1       3.544   5.841  17.759  0.00  0.00    +0.000 C 
BRANCH  15  16
ATOM     16  C   UNL     1       5.028   6.067  17.839  0.00  0.00    +0.000 A 
ATOM     17  N   UNL     1       5.687   6.918  17.073  0.00  0.00    +0.000 NA
ATOM     18  C   UNL     1       7.024   6.924  17.426  0.00  0.00    +0.000 A 
ATOM     19  C   UNL     1       7.370   6.073  18.452  0.00  0.00    +0.000 A 
ATOM     20  S   UNL     1       5.980   5.238  19.005  0.00  0.00    +0.000 S 
ENDBRANCH  15  16
ENDBRANCH  14  15
ENDBRANCH   2  14
TORSDOF 3
ENDMDL
MODEL 7
REMARK VINA RESULT:      -6.0      2.726      3.456
REMARK  Name = 
REMARK  3 active torsions:
REMARK  status: ('A' for Active; 'I' for Inactive)
REMARK    1  A    between atoms: C_2  and  C_3
REMARK    2  A    between atoms: C_3  and  C_4
REMARK    3  A    between atoms: C_4  and  C_5
REMARK                            x       y       z     vdW  Elec       q    Type
REMARK                         _______ _______ _______ _____ _____    ______ ____
ROOT
ATOM      1  O   UNL     1       2.590   8.531  17.379  0.00  0.00    +0.000 OA
ATOM      2  C   UNL     1       2.245   8.125  18.487  0.00  0.00    +0.000 C 
ATOM      3  N   UNL     1       1.472   8.891  19.347  0.00  0.00    +0.000 N 
ATOM      4  C   UNL     1       1.025   8.509  20.697  0.00  0.00    +0.000 C 
ATOM      5  C   UNL     1       1.268   9.647  21.699  0.00  0.00    +0.000 C 
ATOM      6  N   UNL     1       0.665  10.894  21.231  0.00  0.00    +0.000 N 
ATOM      7  C   UNL     1      -0.343  11.466  21.940  0.00  0.00    +0.000 A 
ATOM      8  N   UNL     1      -1.130  10.801  22.762  0.00  0.00    +0.000 NA
ATOM      9  C   UNL     1      -2.048  11.647  23.350  0.00  0.00    +0.000 A 
ATOM     10  C   UNL     1      -1.934  12.975  23.014  0.00  0.00    +0.000 A 
ATOM     11  S   UNL     1      -0.655  13.172  21.899  0.00  0.00    +0.000 S 
ATOM     12  C   UNL     1       1.009  11.313  19.869  0.00  0.00    +0.000 C 
ATOM     13  C   UNL     1       0.878  10.146  18.863  0.00  0.00    +0.000 C 
ENDROOT
BRANCH   2  14
ATOM     14  C   UNL     1       2.587   6.711  18.931  0.00  0.00    +0.000 C 
BRANCH  14  15
ATOM     15  C   UNL     1       3.333   5.911  17.869  0.00  0.00    +0.000 C 
BRANCH  15  16
ATOM     16  C   UNL     1       4.804   5.902  18.182  0.00  0.00    +0.000 A 
ATOM     17  N   UNL     1       5.327   5.326  19.250  0.00  0.00    +0.000 NA
ATOM     18  C   UNL     1       6.704   5.454  19.220  0.00  0.00    +0.000 A 
ATOM     19  C   UNL     1       7.214   6.132  18.135  0.00  0.00    +0.000 A 
ATOM     20  S   UNL     1       5.934   6.623  17.107  0.00  0.00    +0.000 S 
ENDBRANCH  15  16
ENDBRANCH  14  15
ENDBRANCH   2  14
TORSDOF 3
ENDMDL
MODEL 8
REMARK VINA RESULT:      -5.9      2.469      2.883
REMARK  Name = 
REMARK  3 active torsions:
REMARK  status: ('A' for Active; 'I' for Inactive)
REMARK    1  A    between atoms: C_2  and  C_3
REMARK    2  A    between atoms: C_3  and  C_4
REMARK    3  A    between atoms: C_4  and  C_5
REMARK                            x       y       z     vdW  Elec       q    Type
REMARK                         _______ _______ _______ _____ _____    ______ ____
ROOT
ATOM      1  O   UNL     1       2.333   6.088  19.991  0.00  0.00    +0.000 OA
ATOM      2  C   UNL     1       2.142   7.109  19.334  0.00  0.00    +0.000 C 
ATOM      3  N   UNL     1       1.595   8.255  19.891  0.00  0.00    +0.000 N 
ATOM      4  C   UNL     1       1.306   9.517  19.189  0.00  0.00    +0.000 C 
ATOM      5  C   UNL     1      -0.101  10.028  19.533  0.00  0.00    +0.000 C 
ATOM      6  N   UNL     1      -0.281  10.126  20.980  0.00  0.00    +0.000 N 
ATOM      7  C   UNL     1      -0.495  11.339  21.555  0.00  0.00    +0.000 A 
ATOM      8  N   UNL     1      -0.125  12.482  21.012  0.00  0.00    +0.000 NA
ATOM      9  C   UNL     1      -0.488  13.544  21.816  0.00  0.00    +0.000 A 
ATOM     10  C   UNL     1      -1.182  13.216  22.956  0.00  0.00    +0.000 A 
ATOM     11  S   UNL     1      -1.361  11.521  23.046  0.00  0.00    +0.000 S 
ATOM     12  C   UNL     1       0.046   8.930  21.761  0.00  0.00    +0.000 C 
ATOM     13  C   UNL     1       1.413   8.336  21.347  0.00  0.00    +0.000 C 
ENDROOT
BRANCH   2  14
ATOM     14  C   UNL     1       2.581   7.183  17.879  0.00  0.00    +0.000 C 
BRANCH  14  15
ATOM     15  C   UNL     1       4.087   7.360  17.715  0.00  0.00    +0.000 C 
BRANCH  15  16
ATOM     16  C   UNL     1       4.630   6.277  16.825  0.00  0.00    +0.000 A 
ATOM     17  N   UNL     1       5.305   6.506  15.712  0.00  0.00    +0.000 NA
ATOM     18  C   UNL     1       5.704   5.305  15.154  0.00  0.00    +0.000 A 
ATOM     19  C   UNL     1       5.322   4.175  15.842  0.00  0.00    +0.000 A 
ATOM     20  S   UNL     1       4.440   4.621  17.242  0.00  0.00    +0.000 S 
ENDBRANCH  15  16
ENDBRANCH  14  15
ENDBRANCH   2  14
TORSDOF 3
ENDMDL
MODEL 9
REMARK VINA RESULT:      -5.9      1.456      1.556
REMARK  Name = 
REMARK  3 active torsions:
REMARK  status: ('A' for Active; 'I' for Inactive)
REMARK    1  A    between atoms: C_2  and  C_3
REMARK    2  A    between atoms: C_3  and  C_4
REMARK    3  A    between atoms: C_4  and  C_5
REMARK                            x       y       z     vdW  Elec       q    Type
REMARK                         _______ _______ _______ _____ _____    ______ ____
ROOT
ATOM      1  O   UNL     1       2.334   5.327  20.070  0.00  0.00    +0.000 OA
ATOM      2  C   UNL     1       2.550   6.079  19.122  0.00  0.00    +0.000 C 
ATOM      3  N   UNL     1       2.283   7.439  19.182  0.00  0.00    +0.000 N 
ATOM      4  C   UNL     1       2.483   8.418  18.101  0.00  0.00    +0.000 C 
ATOM      5  C   UNL     1       1.251   9.320  17.939  0.00  0.00    +0.000 C 
ATOM      6  N   UNL     1       0.888   9.942  19.212  0.00  0.00    +0.000 N 
ATOM      7  C   UNL     1       0.952  11.293  19.348  0.00  0.00    +0.000 A 
ATOM      8  N   UNL     1       1.717  12.068  18.605  0.00  0.00    +0.000 NA
ATOM      9  C   UNL     1       1.561  13.392  18.961  0.00  0.00    +0.000 A 
ATOM     10  C   UNL     1       0.636  13.638  19.948  0.00  0.00    +0.000 A 
ATOM     11  S   UNL     1      -0.040  12.161  20.475  0.00  0.00    +0.000 S 
ATOM     12  C   UNL     1       0.731   9.040  20.357  0.00  0.00    +0.000 C 
ATOM     13  C   UNL     1       1.913   8.048  20.467  0.00  0.00    +0.000 C 
ENDROOT
BRANCH   2  14
ATOM     14  C   UNL     1       3.208   5.554  17.855  0.00  0.00    +0.000 C 
BRANCH  14  15
ATOM     15  C   UNL     1       4.490   4.773  18.123  0.00  0.00    +0.000 C 
BRANCH  15  16
ATOM     16  C   UNL     1       5.676   5.688  17.994  0.00  0.00    +0.000 A 
ATOM     17  N   UNL     1       5.733   6.709  17.157  0.00  0.00    +0.000 NA
ATOM     18  C   UNL     1       6.934   7.375  17.314  0.00  0.00    +0.000 A 
ATOM     19  C   UNL     1       7.783   6.850  18.263  0.00  0.00    +0.000 A 
ATOM     20  S   UNL     1       7.058   5.480  18.993  0.00  0.00    +0.000 S 
ENDBRANCH  15  16
ENDBRANCH  14  15
ENDBRANCH   2  14
TORSDOF 3
ENDMDL
