MODEL 1
REMARK VINA RESULT:      -7.2      0.000      0.000
REMARK  Name = 
REMARK  7 active torsions:
REMARK  status: ('A' for Active; 'I' for Inactive)
REMARK    1  A    between atoms: C_1  and  O_2
REMARK    2  A    between atoms: O_2  and  C_3
REMARK    3  A    between atoms: C_6  and  C_7
REMARK    4  A    between atoms: C_7  and  N_8
REMARK    5  A    between atoms: N_8  and  C_9
REMARK    6  A    between atoms: C_13  and  O_14
REMARK    7  A    between atoms: C_18  and  C_19
REMARK                            x       y       z     vdW  Elec       q    Type
REMARK                         _______ _______ _______ _____ _____    ______ ____
ROOT
ATOM      1  C   UNL     1       4.106   4.789  17.801  0.00  0.00    +0.000 A 
ATOM      2  C   UNL     1       3.968   3.572  18.511  0.00  0.00    +0.000 A 
ATOM      3  C   UNL     1       3.190   3.546  19.670  0.00  0.00    +0.000 A 
ATOM      4  N   UNL     1       2.833   2.541  20.531  0.00  0.00    +0.000 N 
ATOM      5  C   UNL     1       1.986   3.075  21.462  0.00  0.00    +0.000 A 
ATOM      6  N   UNL     1       1.821   4.362  21.292  0.00  0.00    +0.000 NA
ATOM      7  C   UNL     1       2.551   4.669  20.171  0.00  0.00    +0.000 A 
ATOM      8  C   UNL     1       2.699   5.884  19.491  0.00  0.00    +0.000 A 
ATOM      9  C   UNL     1       3.454   5.943  18.289  0.00  0.00    +0.000 A 
ATOM     10  C   UNL     1       3.456   7.274  17.585  0.00  0.00    +0.000 C 
ATOM     11  H   UNL     1       3.121   1.577  20.461  0.00  0.00    +0.000 HD
ENDROOT
BRANCH   1  12
ATOM     12  N   UNL     1       4.716   4.641  16.549  0.00  0.00    +0.000 N 
ATOM     13  H   UNL     1       4.350   5.355  15.922  0.00  0.00    +0.000 HD
BRANCH  12  14
ATOM     14  C   UNL     1       6.148   4.478  16.362  0.00  0.00    +0.000 C 
BRANCH  14  18
ATOM     15  C   UNL     1       8.220   7.626  18.499  0.00  0.00    +0.000 A 
ATOM     16  C   UNL     1       7.591   7.887  17.281  0.00  0.00    +0.000 A 
ATOM     17  C   UNL     1       6.912   6.873  16.604  0.00  0.00    +0.000 A 
ATOM     18  C   UNL     1       6.860   5.573  17.129  0.00  0.00    +0.000 A 
ATOM     19  C   UNL     1       7.521   5.309  18.336  0.00  0.00    +0.000 A 
ATOM     20  C   UNL     1       8.195   6.331  19.021  0.00  0.00    +0.000 A 
BRANCH  15  22
ATOM     21  C   UNL     1       8.764   9.923  18.342  0.00  0.00    +0.000 C 
ATOM     22  O   UNL     1       8.858   8.698  19.058  0.00  0.00    +0.000 OA
ENDBRANCH  15  22
ENDBRANCH  14  18
ENDBRANCH  12  14
ENDBRANCH   1  12
BRANCH   5  23
ATOM     23  O   UNL     1       1.386   2.386  22.416  0.00  0.00    +0.000 OA
ATOM     24  H   UNL     1       1.681   2.714  23.278  0.00  0.00    +0.000 HD
ENDBRANCH   5  23
TORSDOF 5
ENDMDL
MODEL 2
REMARK VINA RESULT:      -7.1      0.125      1.059
REMARK  Name = 
REMARK  7 active torsions:
REMARK  status: ('A' for Active; 'I' for Inactive)
REMARK    1  A    between atoms: C_1  and  O_2
REMARK    2  A    between atoms: O_2  and  C_3
REMARK    3  A    between atoms: C_6  and  C_7
REMARK    4  A    between atoms: C_7  and  N_8
REMARK    5  A    between atoms: N_8  and  C_9
REMARK    6  A    between atoms: C_13  and  O_14
REMARK    7  A    between atoms: C_18  and  C_19
REMARK                            x       y       z     vdW  Elec       q    Type
REMARK                         _______ _______ _______ _____ _____    ______ ____
ROOT
ATOM      1  C   UNL     1       4.210   4.696  17.820  0.00  0.00    +0.000 A 
ATOM      2  C   UNL     1       4.061   3.491  18.549  0.00  0.00    +0.000 A 
ATOM      3  C   UNL     1       3.266   3.485  19.696  0.00  0.00    +0.000 A 
ATOM      4  N   UNL     1       2.898   2.495  20.569  0.00  0.00    +0.000 N 
ATOM      5  C   UNL     1       2.038   3.045  21.479  0.00  0.00    +0.000 A 
ATOM      6  N   UNL     1       1.874   4.328  21.284  0.00  0.00    +0.000 NA
ATOM      7  C   UNL     1       2.620   4.616  20.168  0.00  0.00    +0.000 A 
ATOM      8  C   UNL     1       2.776   5.819  19.468  0.00  0.00    +0.000 A 
ATOM      9  C   UNL     1       3.549   5.857  18.277  0.00  0.00    +0.000 A 
ATOM     10  C   UNL     1       3.561   7.175  17.550  0.00  0.00    +0.000 C 
ATOM     11  H   UNL     1       3.188   1.531  20.521  0.00  0.00    +0.000 HD
ENDROOT
BRANCH   1  12
ATOM     12  N   UNL     1       4.838   4.526  16.579  0.00  0.00    +0.000 N 
ATOM     13  H   UNL     1       4.477   5.225  15.933  0.00  0.00    +0.000 HD
BRANCH  12  14
ATOM     14  C   UNL     1       6.273   4.366  16.415  0.00  0.00    +0.000 C 
BRANCH  14  18
ATOM     15  C   UNL     1       8.217   7.676  18.423  0.00  0.00    +0.000 A 
ATOM     16  C   UNL     1       8.215   6.402  18.991  0.00  0.00    +0.000 A 
ATOM     17  C   UNL     1       7.601   5.335  18.333  0.00  0.00    +0.000 A 
ATOM     18  C   UNL     1       6.966   5.529  17.097  0.00  0.00    +0.000 A 
ATOM     19  C   UNL     1       6.943   6.817  16.547  0.00  0.00    +0.000 A 
ATOM     20  C   UNL     1       7.570   7.886  17.204  0.00  0.00    +0.000 A 
BRANCH  15  22
ATOM     21  C   UNL     1       8.921   9.929  18.581  0.00  0.00    +0.000 C 
ATOM     22  O   UNL     1       8.843   8.637  19.169  0.00  0.00    +0.000 OA
ENDBRANCH  15  22
ENDBRANCH  14  18
ENDBRANCH  12  14
ENDBRANCH   1  12
BRANCH   5  23
ATOM     23  O   UNL     1       1.424   2.372  22.437  0.00  0.00    +0.000 OA
ATOM     24  H   UNL     1       1.485   1.424  22.247  0.00  0.00    +0.000 HD
ENDBRANCH   5  23
TORSDOF 5
ENDMDL
MODEL 3
REMARK VINA RESULT:      -7.0      2.988      6.363
REMARK  Name = 
REMARK  7 active torsions:
REMARK  status: ('A' for Active; 'I' for Inactive)
REMARK    1  A    between atoms: C_1  and  O_2
REMARK    2  A    between atoms: O_2  and  C_3
REMARK    3  A    between atoms: C_6  and  C_7
REMARK    4  A    between atoms: C_7  and  N_8
REMARK    5  A    between atoms: N_8  and  C_9
REMARK    6  A    between atoms: C_13  and  O_14
REMARK    7  A    between atoms: C_18  and  C_19
REMARK                            x       y       z     vdW  Elec       q    Type
REMARK                         _______ _______ _______ _____ _____    ______ ____
ROOT
ATOM      1  C   UNL     1       5.336   4.097  17.614  0.00  0.00    +0.000 A 
ATOM      2  C   UNL     1       5.126   3.678  16.277  0.00  0.00    +0.000 A 
ATOM      3  C   UNL     1       5.950   4.184  15.270  0.00  0.00    +0.000 A 
ATOM      4  N   UNL     1       6.028   3.944  13.923  0.00  0.00    +0.000 N 
ATOM      5  C   UNL     1       7.081   4.668  13.435  0.00  0.00    +0.000 A 
ATOM      6  N   UNL     1       7.646   5.396  14.363  0.00  0.00    +0.000 NA
ATOM      7  C   UNL     1       6.964   5.095  15.515  0.00  0.00    +0.000 A 
ATOM      8  C   UNL     1       7.167   5.534  16.830  0.00  0.00    +0.000 A 
ATOM      9  C   UNL     1       6.372   5.017  17.887  0.00  0.00    +0.000 A 
ATOM     10  C   UNL     1       6.747   5.477  19.271  0.00  0.00    +0.000 C 
ATOM     11  H   UNL     1       5.433   3.320  13.401  0.00  0.00    +0.000 HD
ENDROOT
BRANCH   1  12
ATOM     12  N   UNL     1       4.605   3.359  18.553  0.00  0.00    +0.000 N 
ATOM     13  H   UNL     1       5.043   3.468  19.466  0.00  0.00    +0.000 HD
BRANCH  12  14
ATOM     14  C   UNL     1       3.156   3.406  18.669  0.00  0.00    +0.000 C 
BRANCH  14  18
ATOM     15  C   UNL     1       1.936   7.421  19.746  0.00  0.00    +0.000 A 
ATOM     16  C   UNL     1       1.861   6.382  20.674  0.00  0.00    +0.000 A 
ATOM     17  C   UNL     1       2.271   5.093  20.327  0.00  0.00    +0.000 A 
ATOM     18  C   UNL     1       2.751   4.819  19.038  0.00  0.00    +0.000 A 
ATOM     19  C   UNL     1       2.793   5.859  18.101  0.00  0.00    +0.000 A 
ATOM     20  C   UNL     1       2.392   7.156  18.453  0.00  0.00    +0.000 A 
BRANCH  15  22
ATOM     21  C   UNL     1       1.121   9.576  19.209  0.00  0.00    +0.000 C 
ATOM     22  O   UNL     1       1.498   8.633  20.204  0.00  0.00    +0.000 OA
ENDBRANCH  15  22
ENDBRANCH  14  18
ENDBRANCH  12  14
ENDBRANCH   1  12
BRANCH   5  23
ATOM     23  O   UNL     1       7.501   4.634  12.182  0.00  0.00    +0.000 OA
ATOM     24  H   UNL     1       7.131   3.854  11.745  0.00  0.00    +0.000 HD
ENDBRANCH   5  23
TORSDOF 5
ENDMDL
MODEL 4
REMARK VINA RESULT:      -6.9      2.999      6.354
REMARK  Name = 
REMARK  7 active torsions:
REMARK  status: ('A' for Active; 'I' for Inactive)
REMARK    1  A    between atoms: C_1  and  O_2
REMARK    2  A    between atoms: O_2  and  C_3
REMARK    3  A    between atoms: C_6  and  C_7
REMARK    4  A    between atoms: C_7  and  N_8
REMARK    5  A    between atoms: N_8  and  C_9
REMARK    6  A    between atoms: C_13  and  O_14
REMARK    7  A    between atoms: C_18  and  C_19
REMARK                            x       y       z     vdW  Elec       q    Type
REMARK                         _______ _______ _______ _____ _____    ______ ____
ROOT
ATOM      1  C   UNL     1       5.166   4.191  17.607  0.00  0.00    +0.000 A 
ATOM      2  C   UNL     1       4.968   3.826  16.253  0.00  0.00    +0.000 A 
ATOM      3  C   UNL     1       5.864   4.289  15.287  0.00  0.00    +0.000 A 
ATOM      4  N   UNL     1       5.967   4.080  13.936  0.00  0.00    +0.000 N 
ATOM      5  C   UNL     1       7.092   4.726  13.503  0.00  0.00    +0.000 A 
ATOM      6  N   UNL     1       7.683   5.380  14.470  0.00  0.00    +0.000 NA
ATOM      7  C   UNL     1       6.940   5.106  15.591  0.00  0.00    +0.000 A 
ATOM      8  C   UNL     1       7.134   5.492  16.923  0.00  0.00    +0.000 A 
ATOM      9  C   UNL     1       6.265   5.014  17.939  0.00  0.00    +0.000 A 
ATOM     10  C   UNL     1       6.630   5.404  19.347  0.00  0.00    +0.000 C 
ATOM     11  H   UNL     1       5.341   3.521  13.378  0.00  0.00    +0.000 HD
ENDROOT
BRANCH   1  12
ATOM     12  N   UNL     1       4.346   3.491  18.501  0.00  0.00    +0.000 N 
ATOM     13  H   UNL     1       4.718   3.605  19.442  0.00  0.00    +0.000 HD
BRANCH  12  14
ATOM     14  C   UNL     1       2.895   3.580  18.507  0.00  0.00    +0.000 C 
BRANCH  14  18
ATOM     15  C   UNL     1       1.833   7.489  20.045  0.00  0.00    +0.000 A 
ATOM     16  C   UNL     1       2.343   7.347  18.754  0.00  0.00    +0.000 A 
ATOM     17  C   UNL     1       2.669   6.084  18.257  0.00  0.00    +0.000 A 
ATOM     18  C   UNL     1       2.502   4.939  19.051  0.00  0.00    +0.000 A 
ATOM     19  C   UNL     1       2.020   5.091  20.358  0.00  0.00    +0.000 A 
ATOM     20  C   UNL     1       1.682   6.360  20.852  0.00  0.00    +0.000 A 
BRANCH  15  22
ATOM     21  C   UNL     1       1.154   8.962  21.767  0.00  0.00    +0.000 C 
ATOM     22  O   UNL     1       1.562   8.776  20.417  0.00  0.00    +0.000 OA
ENDBRANCH  15  22
ENDBRANCH  14  18
ENDBRANCH  12  14
ENDBRANCH   1  12
BRANCH   5  23
ATOM     23  O   UNL     1       7.550   4.691  12.264  0.00  0.00    +0.000 OA
ATOM     24  H   UNL     1       7.190   3.913  11.815  0.00  0.00    +0.000 HD
ENDBRANCH   5  23
TORSDOF 5
ENDMDL
MODEL 5
REMARK VINA RESULT:      -6.9      3.923      6.938
REMARK  Name = 
REMARK  7 active torsions:
REMARK  status: ('A' for Active; 'I' for Inactive)
REMARK    1  A    between atoms: C_1  and  O_2
REMARK    2  A    between atoms: O_2  and  C_3
REMARK    3  A    between atoms: C_6  and  C_7
REMARK    4  A    between atoms: C_7  and  N_8
REMARK    5  A    between atoms: N_8  and  C_9
REMARK    6  A    between atoms: C_13  and  O_14
REMARK    7  A    between atoms: C_18  and  C_19
REMARK                            x       y       z     vdW  Elec       q    Type
REMARK                         _______ _______ _______ _____ _____    ______ ____
ROOT
ATOM      1  C   UNL     1       3.090   6.098  17.918  0.00  0.00    +0.000 A 
ATOM      2  C   UNL     1       4.228   6.759  17.394  0.00  0.00    +0.000 A 
ATOM      3  C   UNL     1       5.160   6.026  16.657  0.00  0.00    +0.000 A 
ATOM      4  N   UNL     1       6.309   6.376  15.997  0.00  0.00    +0.000 N 
ATOM      5  C   UNL     1       6.787   5.255  15.377  0.00  0.00    +0.000 A 
ATOM      6  N   UNL     1       6.057   4.201  15.640  0.00  0.00    +0.000 NA
ATOM      7  C   UNL     1       5.031   4.666  16.423  0.00  0.00    +0.000 A 
ATOM      8  C   UNL     1       3.922   3.997  16.954  0.00  0.00    +0.000 A 
ATOM      9  C   UNL     1       2.934   4.714  17.681  0.00  0.00    +0.000 A 
ATOM     10  C   UNL     1       1.733   3.916  18.113  0.00  0.00    +0.000 C 
ATOM     11  H   UNL     1       6.704   7.302  15.955  0.00  0.00    +0.000 HD
ENDROOT
BRANCH   1  12
ATOM     12  N   UNL     1       2.126   6.970  18.438  0.00  0.00    +0.000 N 
ATOM     13  H   UNL     1       2.133   6.896  19.454  0.00  0.00    +0.000 HD
BRANCH  12  14
ATOM     14  C   UNL     1       1.983   8.357  18.025  0.00  0.00    +0.000 C 
BRANCH  14  18
ATOM     15  C   UNL     1       0.516  10.606  21.424  0.00  0.00    +0.000 A 
ATOM     16  C   UNL     1       0.883   9.267  21.562  0.00  0.00    +0.000 A 
ATOM     17  C   UNL     1       1.371   8.551  20.468  0.00  0.00    +0.000 A 
ATOM     18  C   UNL     1       1.486   9.161  19.209  0.00  0.00    +0.000 A 
ATOM     19  C   UNL     1       1.085  10.496  19.070  0.00  0.00    +0.000 A 
ATOM     20  C   UNL     1       0.607  11.218  20.173  0.00  0.00    +0.000 A 
BRANCH  15  22
ATOM     21  C   UNL     1      -1.101  10.591  23.151  0.00  0.00    +0.000 C 
ATOM     22  O   UNL     1       0.047  11.193  22.566  0.00  0.00    +0.000 OA
ENDBRANCH  15  22
ENDBRANCH  14  18
ENDBRANCH  12  14
ENDBRANCH   1  12
BRANCH   5  23
ATOM     23  O   UNL     1       7.849   5.225  14.591  0.00  0.00    +0.000 OA
ATOM     24  H   UNL     1       7.941   6.082  14.150  0.00  0.00    +0.000 HD
ENDBRANCH   5  23
TORSDOF 5
ENDMDL
MODEL 6
REMARK VINA RESULT:      -6.9      3.940      6.894
REMARK  Name = 
REMARK  7 active torsions:
REMARK  status: ('A' for Active; 'I' for Inactive)
REMARK    1  A    between atoms: C_1  and  O_2
REMARK    2  A    between atoms: O_2  and  C_3
REMARK    3  A    between atoms: C_6  and  C_7
REMARK    4  A    between atoms: C_7  and  N_8
REMARK    5  A    between atoms: N_8  and  C_9
REMARK    6  A    between atoms: C_13  and  O_14
REMARK    7  A    between atoms: C_18  and  C_19
REMARK                            x       y       z     vdW  Elec       q    Type
REMARK                         _______ _______ _______ _____ _____    ______ ____
ROOT
ATOM      1  C   UNL     1       3.333   5.927  18.156  0.00  0.00    +0.000 A 
ATOM      2  C   UNL     1       4.510   6.555  17.679  0.00  0.00    +0.000 A 
ATOM      3  C   UNL     1       5.321   5.875  16.769  0.00  0.00    +0.000 A 
ATOM      4  N   UNL     1       6.469   6.221  16.105  0.00  0.00    +0.000 N 
ATOM      5  C   UNL     1       6.793   5.185  15.272  0.00  0.00    +0.000 A 
ATOM      6  N   UNL     1       5.966   4.179  15.398  0.00  0.00    +0.000 NA
ATOM      7  C   UNL     1       5.034   4.598  16.315  0.00  0.00    +0.000 A 
ATOM      8  C   UNL     1       3.885   3.958  16.795  0.00  0.00    +0.000 A 
ATOM      9  C   UNL     1       3.017   4.630  17.697  0.00  0.00    +0.000 A 
ATOM     10  C   UNL     1       1.758   3.890  18.063  0.00  0.00    +0.000 C 
ATOM     11  H   UNL     1       6.960   7.097  16.196  0.00  0.00    +0.000 HD
ENDROOT
BRANCH   1  12
ATOM     12  N   UNL     1       2.495   6.785  18.880  0.00  0.00    +0.000 N 
ATOM     13  H   UNL     1       2.867   6.885  19.823  0.00  0.00    +0.000 HD
BRANCH  12  14
ATOM     14  C   UNL     1       2.017   8.062  18.377  0.00  0.00    +0.000 C 
BRANCH  14  18
ATOM     15  C   UNL     1       0.460  10.382  21.688  0.00  0.00    +0.000 A 
ATOM     16  C   UNL     1       0.549  10.936  20.411  0.00  0.00    +0.000 A 
ATOM     17  C   UNL     1       1.036  10.180  19.344  0.00  0.00    +0.000 A 
ATOM     18  C   UNL     1       1.457   8.855  19.540  0.00  0.00    +0.000 A 
ATOM     19  C   UNL     1       1.396   8.315  20.831  0.00  0.00    +0.000 A 
ATOM     20  C   UNL     1       0.895   9.072  21.901  0.00  0.00    +0.000 A 
BRANCH  15  22
ATOM     21  C   UNL     1      -1.335  10.942  23.124  0.00  0.00    +0.000 C 
ATOM     22  O   UNL     1      -0.025  11.226  22.648  0.00  0.00    +0.000 OA
ENDBRANCH  15  22
ENDBRANCH  14  18
ENDBRANCH  12  14
ENDBRANCH   1  12
BRANCH   5  23
ATOM     23  O   UNL     1       7.807   5.191  14.425  0.00  0.00    +0.000 OA
ATOM     24  H   UNL     1       7.515   5.574  13.585  0.00  0.00    +0.000 HD
ENDBRANCH   5  23
TORSDOF 5
ENDMDL
MODEL 7
REMARK VINA RESULT:      -6.8      3.336      6.312
REMARK  Name = 
REMARK  7 active torsions:
REMARK  status: ('A' for Active; 'I' for Inactive)
REMARK    1  A    between atoms: C_1  and  O_2
REMARK    2  A    between atoms: O_2  and  C_3
REMARK    3  A    between atoms: C_6  and  C_7
REMARK    4  A    between atoms: C_7  and  N_8
REMARK    5  A    between atoms: N_8  and  C_9
REMARK    6  A    between atoms: C_13  and  O_14
REMARK    7  A    between atoms: C_18  and  C_19
REMARK                            x       y       z     vdW  Elec       q    Type
REMARK                         _______ _______ _______ _____ _____    ______ ____
ROOT
ATOM      1  C   UNL     1       4.599   5.034  18.624  0.00  0.00    +0.000 A 
ATOM      2  C   UNL     1       5.659   5.780  18.053  0.00  0.00    +0.000 A 
ATOM      3  C   UNL     1       6.173   5.390  16.816  0.00  0.00    +0.000 A 
ATOM      4  N   UNL     1       7.141   5.919  16.001  0.00  0.00    +0.000 N 
ATOM      5  C   UNL     1       7.182   5.161  14.863  0.00  0.00    +0.000 A 
ATOM      6  N   UNL     1       6.349   4.154  14.916  0.00  0.00    +0.000 NA
ATOM      7  C   UNL     1       5.702   4.290  16.118  0.00  0.00    +0.000 A 
ATOM      8  C   UNL     1       4.669   3.531  16.683  0.00  0.00    +0.000 A 
ATOM      9  C   UNL     1       4.096   3.915  17.924  0.00  0.00    +0.000 A 
ATOM     10  C   UNL     1       2.923   3.092  18.383  0.00  0.00    +0.000 C 
ATOM     11  H   UNL     1       7.694   6.738  16.200  0.00  0.00    +0.000 HD
ENDROOT
BRANCH   1  12
ATOM     12  N   UNL     1       4.022   5.647  19.744  0.00  0.00    +0.000 N 
ATOM     13  H   UNL     1       4.483   6.541  19.900  0.00  0.00    +0.000 HD
BRANCH  12  14
ATOM     14  C   UNL     1       2.588   5.765  19.952  0.00  0.00    +0.000 C 
BRANCH  14  18
ATOM     15  C   UNL     1       1.293   9.738  18.810  0.00  0.00    +0.000 A 
ATOM     16  C   UNL     1       1.092   9.270  20.109  0.00  0.00    +0.000 A 
ATOM     17  C   UNL     1       1.526   7.995  20.477  0.00  0.00    +0.000 A 
ATOM     18  C   UNL     1       2.158   7.159  19.544  0.00  0.00    +0.000 A 
ATOM     19  C   UNL     1       2.327   7.622  18.233  0.00  0.00    +0.000 A 
ATOM     20  C   UNL     1       1.902   8.907  17.867  0.00  0.00    +0.000 A 
BRANCH  15  22
ATOM     21  C   UNL     1       1.495  12.056  19.237  0.00  0.00    +0.000 C 
ATOM     22  O   UNL     1       0.817  10.997  18.572  0.00  0.00    +0.000 OA
ENDBRANCH  15  22
ENDBRANCH  14  18
ENDBRANCH  12  14
ENDBRANCH   1  12
BRANCH   5  23
ATOM     23  O   UNL     1       7.952   5.413  13.819  0.00  0.00    +0.000 OA
ATOM     24  H   UNL     1       8.533   6.160  14.026  0.00  0.00    +0.000 HD
ENDBRANCH   5  23
TORSDOF 5
ENDMDL
MODEL 8
REMARK VINA RESULT:      -6.8      4.244      6.859
REMARK  Name = 
REMARK  7 active torsions:
REMARK  status: ('A' for Active; 'I' for Inactive)
REMARK    1  A    between atoms: C_1  and  O_2
REMARK    2  A    between atoms: O_2  and  C_3
REMARK    3  A    between atoms: C_6  and  C_7
REMARK    4  A    between atoms: C_7  and  N_8
REMARK    5  A    between atoms: N_8  and  C_9
REMARK    6  A    between atoms: C_13  and  O_14
REMARK    7  A    between atoms: C_18  and  C_19
REMARK                            x       y       z     vdW  Elec       q    Type
REMARK                         _______ _______ _______ _____ _____    ______ ____
ROOT
ATOM      1  C   UNL     1       3.006   6.913  18.415  0.00  0.00    +0.000 A 
ATOM      2  C   UNL     1       4.119   6.951  17.540  0.00  0.00    +0.000 A 
ATOM      3  C   UNL     1       5.162   6.042  17.729  0.00  0.00    +0.000 A 
ATOM      4  N   UNL     1       6.323   5.802  17.041  0.00  0.00    +0.000 N 
ATOM      5  C   UNL     1       6.940   4.734  17.633  0.00  0.00    +0.000 A 
ATOM      6  N   UNL     1       6.284   4.311  18.683  0.00  0.00    +0.000 NA
ATOM      7  C   UNL     1       5.167   5.104  18.748  0.00  0.00    +0.000 A 
ATOM      8  C   UNL     1       4.082   5.071  19.633  0.00  0.00    +0.000 A 
ATOM      9  C   UNL     1       2.986   5.957  19.454  0.00  0.00    +0.000 A 
ATOM     10  C   UNL     1       1.828   5.761  20.397  0.00  0.00    +0.000 C 
ATOM     11  H   UNL     1       6.640   6.305  16.228  0.00  0.00    +0.000 HD
ENDROOT
BRANCH   1  12
ATOM     12  N   UNL     1       1.935   7.711  17.994  0.00  0.00    +0.000 N 
ATOM     13  H   UNL     1       1.096   7.423  18.495  0.00  0.00    +0.000 HD
BRANCH  12  14
ATOM     14  C   UNL     1       1.999   9.160  17.889  0.00  0.00    +0.000 C 
BRANCH  14  18
ATOM     15  C   UNL     1      -0.650  10.929  20.827  0.00  0.00    +0.000 A 
ATOM     16  C   UNL     1      -0.583  11.439  19.530  0.00  0.00    +0.000 A 
ATOM     17  C   UNL     1       0.259  10.856  18.582  0.00  0.00    +0.000 A 
ATOM     18  C   UNL     1       1.063   9.756  18.921  0.00  0.00    +0.000 A 
ATOM     19  C   UNL     1       1.017   9.269  20.234  0.00  0.00    +0.000 A 
ATOM     20  C   UNL     1       0.161   9.849  21.182  0.00  0.00    +0.000 A 
BRANCH  15  22
ATOM     21  C   UNL     1      -1.363  11.314  23.049  0.00  0.00    +0.000 C 
ATOM     22  O   UNL     1      -1.505  11.592  21.662  0.00  0.00    +0.000 OA
ENDBRANCH  15  22
ENDBRANCH  14  18
ENDBRANCH  12  14
ENDBRANCH   1  12
BRANCH   5  23
ATOM     23  O   UNL     1       8.055   4.174  17.199  0.00  0.00    +0.000 OA
ATOM     24  H   UNL     1       8.599   4.847  16.764  0.00  0.00    +0.000 HD
ENDBRANCH   5  23
TORSDOF 5
ENDMDL
MODEL 9
REMARK VINA RESULT:      -6.8      3.689      6.651
REMARK  Name = 
REMARK  7 active torsions:
REMARK  status: ('A' for Active; 'I' for Inactive)
REMARK    1  A    between atoms: C_1  and  O_2
REMARK    2  A    between atoms: O_2  and  C_3
REMARK    3  A    between atoms: C_6  and  C_7
REMARK    4  A    between atoms: C_7  and  N_8
REMARK    5  A    between atoms: N_8  and  C_9
REMARK    6  A    between atoms: C_13  and  O_14
REMARK    7  A    between atoms: C_18  and  C_19
REMARK                            x       y       z     vdW  Elec       q    Type
REMARK                         _______ _______ _______ _____ _____    ______ ____
ROOT
ATOM      1  C   UNL     1       3.308   5.097  17.942  0.00  0.00    +0.000 A 
ATOM      2  C   UNL     1       4.305   5.977  17.455  0.00  0.00    +0.000 A 
ATOM      3  C   UNL     1       5.259   5.493  16.558  0.00  0.00    +0.000 A 
ATOM      4  N   UNL     1       6.296   6.090  15.889  0.00  0.00    +0.000 N 
ATOM      5  C   UNL     1       6.860   5.145  15.077  0.00  0.00    +0.000 A 
ATOM      6  N   UNL     1       6.295   3.974  15.221  0.00  0.00    +0.000 NA
ATOM      7  C   UNL     1       5.286   4.177  16.128  0.00  0.00    +0.000 A 
ATOM      8  C   UNL     1       4.318   3.291  16.620  0.00  0.00    +0.000 A 
ATOM      9  C   UNL     1       3.310   3.753  17.507  0.00  0.00    +0.000 A 
ATOM     10  C   UNL     1       2.261   2.743  17.886  0.00  0.00    +0.000 C 
ATOM     11  H   UNL     1       6.564   7.058  15.964  0.00  0.00    +0.000 HD
ENDROOT
BRANCH   1  12
ATOM     12  N   UNL     1       2.286   5.744  18.649  0.00  0.00    +0.000 N 
ATOM     13  H   UNL     1       1.533   5.079  18.816  0.00  0.00    +0.000 HD
BRANCH  12  14
ATOM     14  C   UNL     1       2.513   6.570  19.824  0.00  0.00    +0.000 C 
BRANCH  14  18
ATOM     15  C   UNL     1       0.704  10.446  19.138  0.00  0.00    +0.000 A 
ATOM     16  C   UNL     1       0.585   9.814  20.376  0.00  0.00    +0.000 A 
ATOM     17  C   UNL     1       1.183   8.573  20.598  0.00  0.00    +0.000 A 
ATOM     18  C   UNL     1       1.902   7.934  19.576  0.00  0.00    +0.000 A 
ATOM     19  C   UNL     1       1.990   8.558  18.324  0.00  0.00    +0.000 A 
ATOM     20  C   UNL     1       1.398   9.811  18.107  0.00  0.00    +0.000 A 
BRANCH  15  22
ATOM     21  C   UNL     1      -1.024  11.852  19.934  0.00  0.00    +0.000 C 
ATOM     22  O   UNL     1       0.067  11.652  19.045  0.00  0.00    +0.000 OA
ENDBRANCH  15  22
ENDBRANCH  14  18
ENDBRANCH  12  14
ENDBRANCH   1  12
BRANCH   5  23
ATOM     23  O   UNL     1       7.849   5.376  14.230  0.00  0.00    +0.000 OA
ATOM     24  H   UNL     1       7.621   6.137  13.677  0.00  0.00    +0.000 HD
ENDBRANCH   5  23
TORSDOF 5
ENDMDL
