MODEL 1
REMARK VINA RESULT:      -5.8      0.000      0.000
REMARK  Name = 
REMARK  7 active torsions:
REMARK  status: ('A' for Active; 'I' for Inactive)
REMARK    1  A    between atoms: N_1  and  C_2
REMARK    2  A    between atoms: C_4  and  O_5
REMARK    3  A    between atoms: C_4  and  C_6
REMARK    4  A    between atoms: C_6  and  O_7
REMARK    5  A    between atoms: C_8  and  O_9
REMARK    6  A    between atoms: C_10  and  O_11
REMARK    7  A    between atoms: C_12  and  O_13
REMARK                            x       y       z     vdW  Elec       q    Type
REMARK                         _______ _______ _______ _____ _____    ______ ____
ROOT
ATOM      1  C   UNL     1       1.854   3.596  19.727  0.00  0.00    +0.000 C 
ATOM      2  C   UNL     1       3.034   2.895  20.417  0.00  0.00    +0.000 C 
ATOM      3  C   UNL     1       4.270   2.788  19.499  0.00  0.00    +0.000 C 
ATOM      4  C   UNL     1       3.903   2.145  18.137  0.00  0.00    +0.000 C 
ATOM      5  C   UNL     1       2.719   2.850  17.447  0.00  0.00    +0.000 C 
ATOM      6  C   UNL     1       1.499   2.907  18.388  0.00  0.00    +0.000 C 
ENDROOT
BRANCH   1   7
ATOM      7  N   UNL     1       0.677   3.598  20.616  0.00  0.00    +0.000 NA
ATOM      8  H   UNL     1       0.466   2.627  20.866  0.00  0.00    +0.000 HD
ATOM      9  H   UNL     1      -0.149   3.907  20.103  0.00  0.00    +0.000 HD
ENDBRANCH   1   7
BRANCH   3  10
ATOM     10  O   UNL     1       5.211   1.917  20.173  0.00  0.00    +0.000 OA
ATOM     11  H   UNL     1       5.686   2.501  20.804  0.00  0.00    +0.000 HD
ENDBRANCH   3  10
BRANCH   4  12
ATOM     12  O   UNL     1       3.609   0.750  18.373  0.00  0.00    +0.000 OA
ATOM     13  H   UNL     1       2.716   0.704  18.782  0.00  0.00    +0.000 HD
ENDBRANCH   4  12
BRANCH   5  14
ATOM     14  O   UNL     1       3.105   4.157  17.025  0.00  0.00    +0.000 OA
ATOM     15  H   UNL     1       2.503   4.806  17.429  0.00  0.00    +0.000 HD
ENDBRANCH   5  14
BRANCH   6  16
ATOM     16  O   UNL     1       1.045   1.567  18.639  0.00  0.00    +0.000 OA
ATOM     17  H   UNL     1       1.313   1.382  19.562  0.00  0.00    +0.000 HD
ENDBRANCH   6  16
BRANCH   3  18
ATOM     18  C   UNL     1       4.987   4.148  19.315  0.00  0.00    +0.000 C 
BRANCH  18  19
ATOM     19  O   UNL     1       6.204   3.961  18.582  0.00  0.00    +0.000 OA
ATOM     20  H   UNL     1       5.976   4.203  17.657  0.00  0.00    +0.000 HD
ENDBRANCH  18  19
ENDBRANCH   3  18
TORSDOF 7
ENDMDL
MODEL 2
REMARK VINA RESULT:      -5.6      1.256      1.724
REMARK  Name = 
REMARK  7 active torsions:
REMARK  status: ('A' for Active; 'I' for Inactive)
REMARK    1  A    between atoms: N_1  and  C_2
REMARK    2  A    between atoms: C_4  and  O_5
REMARK    3  A    between atoms: C_4  and  C_6
REMARK    4  A    between atoms: C_6  and  O_7
REMARK    5  A    between atoms: C_8  and  O_9
REMARK    6  A    between atoms: C_10  and  O_11
REMARK    7  A    between atoms: C_12  and  O_13
REMARK                            x       y       z     vdW  Elec       q    Type
REMARK                         _______ _______ _______ _____ _____    ______ ____
ROOT
ATOM      1  C   UNL     1       2.541   3.710  20.615  0.00  0.00    +0.000 C 
ATOM      2  C   UNL     1       3.354   2.549  20.025  0.00  0.00    +0.000 C 
ATOM      3  C   UNL     1       3.637   2.738  18.519  0.00  0.00    +0.000 C 
ATOM      4  C   UNL     1       2.329   3.015  17.734  0.00  0.00    +0.000 C 
ATOM      5  C   UNL     1       1.515   4.181  18.329  0.00  0.00    +0.000 C 
ATOM      6  C   UNL     1       1.231   3.935  19.824  0.00  0.00    +0.000 C 
ENDROOT
BRANCH   1   7
ATOM      7  N   UNL     1       2.230   3.440  22.032  0.00  0.00    +0.000 NA
ATOM      8  H   UNL     1       2.587   4.221  22.590  0.00  0.00    +0.000 HD
ATOM      9  H   UNL     1       2.763   2.635  22.362  0.00  0.00    +0.000 HD
ENDBRANCH   1   7
BRANCH   3  10
ATOM     10  O   UNL     1       4.194   1.489  18.043  0.00  0.00    +0.000 OA
ATOM     11  H   UNL     1       3.701   1.293  17.215  0.00  0.00    +0.000 HD
ENDBRANCH   3  10
BRANCH   4  12
ATOM     12  O   UNL     1       1.554   1.796  17.722  0.00  0.00    +0.000 OA
ATOM     13  H   UNL     1       1.049   1.762  18.565  0.00  0.00    +0.000 HD
ENDBRANCH   4  12
BRANCH   5  14
ATOM     14  O   UNL     1       2.206   5.413  18.132  0.00  0.00    +0.000 OA
ATOM     15  H   UNL     1       2.807   5.316  17.372  0.00  0.00    +0.000 HD
ENDBRANCH   5  14
BRANCH   6  16
ATOM     16  O   UNL     1       0.384   2.781  19.951  0.00  0.00    +0.000 OA
ATOM     17  H   UNL     1       0.933   2.120  20.420  0.00  0.00    +0.000 HD
ENDBRANCH   6  16
BRANCH   3  18
ATOM     18  C   UNL     1       4.706   3.825  18.252  0.00  0.00    +0.000 C 
BRANCH  18  19
ATOM     19  O   UNL     1       5.824   3.632  19.127  0.00  0.00    +0.000 OA
ATOM     20  H   UNL     1       5.469   3.807  20.026  0.00  0.00    +0.000 HD
ENDBRANCH  18  19
ENDBRANCH   3  18
TORSDOF 7
ENDMDL
MODEL 3
REMARK VINA RESULT:      -5.6      1.205      1.222
REMARK  Name = 
REMARK  7 active torsions:
REMARK  status: ('A' for Active; 'I' for Inactive)
REMARK    1  A    between atoms: N_1  and  C_2
REMARK    2  A    between atoms: C_4  and  O_5
REMARK    3  A    between atoms: C_4  and  C_6
REMARK    4  A    between atoms: C_6  and  O_7
REMARK    5  A    between atoms: C_8  and  O_9
REMARK    6  A    between atoms: C_10  and  O_11
REMARK    7  A    between atoms: C_12  and  O_13
REMARK                            x       y       z     vdW  Elec       q    Type
REMARK                         _______ _______ _______ _____ _____    ______ ____
ROOT
ATOM      1  C   UNL     1       1.766   3.376  20.242  0.00  0.00    +0.000 C 
ATOM      2  C   UNL     1       3.268   3.118  20.436  0.00  0.00    +0.000 C 
ATOM      3  C   UNL     1       4.117   3.718  19.295  0.00  0.00    +0.000 C 
ATOM      4  C   UNL     1       3.603   3.253  17.909  0.00  0.00    +0.000 C 
ATOM      5  C   UNL     1       2.096   3.513  17.716  0.00  0.00    +0.000 C 
ATOM      6  C   UNL     1       1.286   2.871  18.860  0.00  0.00    +0.000 C 
ENDROOT
BRANCH   1   7
ATOM      7  N   UNL     1       0.997   2.713  21.311  0.00  0.00    +0.000 NA
ATOM      8  H   UNL     1       0.581   3.441  21.901  0.00  0.00    +0.000 HD
ATOM      9  H   UNL     1       1.626   2.214  21.939  0.00  0.00    +0.000 HD
ENDBRANCH   1   7
BRANCH   3  10
ATOM     10  O   UNL     1       5.463   3.211  19.472  0.00  0.00    +0.000 OA
ATOM     11  H   UNL     1       6.046   3.981  19.289  0.00  0.00    +0.000 HD
ENDBRANCH   3  10
BRANCH   4  12
ATOM     12  O   UNL     1       3.907   1.847  17.774  0.00  0.00    +0.000 OA
ATOM     13  H   UNL     1       4.863   1.734  17.976  0.00  0.00    +0.000 HD
ENDBRANCH   4  12
BRANCH   5  14
ATOM     14  O   UNL     1       1.847   4.915  17.633  0.00  0.00    +0.000 OA
ATOM     15  H   UNL     1       1.325   5.092  16.830  0.00  0.00    +0.000 HD
ENDBRANCH   5  14
BRANCH   6  16
ATOM     16  O   UNL     1       1.434   1.443  18.788  0.00  0.00    +0.000 OA
ATOM     17  H   UNL     1       0.547   1.112  18.544  0.00  0.00    +0.000 HD
ENDBRANCH   6  16
BRANCH   3  18
ATOM     18  C   UNL     1       4.215   5.260  19.382  0.00  0.00    +0.000 C 
BRANCH  18  19
ATOM     19  O   UNL     1       4.723   5.785  18.149  0.00  0.00    +0.000 OA
ATOM     20  H   UNL     1       5.248   5.049  17.764  0.00  0.00    +0.000 HD
ENDBRANCH  18  19
ENDBRANCH   3  18
TORSDOF 7
ENDMDL
MODEL 4
REMARK VINA RESULT:      -5.5      1.757      2.338
REMARK  Name = 
REMARK  7 active torsions:
REMARK  status: ('A' for Active; 'I' for Inactive)
REMARK    1  A    between atoms: N_1  and  C_2
REMARK    2  A    between atoms: C_4  and  O_5
REMARK    3  A    between atoms: C_4  and  C_6
REMARK    4  A    between atoms: C_6  and  O_7
REMARK    5  A    between atoms: C_8  and  O_9
REMARK    6  A    between atoms: C_10  and  O_11
REMARK    7  A    between atoms: C_12  and  O_13
REMARK                            x       y       z     vdW  Elec       q    Type
REMARK                         _______ _______ _______ _____ _____    ______ ____
ROOT
ATOM      1  C   UNL     1       2.528   3.367  21.103  0.00  0.00    +0.000 C 
ATOM      2  C   UNL     1       3.189   2.544  19.988  0.00  0.00    +0.000 C 
ATOM      3  C   UNL     1       3.745   3.432  18.854  0.00  0.00    +0.000 C 
ATOM      4  C   UNL     1       2.659   4.403  18.321  0.00  0.00    +0.000 C 
ATOM      5  C   UNL     1       1.998   5.228  19.442  0.00  0.00    +0.000 C 
ATOM      6  C   UNL     1       1.432   4.300  20.535  0.00  0.00    +0.000 C 
ENDROOT
BRANCH   1   7
ATOM      7  N   UNL     1       1.944   2.469  22.117  0.00  0.00    +0.000 NA
ATOM      8  H   UNL     1       2.266   1.517  21.921  0.00  0.00    +0.000 HD
ATOM      9  H   UNL     1       0.932   2.418  21.999  0.00  0.00    +0.000 HD
ENDBRANCH   1   7
BRANCH   3  10
ATOM     10  O   UNL     1       4.123   2.540  17.778  0.00  0.00    +0.000 OA
ATOM     11  H   UNL     1       3.523   2.775  17.035  0.00  0.00    +0.000 HD
ENDBRANCH   3  10
BRANCH   4  12
ATOM     12  O   UNL     1       1.678   3.619  17.607  0.00  0.00    +0.000 OA
ATOM     13  H   UNL     1       2.098   3.317  16.770  0.00  0.00    +0.000 HD
ENDBRANCH   4  12
BRANCH   5  14
ATOM     14  O   UNL     1       2.935   6.155  19.987  0.00  0.00    +0.000 OA
ATOM     15  H   UNL     1       3.238   6.747  19.276  0.00  0.00    +0.000 HD
ENDBRANCH   5  14
BRANCH   6  16
ATOM     16  O   UNL     1       0.371   3.512  19.971  0.00  0.00    +0.000 OA
ATOM     17  H   UNL     1       0.080   4.014  19.183  0.00  0.00    +0.000 HD
ENDBRANCH   6  16
BRANCH   3  18
ATOM     18  C   UNL     1       5.031   4.185  19.272  0.00  0.00    +0.000 C 
BRANCH  18  19
ATOM     19  O   UNL     1       6.115   3.808  18.413  0.00  0.00    +0.000 OA
ATOM     20  H   UNL     1       6.030   2.834  18.320  0.00  0.00    +0.000 HD
ENDBRANCH  18  19
ENDBRANCH   3  18
TORSDOF 7
ENDMDL
MODEL 5
REMARK VINA RESULT:      -5.5      2.426      4.019
REMARK  Name = 
REMARK  7 active torsions:
REMARK  status: ('A' for Active; 'I' for Inactive)
REMARK    1  A    between atoms: N_1  and  C_2
REMARK    2  A    between atoms: C_4  and  O_5
REMARK    3  A    between atoms: C_4  and  C_6
REMARK    4  A    between atoms: C_6  and  O_7
REMARK    5  A    between atoms: C_8  and  O_9
REMARK    6  A    between atoms: C_10  and  O_11
REMARK    7  A    between atoms: C_12  and  O_13
REMARK                            x       y       z     vdW  Elec       q    Type
REMARK                         _______ _______ _______ _____ _____    ______ ____
ROOT
ATOM      1  C   UNL     1       4.460   4.835  17.119  0.00  0.00    +0.000 C 
ATOM      2  C   UNL     1       3.815   3.443  17.044  0.00  0.00    +0.000 C 
ATOM      3  C   UNL     1       3.044   3.085  18.332  0.00  0.00    +0.000 C 
ATOM      4  C   UNL     1       3.937   3.266  19.587  0.00  0.00    +0.000 C 
ATOM      5  C   UNL     1       4.583   4.663  19.660  0.00  0.00    +0.000 C 
ATOM      6  C   UNL     1       5.366   4.965  18.367  0.00  0.00    +0.000 C 
ENDROOT
BRANCH   1   7
ATOM      7  N   UNL     1       5.250   5.093  15.900  0.00  0.00    +0.000 NA
ATOM      8  H   UNL     1       5.733   4.226  15.645  0.00  0.00    +0.000 HD
ATOM      9  H   UNL     1       6.005   5.748  16.103  0.00  0.00    +0.000 HD
ENDBRANCH   1   7
BRANCH   3  10
ATOM     10  O   UNL     1       2.690   1.684  18.226  0.00  0.00    +0.000 OA
ATOM     11  H   UNL     1       2.365   1.439  19.121  0.00  0.00    +0.000 HD
ENDBRANCH   3  10
BRANCH   4  12
ATOM     12  O   UNL     1       4.943   2.230  19.566  0.00  0.00    +0.000 OA
ATOM     13  H   UNL     1       5.145   2.037  18.624  0.00  0.00    +0.000 HD
ENDBRANCH   4  12
BRANCH   5  14
ATOM     14  O   UNL     1       3.586   5.653  19.902  0.00  0.00    +0.000 OA
ATOM     15  H   UNL     1       3.084   5.798  19.081  0.00  0.00    +0.000 HD
ENDBRANCH   5  14
BRANCH   6  16
ATOM     16  O   UNL     1       6.465   4.046  18.265  0.00  0.00    +0.000 OA
ATOM     17  H   UNL     1       6.189   3.401  17.583  0.00  0.00    +0.000 HD
ENDBRANCH   6  16
BRANCH   3  18
ATOM     18  C   UNL     1       1.713   3.865  18.459  0.00  0.00    +0.000 C 
BRANCH  18  19
ATOM     19  O   UNL     1       1.210   3.753  19.797  0.00  0.00    +0.000 OA
ATOM     20  H   UNL     1       0.684   2.924  19.795  0.00  0.00    +0.000 HD
ENDBRANCH  18  19
ENDBRANCH   3  18
TORSDOF 7
ENDMDL
MODEL 6
REMARK VINA RESULT:      -5.5      2.281      3.487
REMARK  Name = 
REMARK  7 active torsions:
REMARK  status: ('A' for Active; 'I' for Inactive)
REMARK    1  A    between atoms: N_1  and  C_2
REMARK    2  A    between atoms: C_4  and  O_5
REMARK    3  A    between atoms: C_4  and  C_6
REMARK    4  A    between atoms: C_6  and  O_7
REMARK    5  A    between atoms: C_8  and  O_9
REMARK    6  A    between atoms: C_10  and  O_11
REMARK    7  A    between atoms: C_12  and  O_13
REMARK                            x       y       z     vdW  Elec       q    Type
REMARK                         _______ _______ _______ _____ _____    ______ ____
ROOT
ATOM      1  C   UNL     1       3.630   2.781  19.974  0.00  0.00    +0.000 C 
ATOM      2  C   UNL     1       3.802   4.092  19.192  0.00  0.00    +0.000 C 
ATOM      3  C   UNL     1       2.481   4.882  19.075  0.00  0.00    +0.000 C 
ATOM      4  C   UNL     1       1.344   3.992  18.511  0.00  0.00    +0.000 C 
ATOM      5  C   UNL     1       1.173   2.677  19.298  0.00  0.00    +0.000 C 
ATOM      6  C   UNL     1       2.507   1.908  19.363  0.00  0.00    +0.000 C 
ENDROOT
BRANCH   1   7
ATOM      7  N   UNL     1       4.898   2.028  19.986  0.00  0.00    +0.000 NA
ATOM      8  H   UNL     1       4.681   1.043  20.166  0.00  0.00    +0.000 HD
ATOM      9  H   UNL     1       5.465   2.308  20.786  0.00  0.00    +0.000 HD
ENDBRANCH   1   7
BRANCH   3  10
ATOM     10  O   UNL     1       2.725   5.956  18.134  0.00  0.00    +0.000 OA
ATOM     11  H   UNL     1       1.835   6.196  17.793  0.00  0.00    +0.000 HD
ENDBRANCH   3  10
BRANCH   4  12
ATOM     12  O   UNL     1       1.637   3.730  17.121  0.00  0.00    +0.000 OA
ATOM     13  H   UNL     1       1.160   4.405  16.589  0.00  0.00    +0.000 HD
ENDBRANCH   4  12
BRANCH   5  14
ATOM     14  O   UNL     1       0.671   2.949  20.604  0.00  0.00    +0.000 OA
ATOM     15  H   UNL     1       1.420   2.996  21.224  0.00  0.00    +0.000 HD
ENDBRANCH   5  14
BRANCH   6  16
ATOM     16  O   UNL     1       2.877   1.507  18.033  0.00  0.00    +0.000 OA
ATOM     17  H   UNL     1       3.495   0.760  18.161  0.00  0.00    +0.000 HD
ENDBRANCH   6  16
BRANCH   3  18
ATOM     18  C   UNL     1       2.075   5.552  20.410  0.00  0.00    +0.000 C 
BRANCH  18  19
ATOM     19  O   UNL     1       2.376   6.953  20.362  0.00  0.00    +0.000 OA
ATOM     20  H   UNL     1       3.348   6.993  20.228  0.00  0.00    +0.000 HD
ENDBRANCH  18  19
ENDBRANCH   3  18
TORSDOF 7
ENDMDL
MODEL 7
REMARK VINA RESULT:      -5.5      3.668      5.257
REMARK  Name = 
REMARK  7 active torsions:
REMARK  status: ('A' for Active; 'I' for Inactive)
REMARK    1  A    between atoms: N_1  and  C_2
REMARK    2  A    between atoms: C_4  and  O_5
REMARK    3  A    between atoms: C_4  and  C_6
REMARK    4  A    between atoms: C_6  and  O_7
REMARK    5  A    between atoms: C_8  and  O_9
REMARK    6  A    between atoms: C_10  and  O_11
REMARK    7  A    between atoms: C_12  and  O_13
REMARK                            x       y       z     vdW  Elec       q    Type
REMARK                         _______ _______ _______ _____ _____    ______ ____
ROOT
ATOM      1  C   UNL     1       5.098   3.991  17.709  0.00  0.00    +0.000 C 
ATOM      2  C   UNL     1       4.628   5.074  16.728  0.00  0.00    +0.000 C 
ATOM      3  C   UNL     1       5.801   5.714  15.954  0.00  0.00    +0.000 C 
ATOM      4  C   UNL     1       6.901   6.218  16.923  0.00  0.00    +0.000 C 
ATOM      5  C   UNL     1       7.372   5.129  17.907  0.00  0.00    +0.000 C 
ATOM      6  C   UNL     1       6.173   4.541  18.677  0.00  0.00    +0.000 C 
ENDROOT
BRANCH   1   7
ATOM      7  N   UNL     1       3.951   3.473  18.478  0.00  0.00    +0.000 NA
ATOM      8  H   UNL     1       4.311   2.831  19.191  0.00  0.00    +0.000 HD
ATOM      9  H   UNL     1       3.368   2.883  17.885  0.00  0.00    +0.000 HD
ENDBRANCH   1   7
BRANCH   3  10
ATOM     10  O   UNL     1       5.257   6.857  15.251  0.00  0.00    +0.000 OA
ATOM     11  H   UNL     1       4.447   7.098  15.753  0.00  0.00    +0.000 HD
ENDBRANCH   3  10
BRANCH   4  12
ATOM     12  O   UNL     1       6.376   7.363  17.630  0.00  0.00    +0.000 OA
ATOM     13  H   UNL     1       5.401   7.361  17.507  0.00  0.00    +0.000 HD
ENDBRANCH   4  12
BRANCH   5  14
ATOM     14  O   UNL     1       8.084   4.111  17.207  0.00  0.00    +0.000 OA
ATOM     15  H   UNL     1       7.456   3.619  16.648  0.00  0.00    +0.000 HD
ENDBRANCH   5  14
BRANCH   6  16
ATOM     16  O   UNL     1       5.601   5.571  19.500  0.00  0.00    +0.000 OA
ATOM     17  H   UNL     1       4.653   5.339  19.566  0.00  0.00    +0.000 HD
ENDBRANCH   6  16
BRANCH   3  18
ATOM     18  C   UNL     1       6.379   4.768  14.874  0.00  0.00    +0.000 C 
BRANCH  18  19
ATOM     19  O   UNL     1       7.639   5.271  14.412  0.00  0.00    +0.000 OA
ATOM     20  H   UNL     1       7.733   6.144  14.852  0.00  0.00    +0.000 HD
ENDBRANCH  18  19
ENDBRANCH   3  18
TORSDOF 7
ENDMDL
MODEL 8
REMARK VINA RESULT:      -5.5      2.263      3.827
REMARK  Name = 
REMARK  7 active torsions:
REMARK  status: ('A' for Active; 'I' for Inactive)
REMARK    1  A    between atoms: N_1  and  C_2
REMARK    2  A    between atoms: C_4  and  O_5
REMARK    3  A    between atoms: C_4  and  C_6
REMARK    4  A    between atoms: C_6  and  O_7
REMARK    5  A    between atoms: C_8  and  O_9
REMARK    6  A    between atoms: C_10  and  O_11
REMARK    7  A    between atoms: C_12  and  O_13
REMARK                            x       y       z     vdW  Elec       q    Type
REMARK                         _______ _______ _______ _____ _____    ______ ____
ROOT
ATOM      1  C   UNL     1       4.556   3.443  19.044  0.00  0.00    +0.000 C 
ATOM      2  C   UNL     1       3.818   4.635  19.670  0.00  0.00    +0.000 C 
ATOM      3  C   UNL     1       2.324   4.335  19.916  0.00  0.00    +0.000 C 
ATOM      4  C   UNL     1       1.638   3.814  18.627  0.00  0.00    +0.000 C 
ATOM      5  C   UNL     1       2.380   2.618  18.001  0.00  0.00    +0.000 C 
ATOM      6  C   UNL     1       3.859   2.972  17.746  0.00  0.00    +0.000 C 
ENDROOT
BRANCH   1   7
ATOM      7  N   UNL     1       5.956   3.809  18.755  0.00  0.00    +0.000 NA
ATOM      8  H   UNL     1       6.295   3.198  18.006  0.00  0.00    +0.000 HD
ATOM      9  H   UNL     1       6.550   3.579  19.552  0.00  0.00    +0.000 HD
ENDBRANCH   1   7
BRANCH   3  10
ATOM     10  O   UNL     1       1.705   5.593  20.282  0.00  0.00    +0.000 OA
ATOM     11  H   UNL     1       0.783   5.524  19.950  0.00  0.00    +0.000 HD
ENDBRANCH   3  10
BRANCH   4  12
ATOM     12  O   UNL     1       1.552   4.916  17.696  0.00  0.00    +0.000 OA
ATOM     13  H   UNL     1       0.866   5.533  18.035  0.00  0.00    +0.000 HD
ENDBRANCH   4  12
BRANCH   5  14
ATOM     14  O   UNL     1       2.263   1.473  18.843  0.00  0.00    +0.000 OA
ATOM     15  H   UNL     1       2.686   1.669  19.698  0.00  0.00    +0.000 HD
ENDBRANCH   5  14
BRANCH   6  16
ATOM     16  O   UNL     1       3.922   4.013  16.758  0.00  0.00    +0.000 OA
ATOM     17  H   UNL     1       3.519   3.622  15.957  0.00  0.00    +0.000 HD
ENDBRANCH   6  16
BRANCH   3  18
ATOM     18  C   UNL     1       2.104   3.375  21.110  0.00  0.00    +0.000 C 
BRANCH  18  19
ATOM     19  O   UNL     1       0.761   2.876  21.092  0.00  0.00    +0.000 OA
ATOM     20  H   UNL     1       0.857   1.903  21.180  0.00  0.00    +0.000 HD
ENDBRANCH  18  19
ENDBRANCH   3  18
TORSDOF 7
ENDMDL
MODEL 9
REMARK VINA RESULT:      -5.4      2.014      3.420
REMARK  Name = 
REMARK  7 active torsions:
REMARK  status: ('A' for Active; 'I' for Inactive)
REMARK    1  A    between atoms: N_1  and  C_2
REMARK    2  A    between atoms: C_4  and  O_5
REMARK    3  A    between atoms: C_4  and  C_6
REMARK    4  A    between atoms: C_6  and  O_7
REMARK    5  A    between atoms: C_8  and  O_9
REMARK    6  A    between atoms: C_10  and  O_11
REMARK    7  A    between atoms: C_12  and  O_13
REMARK                            x       y       z     vdW  Elec       q    Type
REMARK                         _______ _______ _______ _____ _____    ______ ____
ROOT
ATOM      1  C   UNL     1       3.447   4.901  18.762  0.00  0.00    +0.000 C 
ATOM      2  C   UNL     1       1.988   4.708  19.200  0.00  0.00    +0.000 C 
ATOM      3  C   UNL     1       1.805   3.468  20.101  0.00  0.00    +0.000 C 
ATOM      4  C   UNL     1       2.406   2.201  19.439  0.00  0.00    +0.000 C 
ATOM      5  C   UNL     1       3.870   2.397  19.001  0.00  0.00    +0.000 C 
ATOM      6  C   UNL     1       4.000   3.626  18.079  0.00  0.00    +0.000 C 
ENDROOT
BRANCH   1   7
ATOM      7  N   UNL     1       3.551   6.047  17.839  0.00  0.00    +0.000 NA
ATOM      8  H   UNL     1       2.632   6.495  17.784  0.00  0.00    +0.000 HD
ATOM      9  H   UNL     1       3.725   5.718  16.889  0.00  0.00    +0.000 HD
ENDBRANCH   1   7
BRANCH   3  10
ATOM     10  O   UNL     1       0.378   3.270  20.247  0.00  0.00    +0.000 OA
ATOM     11  H   UNL     1       0.076   4.019  20.807  0.00  0.00    +0.000 HD
ENDBRANCH   3  10
BRANCH   4  12
ATOM     12  O   UNL     1       1.570   1.853  18.313  0.00  0.00    +0.000 OA
ATOM     13  H   UNL     1       1.904   2.353  17.535  0.00  0.00    +0.000 HD
ENDBRANCH   4  12
BRANCH   5  14
ATOM     14  O   UNL     1       4.712   2.520  20.145  0.00  0.00    +0.000 OA
ATOM     15  H   UNL     1       4.904   3.463  20.292  0.00  0.00    +0.000 HD
ENDBRANCH   5  14
BRANCH   6  16
ATOM     16  O   UNL     1       3.273   3.374  16.866  0.00  0.00    +0.000 OA
ATOM     17  H   UNL     1       2.471   3.929  16.935  0.00  0.00    +0.000 HD
ENDBRANCH   6  16
BRANCH   3  18
ATOM     18  C   UNL     1       2.365   3.689  21.527  0.00  0.00    +0.000 C 
BRANCH  18  19
ATOM     19  O   UNL     1       2.568   2.424  22.170  0.00  0.00    +0.000 OA
ATOM     20  H   UNL     1       2.221   2.551  23.081  0.00  0.00    +0.000 HD
ENDBRANCH  18  19
ENDBRANCH   3  18
TORSDOF 7
ENDMDL
