MODEL 1
REMARK VINA RESULT:      -7.2      0.000      0.000
REMARK  Name = 
REMARK  1 active torsions:
REMARK  status: ('A' for Active; 'I' for Inactive)
REMARK    1  A    between atoms: O_1  and  C_2
REMARK                            x       y       z     vdW  Elec       q    Type
REMARK                         _______ _______ _______ _____ _____    ______ ____
ROOT
ATOM      1  C   UNL     1       1.463   8.796  19.533  0.00  0.00    +0.000 A 
ATOM      2  C   UNL     1       2.060   8.985  18.292  0.00  0.00    +0.000 A 
ATOM      3  C   UNL     1       2.836   7.973  17.718  0.00  0.00    +0.000 A 
ATOM      4  C   UNL     1       2.991   6.774  18.433  0.00  0.00    +0.000 A 
ATOM      5  C   UNL     1       2.382   6.565  19.683  0.00  0.00    +0.000 A 
ATOM      6  C   UNL     1       1.605   7.600  20.238  0.00  0.00    +0.000 A 
ATOM      7  C   UNL     1       2.694   5.236  20.088  0.00  0.00    +0.000 A 
ATOM      8  C   UNL     1       3.511   4.708  19.122  0.00  0.00    +0.000 A 
ATOM      9  N   UNL     1       3.674   5.619  18.127  0.00  0.00    +0.000 N 
ATOM     10  C   UNL     1       4.374   5.289  16.899  0.00  0.00    +0.000 C 
ATOM     11  C   UNL     1       5.191   3.996  17.068  0.00  0.00    +0.000 C 
ATOM     12  N   UNL     1       4.410   2.930  17.727  0.00  0.00    +0.000 NA
ATOM     13  C   UNL     1       4.064   3.333  19.095  0.00  0.00    +0.000 C 
ATOM     14  C   UNL     1       2.991   2.421  19.724  0.00  0.00    +0.000 C 
ATOM     15  C   UNL     1       2.580   2.919  21.134  0.00  0.00    +0.000 C 
ATOM     16  C   UNL     1       2.237   4.430  21.257  0.00  0.00    +0.000 C 
ATOM     17  H   UNL     1       4.961   2.077  17.770  0.00  0.00    +0.000 HD
ENDROOT
BRANCH   1  18
ATOM     18  O   UNL     1       0.708   9.778  20.108  0.00  0.00    +0.000 OA
ATOM     19  H   UNL     1       1.284  10.534  20.306  0.00  0.00    +0.000 HD
ENDBRANCH   1  18
TORSDOF 1
ENDMDL
MODEL 2
REMARK VINA RESULT:      -7.1      2.730      4.546
REMARK  Name = 
REMARK  1 active torsions:
REMARK  status: ('A' for Active; 'I' for Inactive)
REMARK    1  A    between atoms: O_1  and  C_2
REMARK                            x       y       z     vdW  Elec       q    Type
REMARK                         _______ _______ _______ _____ _____    ______ ____
ROOT
ATOM      1  C   UNL     1       5.568   4.251  15.555  0.00  0.00    +0.000 A 
ATOM      2  C   UNL     1       5.582   5.641  15.495  0.00  0.00    +0.000 A 
ATOM      3  C   UNL     1       4.822   6.397  16.393  0.00  0.00    +0.000 A 
ATOM      4  C   UNL     1       4.051   5.711  17.345  0.00  0.00    +0.000 A 
ATOM      5  C   UNL     1       4.037   4.307  17.425  0.00  0.00    +0.000 A 
ATOM      6  C   UNL     1       4.813   3.570  16.510  0.00  0.00    +0.000 A 
ATOM      7  C   UNL     1       3.209   3.955  18.530  0.00  0.00    +0.000 A 
ATOM      8  C   UNL     1       2.710   5.125  19.040  0.00  0.00    +0.000 A 
ATOM      9  N   UNL     1       3.226   6.173  18.344  0.00  0.00    +0.000 N 
ATOM     10  C   UNL     1       2.989   7.546  18.749  0.00  0.00    +0.000 C 
ATOM     11  C   UNL     1       1.822   7.627  19.750  0.00  0.00    +0.000 C 
ATOM     12  N   UNL     1       1.929   6.603  20.808  0.00  0.00    +0.000 NA
ATOM     13  C   UNL     1       1.824   5.261  20.222  0.00  0.00    +0.000 C 
ATOM     14  C   UNL     1       2.245   4.153  21.208  0.00  0.00    +0.000 C 
ATOM     15  C   UNL     1       2.209   2.754  20.538  0.00  0.00    +0.000 C 
ATOM     16  C   UNL     1       2.916   2.635  19.158  0.00  0.00    +0.000 C 
ATOM     17  H   UNL     1       1.175   6.722  21.479  0.00  0.00    +0.000 HD
ENDROOT
BRANCH   1  18
ATOM     18  O   UNL     1       6.301   3.500  14.681  0.00  0.00    +0.000 OA
ATOM     19  H   UNL     1       7.126   3.974  14.485  0.00  0.00    +0.000 HD
ENDBRANCH   1  18
TORSDOF 1
ENDMDL
MODEL 3
REMARK VINA RESULT:      -7.1      3.225      5.073
REMARK  Name = 
REMARK  1 active torsions:
REMARK  status: ('A' for Active; 'I' for Inactive)
REMARK    1  A    between atoms: O_1  and  C_2
REMARK                            x       y       z     vdW  Elec       q    Type
REMARK                         _______ _______ _______ _____ _____    ______ ____
ROOT
ATOM      1  C   UNL     1       1.714   3.050  18.514  0.00  0.00    +0.000 A 
ATOM      2  C   UNL     1       2.099   3.653  19.706  0.00  0.00    +0.000 A 
ATOM      3  C   UNL     1       3.359   4.247  19.825  0.00  0.00    +0.000 A 
ATOM      4  C   UNL     1       4.213   4.212  18.710  0.00  0.00    +0.000 A 
ATOM      5  C   UNL     1       3.831   3.616  17.495  0.00  0.00    +0.000 A 
ATOM      6  C   UNL     1       2.556   3.027  17.402  0.00  0.00    +0.000 A 
ATOM      7  C   UNL     1       4.900   3.814  16.574  0.00  0.00    +0.000 A 
ATOM      8  C   UNL     1       5.899   4.457  17.258  0.00  0.00    +0.000 A 
ATOM      9  N   UNL     1       5.482   4.709  18.526  0.00  0.00    +0.000 N 
ATOM     10  C   UNL     1       6.275   5.507  19.444  0.00  0.00    +0.000 C 
ATOM     11  C   UNL     1       7.720   5.652  18.933  0.00  0.00    +0.000 C 
ATOM     12  N   UNL     1       7.768   5.996  17.498  0.00  0.00    +0.000 NA
ATOM     13  C   UNL     1       7.198   4.904  16.700  0.00  0.00    +0.000 C 
ATOM     14  C   UNL     1       6.923   5.322  15.241  0.00  0.00    +0.000 C 
ATOM     15  C   UNL     1       6.242   4.180  14.443  0.00  0.00    +0.000 C 
ATOM     16  C   UNL     1       5.016   3.504  15.120  0.00  0.00    +0.000 C 
ATOM     17  H   UNL     1       8.732   6.138  17.210  0.00  0.00    +0.000 HD
ENDROOT
BRANCH   1  18
ATOM     18  O   UNL     1       0.488   2.461  18.386  0.00  0.00    +0.000 OA
ATOM     19  H   UNL     1      -0.156   3.142  18.131  0.00  0.00    +0.000 HD
ENDBRANCH   1  18
TORSDOF 1
ENDMDL
MODEL 4
REMARK VINA RESULT:      -7.0      1.143      3.204
REMARK  Name = 
REMARK  1 active torsions:
REMARK  status: ('A' for Active; 'I' for Inactive)
REMARK    1  A    between atoms: O_1  and  C_2
REMARK                            x       y       z     vdW  Elec       q    Type
REMARK                         _______ _______ _______ _____ _____    ______ ____
ROOT
ATOM      1  C   UNL     1       1.740   9.095  18.751  0.00  0.00    +0.000 A 
ATOM      2  C   UNL     1       1.369   8.419  19.909  0.00  0.00    +0.000 A 
ATOM      3  C   UNL     1       1.859   7.135  20.168  0.00  0.00    +0.000 A 
ATOM      4  C   UNL     1       2.726   6.558  19.226  0.00  0.00    +0.000 A 
ATOM      5  C   UNL     1       3.120   7.235  18.058  0.00  0.00    +0.000 A 
ATOM      6  C   UNL     1       2.613   8.528  17.823  0.00  0.00    +0.000 A 
ATOM      7  C   UNL     1       4.041   6.392  17.372  0.00  0.00    +0.000 A 
ATOM      8  C   UNL     1       4.133   5.232  18.096  0.00  0.00    +0.000 A 
ATOM      9  N   UNL     1       3.363   5.338  19.211  0.00  0.00    +0.000 N 
ATOM     10  C   UNL     1       3.374   4.318  20.243  0.00  0.00    +0.000 C 
ATOM     11  C   UNL     1       4.016   3.020  19.722  0.00  0.00    +0.000 C 
ATOM     12  N   UNL     1       5.273   3.279  18.992  0.00  0.00    +0.000 NA
ATOM     13  C   UNL     1       5.002   4.071  17.787  0.00  0.00    +0.000 C 
ATOM     14  C   UNL     1       6.287   4.646  17.157  0.00  0.00    +0.000 C 
ATOM     15  C   UNL     1       5.966   5.549  15.938  0.00  0.00    +0.000 C 
ATOM     16  C   UNL     1       4.864   6.624  16.150  0.00  0.00    +0.000 C 
ATOM     17  H   UNL     1       5.696   2.398  18.713  0.00  0.00    +0.000 HD
ENDROOT
BRANCH   1  18
ATOM     18  O   UNL     1       1.265  10.347  18.483  0.00  0.00    +0.000 OA
ATOM     19  H   UNL     1       1.600  10.624  17.615  0.00  0.00    +0.000 HD
ENDBRANCH   1  18
TORSDOF 1
ENDMDL
MODEL 5
REMARK VINA RESULT:      -7.0      2.844      4.488
REMARK  Name = 
REMARK  1 active torsions:
REMARK  status: ('A' for Active; 'I' for Inactive)
REMARK    1  A    between atoms: O_1  and  C_2
REMARK                            x       y       z     vdW  Elec       q    Type
REMARK                         _______ _______ _______ _____ _____    ______ ____
ROOT
ATOM      1  C   UNL     1       5.754   4.948  15.505  0.00  0.00    +0.000 A 
ATOM      2  C   UNL     1       5.813   6.238  16.022  0.00  0.00    +0.000 A 
ATOM      3  C   UNL     1       4.966   6.622  17.066  0.00  0.00    +0.000 A 
ATOM      4  C   UNL     1       4.063   5.671  17.567  0.00  0.00    +0.000 A 
ATOM      5  C   UNL     1       4.001   4.360  17.062  0.00  0.00    +0.000 A 
ATOM      6  C   UNL     1       4.866   3.998  16.012  0.00  0.00    +0.000 A 
ATOM      7  C   UNL     1       3.031   3.656  17.832  0.00  0.00    +0.000 A 
ATOM      8  C   UNL     1       2.503   4.555  18.722  0.00  0.00    +0.000 A 
ATOM      9  N   UNL     1       3.131   5.751  18.576  0.00  0.00    +0.000 N 
ATOM     10  C   UNL     1       2.881   6.858  19.481  0.00  0.00    +0.000 C 
ATOM     11  C   UNL     1       1.600   6.616  20.300  0.00  0.00    +0.000 C 
ATOM     12  N   UNL     1       1.545   5.247  20.849  0.00  0.00    +0.000 NA
ATOM     13  C   UNL     1       1.479   4.269  19.756  0.00  0.00    +0.000 C 
ATOM     14  C   UNL     1       1.741   2.827  20.239  0.00  0.00    +0.000 C 
ATOM     15  C   UNL     1       1.753   1.826  19.055  0.00  0.00    +0.000 C 
ATOM     16  C   UNL     1       2.625   2.221  17.829  0.00  0.00    +0.000 C 
ATOM     17  H   UNL     1       0.716   5.142  21.427  0.00  0.00    +0.000 HD
ENDROOT
BRANCH   1  18
ATOM     18  O   UNL     1       6.571   4.561  14.481  0.00  0.00    +0.000 OA
ATOM     19  H   UNL     1       7.329   4.084  14.856  0.00  0.00    +0.000 HD
ENDBRANCH   1  18
TORSDOF 1
ENDMDL
MODEL 6
REMARK VINA RESULT:      -6.7      1.160      3.181
REMARK  Name = 
REMARK  1 active torsions:
REMARK  status: ('A' for Active; 'I' for Inactive)
REMARK    1  A    between atoms: O_1  and  C_2
REMARK                            x       y       z     vdW  Elec       q    Type
REMARK                         _______ _______ _______ _____ _____    ______ ____
ROOT
ATOM      1  C   UNL     1       1.588   8.124  20.253  0.00  0.00    +0.000 A 
ATOM      2  C   UNL     1       1.192   7.035  21.023  0.00  0.00    +0.000 A 
ATOM      3  C   UNL     1       1.556   5.736  20.653  0.00  0.00    +0.000 A 
ATOM      4  C   UNL     1       2.324   5.572  19.489  0.00  0.00    +0.000 A 
ATOM      5  C   UNL     1       2.742   6.665  18.709  0.00  0.00    +0.000 A 
ATOM      6  C   UNL     1       2.363   7.963  19.105  0.00  0.00    +0.000 A 
ATOM      7  C   UNL     1       3.545   6.147  17.653  0.00  0.00    +0.000 A 
ATOM      8  C   UNL     1       3.545   4.783  17.786  0.00  0.00    +0.000 A 
ATOM      9  N   UNL     1       2.831   4.442  18.891  0.00  0.00    +0.000 N 
ATOM     10  C   UNL     1       2.774   3.072  19.367  0.00  0.00    +0.000 C 
ATOM     11  C   UNL     1       3.260   2.096  18.281  0.00  0.00    +0.000 C 
ATOM     12  N   UNL     1       4.510   2.554  17.643  0.00  0.00    +0.000 NA
ATOM     13  C   UNL     1       4.277   3.817  16.932  0.00  0.00    +0.000 C 
ATOM     14  C   UNL     1       5.590   4.512  16.519  0.00  0.00    +0.000 C 
ATOM     15  C   UNL     1       5.320   5.884  15.848  0.00  0.00    +0.000 C 
ATOM     16  C   UNL     1       4.343   6.834  16.596  0.00  0.00    +0.000 C 
ATOM     17  H   UNL     1       4.829   1.860  16.973  0.00  0.00    +0.000 HD
ENDROOT
BRANCH   1  18
ATOM     18  O   UNL     1       1.235   9.397  20.599  0.00  0.00    +0.000 OA
ATOM     19  H   UNL     1       0.284   9.409  20.798  0.00  0.00    +0.000 HD
ENDBRANCH   1  18
TORSDOF 1
ENDMDL
MODEL 7
REMARK VINA RESULT:      -6.6      1.157      3.040
REMARK  Name = 
REMARK  1 active torsions:
REMARK  status: ('A' for Active; 'I' for Inactive)
REMARK    1  A    between atoms: O_1  and  C_2
REMARK                            x       y       z     vdW  Elec       q    Type
REMARK                         _______ _______ _______ _____ _____    ______ ____
ROOT
ATOM      1  C   UNL     1       1.926   9.403  18.435  0.00  0.00    +0.000 A 
ATOM      2  C   UNL     1       1.326   9.081  19.647  0.00  0.00    +0.000 A 
ATOM      3  C   UNL     1       1.473   7.802  20.193  0.00  0.00    +0.000 A 
ATOM      4  C   UNL     1       2.235   6.864  19.479  0.00  0.00    +0.000 A 
ATOM      5  C   UNL     1       2.857   7.180  18.257  0.00  0.00    +0.000 A 
ATOM      6  C   UNL     1       2.696   8.476  17.732  0.00  0.00    +0.000 A 
ATOM      7  C   UNL     1       3.591   6.029  17.848  0.00  0.00    +0.000 A 
ATOM      8  C   UNL     1       3.352   5.053  18.779  0.00  0.00    +0.000 A 
ATOM      9  N   UNL     1       2.558   5.557  19.761  0.00  0.00    +0.000 N 
ATOM     10  C   UNL     1       2.252   4.795  20.958  0.00  0.00    +0.000 C 
ATOM     11  C   UNL     1       2.595   3.308  20.762  0.00  0.00    +0.000 C 
ATOM     12  N   UNL     1       3.923   3.122  20.145  0.00  0.00    +0.000 NA
ATOM     13  C   UNL     1       3.932   3.688  18.790  0.00  0.00    +0.000 C 
ATOM     14  C   UNL     1       5.357   3.819  18.215  0.00  0.00    +0.000 C 
ATOM     15  C   UNL     1       5.346   4.499  16.821  0.00  0.00    +0.000 C 
ATOM     16  C   UNL     1       4.525   5.814  16.705  0.00  0.00    +0.000 C 
ATOM     17  H   UNL     1       4.138   2.131  20.082  0.00  0.00    +0.000 HD
ENDROOT
BRANCH   1  18
ATOM     18  O   UNL     1       1.786  10.647  17.888  0.00  0.00    +0.000 OA
ATOM     19  H   UNL     1       2.626  11.124  17.991  0.00  0.00    +0.000 HD
ENDBRANCH   1  18
TORSDOF 1
ENDMDL
MODEL 8
REMARK VINA RESULT:      -6.5      2.468      4.472
REMARK  Name = 
REMARK  1 active torsions:
REMARK  status: ('A' for Active; 'I' for Inactive)
REMARK    1  A    between atoms: O_1  and  C_2
REMARK                            x       y       z     vdW  Elec       q    Type
REMARK                         _______ _______ _______ _____ _____    ______ ____
ROOT
ATOM      1  C   UNL     1       5.308   5.531  15.802  0.00  0.00    +0.000 A 
ATOM      2  C   UNL     1       5.428   4.151  15.929  0.00  0.00    +0.000 A 
ATOM      3  C   UNL     1       4.869   3.489  17.026  0.00  0.00    +0.000 A 
ATOM      4  C   UNL     1       4.193   4.259  17.986  0.00  0.00    +0.000 A 
ATOM      5  C   UNL     1       4.053   5.653  17.864  0.00  0.00    +0.000 A 
ATOM      6  C   UNL     1       4.624   6.294  16.748  0.00  0.00    +0.000 A 
ATOM      7  C   UNL     1       3.268   6.097  18.967  0.00  0.00    +0.000 A 
ATOM      8  C   UNL     1       3.009   4.995  19.739  0.00  0.00    +0.000 A 
ATOM      9  N   UNL     1       3.546   3.896  19.145  0.00  0.00    +0.000 N 
ATOM     10  C   UNL     1       3.309   2.560  19.661  0.00  0.00    +0.000 C 
ATOM     11  C   UNL     1       2.755   2.619  21.095  0.00  0.00    +0.000 C 
ATOM     12  N   UNL     1       1.672   3.614  21.230  0.00  0.00    +0.000 NA
ATOM     13  C   UNL     1       2.194   4.962  20.977  0.00  0.00    +0.000 C 
ATOM     14  C   UNL     1       1.072   6.002  20.785  0.00  0.00    +0.000 C 
ATOM     15  C   UNL     1       1.647   7.399  20.434  0.00  0.00    +0.000 C 
ATOM     16  C   UNL     1       2.709   7.439  19.298  0.00  0.00    +0.000 C 
ATOM     17  H   UNL     1       1.294   3.585  22.173  0.00  0.00    +0.000 HD
ENDROOT
BRANCH   1  18
ATOM     18  O   UNL     1       5.854   6.191  14.738  0.00  0.00    +0.000 OA
ATOM     19  H   UNL     1       5.556   7.114  14.762  0.00  0.00    +0.000 HD
ENDBRANCH   1  18
TORSDOF 1
ENDMDL
MODEL 9
REMARK VINA RESULT:      -6.5      2.928      4.204
REMARK  Name = 
REMARK  1 active torsions:
REMARK  status: ('A' for Active; 'I' for Inactive)
REMARK    1  A    between atoms: O_1  and  C_2
REMARK                            x       y       z     vdW  Elec       q    Type
REMARK                         _______ _______ _______ _____ _____    ______ ____
ROOT
ATOM      1  C   UNL     1       1.707   3.785  19.426  0.00  0.00    +0.000 A 
ATOM      2  C   UNL     1       1.391   3.340  18.147  0.00  0.00    +0.000 A 
ATOM      3  C   UNL     1       2.313   3.468  17.104  0.00  0.00    +0.000 A 
ATOM      4  C   UNL     1       3.555   4.058  17.390  0.00  0.00    +0.000 A 
ATOM      5  C   UNL     1       3.893   4.501  18.681  0.00  0.00    +0.000 A 
ATOM      6  C   UNL     1       2.946   4.358  19.714  0.00  0.00    +0.000 A 
ATOM      7  C   UNL     1       5.233   4.981  18.626  0.00  0.00    +0.000 A 
ATOM      8  C   UNL     1       5.640   4.872  17.322  0.00  0.00    +0.000 A 
ATOM      9  N   UNL     1       4.646   4.305  16.588  0.00  0.00    +0.000 N 
ATOM     10  C   UNL     1       4.841   3.933  15.199  0.00  0.00    +0.000 C 
ATOM     11  C   UNL     1       6.101   4.607  14.626  0.00  0.00    +0.000 C 
ATOM     12  N   UNL     1       7.254   4.495  15.541  0.00  0.00    +0.000 NA
ATOM     13  C   UNL     1       6.979   5.219  16.787  0.00  0.00    +0.000 C 
ATOM     14  C   UNL     1       7.991   4.881  17.901  0.00  0.00    +0.000 C 
ATOM     15  C   UNL     1       7.628   5.590  19.232  0.00  0.00    +0.000 C 
ATOM     16  C   UNL     1       6.150   5.462  19.698  0.00  0.00    +0.000 C 
ATOM     17  H   UNL     1       8.079   4.900  15.106  0.00  0.00    +0.000 HD
ENDROOT
BRANCH   1  18
ATOM     18  O   UNL     1       0.813   3.672  20.453  0.00  0.00    +0.000 OA
ATOM     19  H   UNL     1       1.254   3.228  21.196  0.00  0.00    +0.000 HD
ENDBRANCH   1  18
TORSDOF 1
ENDMDL
