MODEL 1
REMARK VINA RESULT:      -6.8      0.000      0.000
REMARK  Name = 
REMARK  12 active torsions:
REMARK  status: ('A' for Active; 'I' for Inactive)
REMARK    1  A    between atoms: C_1  and  C_2
REMARK    2  A    between atoms: C_2  and  C_3
REMARK    3  A    between atoms: C_3  and  C_4
REMARK    4  A    between atoms: C_4  and  C_5
REMARK    5  A    between atoms: C_5  and  C_6
REMARK    6  A    between atoms: C_6  and  C_7
REMARK    7  A    between atoms: C_7  and  C_8
REMARK    8  A    between atoms: C_8  and  O_9
REMARK    9  A    between atoms: O_9  and  C_10
REMARK   10  A    between atoms: C_10  and  C_12
REMARK   11  A    between atoms: C_12  and  C_13
REMARK   12  A    between atoms: C_12  and  C_14
REMARK                            x       y       z     vdW  Elec       q    Type
REMARK                         _______ _______ _______ _____ _____    ______ ____
ROOT
ATOM      1  C   UNL     1       5.320   4.670  19.209  0.00  0.00    +0.000 C 
ATOM      2  O   UNL     1       5.427   3.457  19.391  0.00  0.00    +0.000 OA
ENDROOT
BRANCH   1   3
ATOM      3  C   UNL     1       4.031   5.449  19.408  0.00  0.00    +0.000 C 
ATOM      4  C   UNL     1       3.835   6.465  18.276  0.00  0.00    +0.000 C 
BRANCH   3   5
ATOM      5  C   UNL     1       2.825   4.533  19.504  0.00  0.00    +0.000 A 
ATOM      6  C   UNL     1       2.282   3.957  18.346  0.00  0.00    +0.000 A 
ATOM      7  C   UNL     1       1.179   3.106  18.431  0.00  0.00    +0.000 A 
ATOM      8  C   UNL     1       0.608   2.819  19.669  0.00  0.00    +0.000 A 
ATOM      9  C   UNL     1       1.145   3.377  20.827  0.00  0.00    +0.000 A 
ATOM     10  C   UNL     1       2.248   4.226  20.747  0.00  0.00    +0.000 A 
ENDBRANCH   3   5
ENDBRANCH   1   3
BRANCH   1  11
ATOM     11  O   UNL     1       6.345   5.488  18.830  0.00  0.00    +0.000 OA
BRANCH  11  12
ATOM     12  C   UNL     1       7.087   5.011  17.696  0.00  0.00    +0.000 C 
BRANCH  12  13
ATOM     13  C   UNL     1       7.009   6.022  16.558  0.00  0.00    +0.000 C 
BRANCH  13  14
ATOM     14  C   UNL     1       6.090   5.513  15.455  0.00  0.00    +0.000 C 
BRANCH  14  15
ATOM     15  C   UNL     1       6.888   4.861  14.330  0.00  0.00    +0.000 C 
BRANCH  15  16
ATOM     16  C   UNL     1       6.158   3.637  13.780  0.00  0.00    +0.000 C 
BRANCH  16  17
ATOM     17  C   UNL     1       6.401   3.492  12.279  0.00  0.00    +0.000 C 
BRANCH  17  19
ATOM     18  C   UNL     1       4.134   3.219  11.232  0.00  0.00    +0.000 C 
ATOM     19  C   UNL     1       5.415   2.514  11.646  0.00  0.00    +0.000 C 
ENDBRANCH  17  19
ENDBRANCH  16  17
ENDBRANCH  15  16
ENDBRANCH  14  15
ENDBRANCH  13  14
ENDBRANCH  12  13
ENDBRANCH  11  12
ENDBRANCH   1  11
TORSDOF 10
ENDMDL
MODEL 2
REMARK VINA RESULT:      -6.6      1.739      2.643
REMARK  Name = 
REMARK  12 active torsions:
REMARK  status: ('A' for Active; 'I' for Inactive)
REMARK    1  A    between atoms: C_1  and  C_2
REMARK    2  A    between atoms: C_2  and  C_3
REMARK    3  A    between atoms: C_3  and  C_4
REMARK    4  A    between atoms: C_4  and  C_5
REMARK    5  A    between atoms: C_5  and  C_6
REMARK    6  A    between atoms: C_6  and  C_7
REMARK    7  A    between atoms: C_7  and  C_8
REMARK    8  A    between atoms: C_8  and  O_9
REMARK    9  A    between atoms: O_9  and  C_10
REMARK   10  A    between atoms: C_10  and  C_12
REMARK   11  A    between atoms: C_12  and  C_13
REMARK   12  A    between atoms: C_12  and  C_14
REMARK                            x       y       z     vdW  Elec       q    Type
REMARK                         _______ _______ _______ _____ _____    ______ ____
ROOT
ATOM      1  C   UNL     1       5.080   6.210  16.678  0.00  0.00    +0.000 C 
ATOM      2  O   UNL     1       4.936   7.023  15.765  0.00  0.00    +0.000 OA
ENDROOT
BRANCH   1   3
ATOM      3  C   UNL     1       4.211   6.168  17.923  0.00  0.00    +0.000 C 
ATOM      4  C   UNL     1       3.249   7.363  17.950  0.00  0.00    +0.000 C 
BRANCH   3   5
ATOM      5  C   UNL     1       3.434   4.869  18.029  0.00  0.00    +0.000 A 
ATOM      6  C   UNL     1       4.101   3.667  18.308  0.00  0.00    +0.000 A 
ATOM      7  C   UNL     1       3.388   2.472  18.417  0.00  0.00    +0.000 A 
ATOM      8  C   UNL     1       2.005   2.463  18.250  0.00  0.00    +0.000 A 
ATOM      9  C   UNL     1       1.329   3.652  17.983  0.00  0.00    +0.000 A 
ATOM     10  C   UNL     1       2.038   4.848  17.876  0.00  0.00    +0.000 A 
ENDBRANCH   3   5
ENDBRANCH   1   3
BRANCH   1  11
ATOM     11  O   UNL     1       6.020   5.221  16.690  0.00  0.00    +0.000 OA
BRANCH  11  12
ATOM     12  C   UNL     1       6.720   5.062  15.447  0.00  0.00    +0.000 C 
BRANCH  12  13
ATOM     13  C   UNL     1       6.140   3.888  14.666  0.00  0.00    +0.000 C 
BRANCH  13  14
ATOM     14  C   UNL     1       5.929   4.269  13.207  0.00  0.00    +0.000 C 
BRANCH  14  15
ATOM     15  C   UNL     1       6.360   3.142  12.274  0.00  0.00    +0.000 C 
BRANCH  15  16
ATOM     16  C   UNL     1       5.161   2.567  11.522  0.00  0.00    +0.000 C 
BRANCH  16  17
ATOM     17  C   UNL     1       4.108   3.645  11.278  0.00  0.00    +0.000 C 
BRANCH  17  19
ATOM     18  C   UNL     1       2.700   4.451   9.360  0.00  0.00    +0.000 C 
ATOM     19  C   UNL     1       3.144   3.242  10.165  0.00  0.00    +0.000 C 
ENDBRANCH  17  19
ENDBRANCH  16  17
ENDBRANCH  15  16
ENDBRANCH  14  15
ENDBRANCH  13  14
ENDBRANCH  12  13
ENDBRANCH  11  12
ENDBRANCH   1  11
TORSDOF 10
ENDMDL
MODEL 3
REMARK VINA RESULT:      -6.5      1.151      1.959
REMARK  Name = 
REMARK  12 active torsions:
REMARK  status: ('A' for Active; 'I' for Inactive)
REMARK    1  A    between atoms: C_1  and  C_2
REMARK    2  A    between atoms: C_2  and  C_3
REMARK    3  A    between atoms: C_3  and  C_4
REMARK    4  A    between atoms: C_4  and  C_5
REMARK    5  A    between atoms: C_5  and  C_6
REMARK    6  A    between atoms: C_6  and  C_7
REMARK    7  A    between atoms: C_7  and  C_8
REMARK    8  A    between atoms: C_8  and  O_9
REMARK    9  A    between atoms: O_9  and  C_10
REMARK   10  A    between atoms: C_10  and  C_12
REMARK   11  A    between atoms: C_12  and  C_13
REMARK   12  A    between atoms: C_12  and  C_14
REMARK                            x       y       z     vdW  Elec       q    Type
REMARK                         _______ _______ _______ _____ _____    ______ ____
ROOT
ATOM      1  C   UNL     1       4.306   6.361  17.931  0.00  0.00    +0.000 C 
ATOM      2  O   UNL     1       4.432   6.952  16.857  0.00  0.00    +0.000 OA
ENDROOT
BRANCH   1   3
ATOM      3  C   UNL     1       3.164   6.599  18.903  0.00  0.00    +0.000 C 
ATOM      4  C   UNL     1       2.230   7.698  18.380  0.00  0.00    +0.000 C 
BRANCH   3   5
ATOM      5  C   UNL     1       2.376   5.330  19.174  0.00  0.00    +0.000 A 
ATOM      6  C   UNL     1       2.049   4.969  20.489  0.00  0.00    +0.000 A 
ATOM      7  C   UNL     1       1.315   3.809  20.742  0.00  0.00    +0.000 A 
ATOM      8  C   UNL     1       0.899   3.000  19.687  0.00  0.00    +0.000 A 
ATOM      9  C   UNL     1       1.208   3.353  18.376  0.00  0.00    +0.000 A 
ATOM     10  C   UNL     1       1.939   4.512  18.119  0.00  0.00    +0.000 A 
ENDBRANCH   3   5
ENDBRANCH   1   3
BRANCH   1  11
ATOM     11  O   UNL     1       5.157   5.396  18.385  0.00  0.00    +0.000 OA
BRANCH  11  12
ATOM     12  C   UNL     1       6.548   5.719  18.229  0.00  0.00    +0.000 C 
BRANCH  12  13
ATOM     13  C   UNL     1       7.291   4.544  17.605  0.00  0.00    +0.000 C 
BRANCH  13  14
ATOM     14  C   UNL     1       6.730   4.230  16.224  0.00  0.00    +0.000 C 
BRANCH  14  15
ATOM     15  C   UNL     1       7.013   5.363  15.243  0.00  0.00    +0.000 C 
BRANCH  15  16
ATOM     16  C   UNL     1       6.894   4.880  13.799  0.00  0.00    +0.000 C 
BRANCH  16  17
ATOM     17  C   UNL     1       5.934   3.695  13.704  0.00  0.00    +0.000 C 
BRANCH  17  19
ATOM     18  C   UNL     1       4.660   3.339  11.568  0.00  0.00    +0.000 C 
ATOM     19  C   UNL     1       5.958   3.070  12.312  0.00  0.00    +0.000 C 
ENDBRANCH  17  19
ENDBRANCH  16  17
ENDBRANCH  15  16
ENDBRANCH  14  15
ENDBRANCH  13  14
ENDBRANCH  12  13
ENDBRANCH  11  12
ENDBRANCH   1  11
TORSDOF 10
ENDMDL
MODEL 4
REMARK VINA RESULT:      -6.4      0.883      1.617
REMARK  Name = 
REMARK  12 active torsions:
REMARK  status: ('A' for Active; 'I' for Inactive)
REMARK    1  A    between atoms: C_1  and  C_2
REMARK    2  A    between atoms: C_2  and  C_3
REMARK    3  A    between atoms: C_3  and  C_4
REMARK    4  A    between atoms: C_4  and  C_5
REMARK    5  A    between atoms: C_5  and  C_6
REMARK    6  A    between atoms: C_6  and  C_7
REMARK    7  A    between atoms: C_7  and  C_8
REMARK    8  A    between atoms: C_8  and  O_9
REMARK    9  A    between atoms: O_9  and  C_10
REMARK   10  A    between atoms: C_10  and  C_12
REMARK   11  A    between atoms: C_12  and  C_13
REMARK   12  A    between atoms: C_12  and  C_14
REMARK                            x       y       z     vdW  Elec       q    Type
REMARK                         _______ _______ _______ _____ _____    ______ ____
ROOT
ATOM      1  C   UNL     1       5.543   5.063  19.044  0.00  0.00    +0.000 C 
ATOM      2  O   UNL     1       6.500   5.386  19.747  0.00  0.00    +0.000 OA
ENDROOT
BRANCH   1   3
ATOM      3  C   UNL     1       4.217   5.803  19.020  0.00  0.00    +0.000 C 
ATOM      4  C   UNL     1       4.042   6.555  17.695  0.00  0.00    +0.000 C 
BRANCH   3   5
ATOM      5  C   UNL     1       3.042   4.870  19.250  0.00  0.00    +0.000 A 
ATOM      6  C   UNL     1       2.609   4.587  20.553  0.00  0.00    +0.000 A 
ATOM      7  C   UNL     1       1.522   3.738  20.769  0.00  0.00    +0.000 A 
ATOM      8  C   UNL     1       0.856   3.165  19.687  0.00  0.00    +0.000 A 
ATOM      9  C   UNL     1       1.270   3.446  18.388  0.00  0.00    +0.000 A 
ATOM     10  C   UNL     1       2.354   4.295  18.169  0.00  0.00    +0.000 A 
ENDBRANCH   3   5
ENDBRANCH   1   3
BRANCH   1  11
ATOM     11  O   UNL     1       5.546   4.014  18.170  0.00  0.00    +0.000 OA
BRANCH  11  12
ATOM     12  C   UNL     1       6.288   4.257  16.965  0.00  0.00    +0.000 C 
BRANCH  12  13
ATOM     13  C   UNL     1       5.592   3.595  15.781  0.00  0.00    +0.000 C 
BRANCH  13  14
ATOM     14  C   UNL     1       5.530   4.550  14.596  0.00  0.00    +0.000 C 
BRANCH  14  15
ATOM     15  C   UNL     1       6.838   4.540  13.811  0.00  0.00    +0.000 C 
BRANCH  15  16
ATOM     16  C   UNL     1       6.591   4.208  12.341  0.00  0.00    +0.000 C 
BRANCH  16  17
ATOM     17  C   UNL     1       6.622   2.698  12.115  0.00  0.00    +0.000 C 
BRANCH  17  19
ATOM     18  C   UNL     1       4.297   3.300  11.380  0.00  0.00    +0.000 C 
ATOM     19  C   UNL     1       5.359   2.213  11.409  0.00  0.00    +0.000 C 
ENDBRANCH  17  19
ENDBRANCH  16  17
ENDBRANCH  15  16
ENDBRANCH  14  15
ENDBRANCH  13  14
ENDBRANCH  12  13
ENDBRANCH  11  12
ENDBRANCH   1  11
TORSDOF 10
ENDMDL
MODEL 5
REMARK VINA RESULT:      -6.4      1.216      6.755
REMARK  Name = 
REMARK  12 active torsions:
REMARK  status: ('A' for Active; 'I' for Inactive)
REMARK    1  A    between atoms: C_1  and  C_2
REMARK    2  A    between atoms: C_2  and  C_3
REMARK    3  A    between atoms: C_3  and  C_4
REMARK    4  A    between atoms: C_4  and  C_5
REMARK    5  A    between atoms: C_5  and  C_6
REMARK    6  A    between atoms: C_6  and  C_7
REMARK    7  A    between atoms: C_7  and  C_8
REMARK    8  A    between atoms: C_8  and  O_9
REMARK    9  A    between atoms: O_9  and  C_10
REMARK   10  A    between atoms: C_10  and  C_12
REMARK   11  A    between atoms: C_12  and  C_13
REMARK   12  A    between atoms: C_12  and  C_14
REMARK                            x       y       z     vdW  Elec       q    Type
REMARK                         _______ _______ _______ _____ _____    ______ ____
ROOT
ATOM      1  C   UNL     1       6.856   5.585  16.772  0.00  0.00    +0.000 C 
ATOM      2  O   UNL     1       7.685   6.494  16.731  0.00  0.00    +0.000 OA
ENDROOT
BRANCH   1   3
ATOM      3  C   UNL     1       5.708   5.437  15.789  0.00  0.00    +0.000 C 
ATOM      4  C   UNL     1       4.989   6.777  15.593  0.00  0.00    +0.000 C 
BRANCH   3   5
ATOM      5  C   UNL     1       6.174   4.893  14.450  0.00  0.00    +0.000 A 
ATOM      6  C   UNL     1       7.353   5.374  13.864  0.00  0.00    +0.000 A 
ATOM      7  C   UNL     1       7.791   4.869  12.639  0.00  0.00    +0.000 A 
ATOM      8  C   UNL     1       7.059   3.878  11.987  0.00  0.00    +0.000 A 
ATOM      9  C   UNL     1       5.891   3.385  12.564  0.00  0.00    +0.000 A 
ATOM     10  C   UNL     1       5.452   3.885  13.789  0.00  0.00    +0.000 A 
ENDBRANCH   3   5
ENDBRANCH   1   3
BRANCH   1  11
ATOM     11  O   UNL     1       6.866   4.571  17.686  0.00  0.00    +0.000 OA
BRANCH  11  12
ATOM     12  C   UNL     1       5.562   4.182  18.144  0.00  0.00    +0.000 C 
BRANCH  12  13
ATOM     13  C   UNL     1       5.084   5.136  19.232  0.00  0.00    +0.000 C 
BRANCH  13  14
ATOM     14  C   UNL     1       3.597   5.424  19.075  0.00  0.00    +0.000 C 
BRANCH  14  15
ATOM     15  C   UNL     1       2.994   4.603  17.939  0.00  0.00    +0.000 C 
BRANCH  15  16
ATOM     16  C   UNL     1       1.538   4.247  18.235  0.00  0.00    +0.000 C 
BRANCH  16  17
ATOM     17  C   UNL     1       1.293   4.179  19.741  0.00  0.00    +0.000 C 
BRANCH  17  19
ATOM     18  C   UNL     1       1.694   2.667  21.706  0.00  0.00    +0.000 C 
ATOM     19  C   UNL     1       1.294   2.738  20.242  0.00  0.00    +0.000 C 
ENDBRANCH  17  19
ENDBRANCH  16  17
ENDBRANCH  15  16
ENDBRANCH  14  15
ENDBRANCH  13  14
ENDBRANCH  12  13
ENDBRANCH  11  12
ENDBRANCH   1  11
TORSDOF 10
ENDMDL
MODEL 6
REMARK VINA RESULT:      -6.4      1.269      1.885
REMARK  Name = 
REMARK  12 active torsions:
REMARK  status: ('A' for Active; 'I' for Inactive)
REMARK    1  A    between atoms: C_1  and  C_2
REMARK    2  A    between atoms: C_2  and  C_3
REMARK    3  A    between atoms: C_3  and  C_4
REMARK    4  A    between atoms: C_4  and  C_5
REMARK    5  A    between atoms: C_5  and  C_6
REMARK    6  A    between atoms: C_6  and  C_7
REMARK    7  A    between atoms: C_7  and  C_8
REMARK    8  A    between atoms: C_8  and  O_9
REMARK    9  A    between atoms: O_9  and  C_10
REMARK   10  A    between atoms: C_10  and  C_12
REMARK   11  A    between atoms: C_12  and  C_13
REMARK   12  A    between atoms: C_12  and  C_14
REMARK                            x       y       z     vdW  Elec       q    Type
REMARK                         _______ _______ _______ _____ _____    ______ ____
ROOT
ATOM      1  C   UNL     1       5.370   4.370  18.355  0.00  0.00    +0.000 C 
ATOM      2  O   UNL     1       5.780   4.421  19.515  0.00  0.00    +0.000 OA
ENDROOT
BRANCH   1   3
ATOM      3  C   UNL     1       3.946   4.005  17.973  0.00  0.00    +0.000 C 
ATOM      4  C   UNL     1       3.933   2.783  17.047  0.00  0.00    +0.000 C 
BRANCH   3   5
ATOM      5  C   UNL     1       3.080   3.746  19.193  0.00  0.00    +0.000 A 
ATOM      6  C   UNL     1       3.411   2.719  20.089  0.00  0.00    +0.000 A 
ATOM      7  C   UNL     1       2.624   2.484  21.217  0.00  0.00    +0.000 A 
ATOM      8  C   UNL     1       1.501   3.272  21.465  0.00  0.00    +0.000 A 
ATOM      9  C   UNL     1       1.168   4.302  20.588  0.00  0.00    +0.000 A 
ATOM     10  C   UNL     1       1.954   4.541  19.461  0.00  0.00    +0.000 A 
ENDBRANCH   3   5
ENDBRANCH   1   3
BRANCH   1  11
ATOM     11  O   UNL     1       6.125   4.658  17.256  0.00  0.00    +0.000 OA
BRANCH  11  12
ATOM     12  C   UNL     1       5.902   5.970  16.717  0.00  0.00    +0.000 C 
BRANCH  12  13
ATOM     13  C   UNL     1       5.504   5.872  15.249  0.00  0.00    +0.000 C 
BRANCH  13  14
ATOM     14  C   UNL     1       6.476   4.978  14.491  0.00  0.00    +0.000 C 
BRANCH  14  15
ATOM     15  C   UNL     1       5.749   3.816  13.821  0.00  0.00    +0.000 C 
BRANCH  15  16
ATOM     16  C   UNL     1       6.422   3.437  12.503  0.00  0.00    +0.000 C 
BRANCH  16  17
ATOM     17  C   UNL     1       5.425   2.764  11.561  0.00  0.00    +0.000 C 
BRANCH  17  19
ATOM     18  C   UNL     1       3.343   3.297  10.262  0.00  0.00    +0.000 C 
ATOM     19  C   UNL     1       4.073   3.472  11.582  0.00  0.00    +0.000 C 
ENDBRANCH  17  19
ENDBRANCH  16  17
ENDBRANCH  15  16
ENDBRANCH  14  15
ENDBRANCH  13  14
ENDBRANCH  12  13
ENDBRANCH  11  12
ENDBRANCH   1  11
TORSDOF 10
ENDMDL
MODEL 7
REMARK VINA RESULT:      -6.3      1.088      1.521
REMARK  Name = 
REMARK  12 active torsions:
REMARK  status: ('A' for Active; 'I' for Inactive)
REMARK    1  A    between atoms: C_1  and  C_2
REMARK    2  A    between atoms: C_2  and  C_3
REMARK    3  A    between atoms: C_3  and  C_4
REMARK    4  A    between atoms: C_4  and  C_5
REMARK    5  A    between atoms: C_5  and  C_6
REMARK    6  A    between atoms: C_6  and  C_7
REMARK    7  A    between atoms: C_7  and  C_8
REMARK    8  A    between atoms: C_8  and  O_9
REMARK    9  A    between atoms: O_9  and  C_10
REMARK   10  A    between atoms: C_10  and  C_12
REMARK   11  A    between atoms: C_12  and  C_13
REMARK   12  A    between atoms: C_12  and  C_14
REMARK                            x       y       z     vdW  Elec       q    Type
REMARK                         _______ _______ _______ _____ _____    ______ ____
ROOT
ATOM      1  C   UNL     1       5.045   4.139  18.163  0.00  0.00    +0.000 C 
ATOM      2  O   UNL     1       4.562   3.277  17.428  0.00  0.00    +0.000 OA
ENDROOT
BRANCH   1   3
ATOM      3  C   UNL     1       4.223   5.049  19.060  0.00  0.00    +0.000 C 
ATOM      4  C   UNL     1       3.575   6.171  18.240  0.00  0.00    +0.000 C 
BRANCH   3   5
ATOM      5  C   UNL     1       3.161   4.281  19.826  0.00  0.00    +0.000 A 
ATOM      6  C   UNL     1       3.531   3.282  20.738  0.00  0.00    +0.000 A 
ATOM      7  C   UNL     1       2.558   2.582  21.452  0.00  0.00    +0.000 A 
ATOM      8  C   UNL     1       1.208   2.872  21.267  0.00  0.00    +0.000 A 
ATOM      9  C   UNL     1       0.828   3.869  20.372  0.00  0.00    +0.000 A 
ATOM     10  C   UNL     1       1.797   4.573  19.658  0.00  0.00    +0.000 A 
ENDBRANCH   3   5
ENDBRANCH   1   3
BRANCH   1  11
ATOM     11  O   UNL     1       6.382   4.381  18.294  0.00  0.00    +0.000 OA
BRANCH  11  12
ATOM     12  C   UNL     1       7.093   4.437  17.048  0.00  0.00    +0.000 C 
BRANCH  12  13
ATOM     13  C   UNL     1       6.704   5.695  16.280  0.00  0.00    +0.000 C 
BRANCH  13  14
ATOM     14  C   UNL     1       6.017   5.331  14.971  0.00  0.00    +0.000 C 
BRANCH  14  15
ATOM     15  C   UNL     1       6.369   3.910  14.540  0.00  0.00    +0.000 C 
BRANCH  15  16
ATOM     16  C   UNL     1       6.328   3.774  13.019  0.00  0.00    +0.000 C 
BRANCH  16  17
ATOM     17  C   UNL     1       4.890   3.627  12.528  0.00  0.00    +0.000 C 
BRANCH  17  19
ATOM     18  C   UNL     1       5.868   1.636  11.351  0.00  0.00    +0.000 C 
ATOM     19  C   UNL     1       4.809   2.724  11.300  0.00  0.00    +0.000 C 
ENDBRANCH  17  19
ENDBRANCH  16  17
ENDBRANCH  15  16
ENDBRANCH  14  15
ENDBRANCH  13  14
ENDBRANCH  12  13
ENDBRANCH  11  12
ENDBRANCH   1  11
TORSDOF 10
ENDMDL
MODEL 8
REMARK VINA RESULT:      -6.3      4.040      6.625
REMARK  Name = 
REMARK  12 active torsions:
REMARK  status: ('A' for Active; 'I' for Inactive)
REMARK    1  A    between atoms: C_1  and  C_2
REMARK    2  A    between atoms: C_2  and  C_3
REMARK    3  A    between atoms: C_3  and  C_4
REMARK    4  A    between atoms: C_4  and  C_5
REMARK    5  A    between atoms: C_5  and  C_6
REMARK    6  A    between atoms: C_6  and  C_7
REMARK    7  A    between atoms: C_7  and  C_8
REMARK    8  A    between atoms: C_8  and  O_9
REMARK    9  A    between atoms: O_9  and  C_10
REMARK   10  A    between atoms: C_10  and  C_12
REMARK   11  A    between atoms: C_12  and  C_13
REMARK   12  A    between atoms: C_12  and  C_14
REMARK                            x       y       z     vdW  Elec       q    Type
REMARK                         _______ _______ _______ _____ _____    ______ ____
ROOT
ATOM      1  C   UNL     1       7.128   5.405  16.486  0.00  0.00    +0.000 C 
ATOM      2  O   UNL     1       7.632   4.413  17.013  0.00  0.00    +0.000 OA
ENDROOT
BRANCH   1   3
ATOM      3  C   UNL     1       5.817   5.387  15.719  0.00  0.00    +0.000 C 
ATOM      4  C   UNL     1       5.794   4.225  14.718  0.00  0.00    +0.000 C 
BRANCH   3   5
ATOM      5  C   UNL     1       4.618   5.300  16.647  0.00  0.00    +0.000 A 
ATOM      6  C   UNL     1       4.145   6.448  17.298  0.00  0.00    +0.000 A 
ATOM      7  C   UNL     1       3.036   6.375  18.144  0.00  0.00    +0.000 A 
ATOM      8  C   UNL     1       2.388   5.158  18.345  0.00  0.00    +0.000 A 
ATOM      9  C   UNL     1       2.842   4.013  17.696  0.00  0.00    +0.000 A 
ATOM     10  C   UNL     1       3.948   4.082  16.849  0.00  0.00    +0.000 A 
ENDBRANCH   3   5
ENDBRANCH   1   3
BRANCH   1  11
ATOM     11  O   UNL     1       7.660   6.661  16.537  0.00  0.00    +0.000 OA
BRANCH  11  12
ATOM     12  C   UNL     1       7.788   7.190  17.866  0.00  0.00    +0.000 C 
BRANCH  12  13
ATOM     13  C   UNL     1       7.379   8.659  17.885  0.00  0.00    +0.000 C 
BRANCH  13  14
ATOM     14  C   UNL     1       8.606   9.556  17.776  0.00  0.00    +0.000 C 
BRANCH  14  15
ATOM     15  C   UNL     1       9.073  10.021  19.152  0.00  0.00    +0.000 C 
BRANCH  15  16
ATOM     16  C   UNL     1      10.178  11.068  19.029  0.00  0.00    +0.000 C 
BRANCH  16  17
ATOM     17  C   UNL     1       9.612  12.396  18.530  0.00  0.00    +0.000 C 
BRANCH  17  19
ATOM     18  C   UNL     1      11.936  12.799  17.667  0.00  0.00    +0.000 C 
ATOM     19  C   UNL     1      10.452  12.967  17.390  0.00  0.00    +0.000 C 
ENDBRANCH  17  19
ENDBRANCH  16  17
ENDBRANCH  15  16
ENDBRANCH  14  15
ENDBRANCH  13  14
ENDBRANCH  12  13
ENDBRANCH  11  12
ENDBRANCH   1  11
TORSDOF 10
ENDMDL
MODEL 9
REMARK VINA RESULT:      -6.3      3.366      5.857
REMARK  Name = 
REMARK  12 active torsions:
REMARK  status: ('A' for Active; 'I' for Inactive)
REMARK    1  A    between atoms: C_1  and  C_2
REMARK    2  A    between atoms: C_2  and  C_3
REMARK    3  A    between atoms: C_3  and  C_4
REMARK    4  A    between atoms: C_4  and  C_5
REMARK    5  A    between atoms: C_5  and  C_6
REMARK    6  A    between atoms: C_6  and  C_7
REMARK    7  A    between atoms: C_7  and  C_8
REMARK    8  A    between atoms: C_8  and  O_9
REMARK    9  A    between atoms: O_9  and  C_10
REMARK   10  A    between atoms: C_10  and  C_12
REMARK   11  A    between atoms: C_12  and  C_13
REMARK   12  A    between atoms: C_12  and  C_14
REMARK                            x       y       z     vdW  Elec       q    Type
REMARK                         _______ _______ _______ _____ _____    ______ ____
ROOT
ATOM      1  C   UNL     1       5.033   5.429  18.841  0.00  0.00    +0.000 C 
ATOM      2  O   UNL     1       5.835   5.178  19.741  0.00  0.00    +0.000 OA
ENDROOT
BRANCH   1   3
ATOM      3  C   UNL     1       3.630   5.961  19.077  0.00  0.00    +0.000 C 
ATOM      4  C   UNL     1       3.198   6.874  17.923  0.00  0.00    +0.000 C 
BRANCH   3   5
ATOM      5  C   UNL     1       2.622   4.842  19.263  0.00  0.00    +0.000 A 
ATOM      6  C   UNL     1       2.109   4.557  20.537  0.00  0.00    +0.000 A 
ATOM      7  C   UNL     1       1.174   3.536  20.711  0.00  0.00    +0.000 A 
ATOM      8  C   UNL     1       0.740   2.790  19.617  0.00  0.00    +0.000 A 
ATOM      9  C   UNL     1       1.234   3.069  18.345  0.00  0.00    +0.000 A 
ATOM     10  C   UNL     1       2.166   4.091  18.167  0.00  0.00    +0.000 A 
ENDBRANCH   3   5
ENDBRANCH   1   3
BRANCH   1  11
ATOM     11  O   UNL     1       5.297   5.289  17.509  0.00  0.00    +0.000 OA
BRANCH  11  12
ATOM     12  C   UNL     1       6.588   5.777  17.113  0.00  0.00    +0.000 C 
BRANCH  12  13
ATOM     13  C   UNL     1       6.652   7.290  17.290  0.00  0.00    +0.000 C 
BRANCH  13  14
ATOM     14  C   UNL     1       7.961   7.695  17.955  0.00  0.00    +0.000 C 
BRANCH  14  15
ATOM     15  C   UNL     1       8.162   9.206  17.903  0.00  0.00    +0.000 C 
BRANCH  15  16
ATOM     16  C   UNL     1       8.995   9.688  19.089  0.00  0.00    +0.000 C 
BRANCH  16  17
ATOM     17  C   UNL     1       9.817  10.918  18.708  0.00  0.00    +0.000 C 
BRANCH  17  19
ATOM     18  C   UNL     1      10.777  12.970  19.791  0.00  0.00    +0.000 C 
ATOM     19  C   UNL     1      10.586  11.468  19.906  0.00  0.00    +0.000 C 
ENDBRANCH  17  19
ENDBRANCH  16  17
ENDBRANCH  15  16
ENDBRANCH  14  15
ENDBRANCH  13  14
ENDBRANCH  12  13
ENDBRANCH  11  12
ENDBRANCH   1  11
TORSDOF 10
ENDMDL
