MODEL 1
REMARK VINA RESULT:      -8.9      0.000      0.000
REMARK  Name = 
REMARK  7 active torsions:
REMARK  status: ('A' for Active; 'I' for Inactive)
REMARK    1  A    between atoms: C_1  and  S_2
REMARK    2  A    between atoms: S_2  and  C_3
REMARK    3  A    between atoms: C_6  and  C_7
REMARK    4  A    between atoms: N_8  and  N_9
REMARK    5  A    between atoms: N_12  and  C_13
REMARK    6  A    between atoms: C_18  and  O_19
REMARK    7  A    between atoms: O_19  and  C_20
REMARK                            x       y       z     vdW  Elec       q    Type
REMARK                         _______ _______ _______ _____ _____    ______ ____
ROOT
ATOM      1  N   UNL     1       8.537   8.122  18.838  0.00  0.00    +0.000 N 
ATOM      2  C   UNL     1       7.721   7.479  17.914  0.00  0.00    +0.000 C 
ATOM      3  O   UNL     1       7.355   7.983  16.855  0.00  0.00    +0.000 OA
ATOM      4  N   UNL     1       7.333   6.218  18.358  0.00  0.00    +0.000 N 
ATOM      5  H   UNL     1       9.114   7.552  19.441  0.00  0.00    +0.000 HD
ATOM      6  H   UNL     1       7.096   6.214  19.343  0.00  0.00    +0.000 HD
ENDROOT
BRANCH   4   7
ATOM      7  C   UNL     1       6.504   5.411  17.536  0.00  0.00    +0.000 A 
ATOM      8  C   UNL     1       7.043   4.841  16.374  0.00  0.00    +0.000 A 
ATOM      9  C   UNL     1       6.266   4.025  15.549  0.00  0.00    +0.000 A 
ATOM     10  C   UNL     1       4.940   3.766  15.880  0.00  0.00    +0.000 A 
ATOM     11  C   UNL     1       4.386   4.334  17.028  0.00  0.00    +0.000 A 
ATOM     12  C   UNL     1       5.152   5.176  17.848  0.00  0.00    +0.000 A 
BRANCH  12  13
ATOM     13  O   UNL     1       4.485   5.695  18.938  0.00  0.00    +0.000 OA
BRANCH  13  14
ATOM     14  C   UNL     1       3.593   4.913  19.645  0.00  0.00    +0.000 A 
ATOM     15  C   UNL     1       3.803   3.588  20.025  0.00  0.00    +0.000 A 
ATOM     16  C   UNL     1       2.753   2.841  20.561  0.00  0.00    +0.000 A 
ATOM     17  C   UNL     1       1.520   3.443  20.804  0.00  0.00    +0.000 A 
ATOM     18  C   UNL     1       1.339   4.796  20.524  0.00  0.00    +0.000 A 
ATOM     19  C   UNL     1       2.372   5.529  19.938  0.00  0.00    +0.000 A 
ENDBRANCH  13  14
ENDBRANCH  12  13
ENDBRANCH   4   7
BRANCH   1  21
ATOM     20  C   UNL     1       9.397  10.112  19.520  0.00  0.00    +0.000 C 
ATOM     21  N   UNL     1       8.913   9.401  18.556  0.00  0.00    +0.000 NA
BRANCH  20  25
ATOM     22  C   UNL     1      10.894  14.045  18.743  0.00  0.00    +0.000 A 
ATOM     23  C   UNL     1      10.259  13.323  17.726  0.00  0.00    +0.000 A 
ATOM     24  C   UNL     1       9.750  12.048  17.981  0.00  0.00    +0.000 A 
ATOM     25  C   UNL     1       9.879  11.484  19.255  0.00  0.00    +0.000 A 
ATOM     26  C   UNL     1      10.510  12.196  20.278  0.00  0.00    +0.000 A 
ATOM     27  C   UNL     1      11.021  13.472  20.014  0.00  0.00    +0.000 A 
BRANCH  22  29
ATOM     28  C   UNL     1      10.732  16.082  16.903  0.00  0.00    +0.000 C 
ATOM     29  S   UNL     1      11.602  15.652  18.432  0.00  0.00    +0.000 S 
ENDBRANCH  22  29
ENDBRANCH  20  25
ENDBRANCH   1  21
TORSDOF 6
ENDMDL
MODEL 2
REMARK VINA RESULT:      -8.8      0.298      1.342
REMARK  Name = 
REMARK  7 active torsions:
REMARK  status: ('A' for Active; 'I' for Inactive)
REMARK    1  A    between atoms: C_1  and  S_2
REMARK    2  A    between atoms: S_2  and  C_3
REMARK    3  A    between atoms: C_6  and  C_7
REMARK    4  A    between atoms: N_8  and  N_9
REMARK    5  A    between atoms: N_12  and  C_13
REMARK    6  A    between atoms: C_18  and  O_19
REMARK    7  A    between atoms: O_19  and  C_20
REMARK                            x       y       z     vdW  Elec       q    Type
REMARK                         _______ _______ _______ _____ _____    ______ ____
ROOT
ATOM      1  N   UNL     1       8.560   8.099  18.788  0.00  0.00    +0.000 N 
ATOM      2  C   UNL     1       7.694   7.460  17.907  0.00  0.00    +0.000 C 
ATOM      3  O   UNL     1       7.208   7.996  16.914  0.00  0.00    +0.000 OA
ATOM      4  N   UNL     1       7.409   6.160  18.316  0.00  0.00    +0.000 N 
ATOM      5  H   UNL     1       9.218   7.531  19.304  0.00  0.00    +0.000 HD
ATOM      6  H   UNL     1       7.264   6.096  19.316  0.00  0.00    +0.000 HD
ENDROOT
BRANCH   4   7
ATOM      7  C   UNL     1       6.546   5.353  17.529  0.00  0.00    +0.000 A 
ATOM      8  C   UNL     1       7.021   4.824  16.321  0.00  0.00    +0.000 A 
ATOM      9  C   UNL     1       6.210   4.009  15.528  0.00  0.00    +0.000 A 
ATOM     10  C   UNL     1       4.915   3.709  15.939  0.00  0.00    +0.000 A 
ATOM     11  C   UNL     1       4.425   4.236  17.134  0.00  0.00    +0.000 A 
ATOM     12  C   UNL     1       5.224   5.077  17.923  0.00  0.00    +0.000 A 
BRANCH  12  13
ATOM     13  O   UNL     1       4.618   5.553  19.067  0.00  0.00    +0.000 OA
BRANCH  13  14
ATOM     14  C   UNL     1       3.541   4.884  19.614  0.00  0.00    +0.000 A 
ATOM     15  C   UNL     1       2.265   5.417  19.793  0.00  0.00    +0.000 A 
ATOM     16  C   UNL     1       1.314   4.714  20.535  0.00  0.00    +0.000 A 
ATOM     17  C   UNL     1       1.606   3.441  21.019  0.00  0.00    +0.000 A 
ATOM     18  C   UNL     1       2.845   2.862  20.750  0.00  0.00    +0.000 A 
ATOM     19  C   UNL     1       3.814   3.585  20.054  0.00  0.00    +0.000 A 
ENDBRANCH  13  14
ENDBRANCH  12  13
ENDBRANCH   4   7
BRANCH   1  21
ATOM     20  C   UNL     1       9.355  10.103  19.505  0.00  0.00    +0.000 C 
ATOM     21  N   UNL     1       8.848   9.408  18.542  0.00  0.00    +0.000 NA
BRANCH  20  25
ATOM     22  C   UNL     1      10.381  14.209  18.867  0.00  0.00    +0.000 A 
ATOM     23  C   UNL     1      10.790  13.557  20.036  0.00  0.00    +0.000 A 
ATOM     24  C   UNL     1      10.476  12.212  20.238  0.00  0.00    +0.000 A 
ATOM     25  C   UNL     1       9.744  11.511  19.274  0.00  0.00    +0.000 A 
ATOM     26  C   UNL     1       9.331  12.151  18.103  0.00  0.00    +0.000 A 
ATOM     27  C   UNL     1       9.647  13.500  17.909  0.00  0.00    +0.000 A 
BRANCH  22  29
ATOM     28  C   UNL     1      11.089  15.919  16.833  0.00  0.00    +0.000 C 
ATOM     29  S   UNL     1      10.720  15.940  18.607  0.00  0.00    +0.000 S 
ENDBRANCH  22  29
ENDBRANCH  20  25
ENDBRANCH   1  21
TORSDOF 6
ENDMDL
MODEL 3
REMARK VINA RESULT:      -8.5      0.794      1.280
REMARK  Name = 
REMARK  7 active torsions:
REMARK  status: ('A' for Active; 'I' for Inactive)
REMARK    1  A    between atoms: C_1  and  S_2
REMARK    2  A    between atoms: S_2  and  C_3
REMARK    3  A    between atoms: C_6  and  C_7
REMARK    4  A    between atoms: N_8  and  N_9
REMARK    5  A    between atoms: N_12  and  C_13
REMARK    6  A    between atoms: C_18  and  O_19
REMARK    7  A    between atoms: O_19  and  C_20
REMARK                            x       y       z     vdW  Elec       q    Type
REMARK                         _______ _______ _______ _____ _____    ______ ____
ROOT
ATOM      1  N   UNL     1       8.556   8.081  18.721  0.00  0.00    +0.000 N 
ATOM      2  C   UNL     1       7.708   7.455  17.814  0.00  0.00    +0.000 C 
ATOM      3  O   UNL     1       7.102   8.045  16.923  0.00  0.00    +0.000 OA
ATOM      4  N   UNL     1       7.594   6.091  18.071  0.00  0.00    +0.000 N 
ATOM      5  H   UNL     1       9.304   7.536  19.127  0.00  0.00    +0.000 HD
ATOM      6  H   UNL     1       7.524   5.892  19.061  0.00  0.00    +0.000 HD
ENDROOT
BRANCH   4   7
ATOM      7  C   UNL     1       6.775   5.288  17.235  0.00  0.00    +0.000 A 
ATOM      8  C   UNL     1       7.046   5.236  15.861  0.00  0.00    +0.000 A 
ATOM      9  C   UNL     1       6.276   4.442  15.008  0.00  0.00    +0.000 A 
ATOM     10  C   UNL     1       5.227   3.686  15.523  0.00  0.00    +0.000 A 
ATOM     11  C   UNL     1       4.938   3.736  16.887  0.00  0.00    +0.000 A 
ATOM     12  C   UNL     1       5.690   4.551  17.747  0.00  0.00    +0.000 A 
BRANCH  12  13
ATOM     13  O   UNL     1       5.292   4.533  19.067  0.00  0.00    +0.000 OA
BRANCH  13  14
ATOM     14  C   UNL     1       4.040   4.992  19.423  0.00  0.00    +0.000 A 
ATOM     15  C   UNL     1       3.527   6.255  19.128  0.00  0.00    +0.000 A 
ATOM     16  C   UNL     1       2.330   6.675  19.709  0.00  0.00    +0.000 A 
ATOM     17  C   UNL     1       1.597   5.802  20.509  0.00  0.00    +0.000 A 
ATOM     18  C   UNL     1       2.054   4.502  20.718  0.00  0.00    +0.000 A 
ATOM     19  C   UNL     1       3.277   4.099  20.182  0.00  0.00    +0.000 A 
ENDBRANCH  13  14
ENDBRANCH  12  13
ENDBRANCH   4   7
BRANCH   1  21
ATOM     20  C   UNL     1       9.506  10.018  19.432  0.00  0.00    +0.000 C 
ATOM     21  N   UNL     1       8.682   9.435  18.627  0.00  0.00    +0.000 NA
BRANCH  20  25
ATOM     22  C   UNL     1      10.247  14.220  19.095  0.00  0.00    +0.000 A 
ATOM     23  C   UNL     1       9.434  13.574  18.156  0.00  0.00    +0.000 A 
ATOM     24  C   UNL     1       9.172  12.208  18.275  0.00  0.00    +0.000 A 
ATOM     25  C   UNL     1       9.728  11.477  19.331  0.00  0.00    +0.000 A 
ATOM     26  C   UNL     1      10.540  12.112  20.274  0.00  0.00    +0.000 A 
ATOM     27  C   UNL     1      10.801  13.481  20.147  0.00  0.00    +0.000 A 
BRANCH  22  29
ATOM     28  C   UNL     1       9.351  16.460  17.774  0.00  0.00    +0.000 C 
ATOM     29  S   UNL     1      10.643  15.952  18.938  0.00  0.00    +0.000 S 
ENDBRANCH  22  29
ENDBRANCH  20  25
ENDBRANCH   1  21
TORSDOF 6
ENDMDL
MODEL 4
REMARK VINA RESULT:      -8.3      6.142      7.825
REMARK  Name = 
REMARK  7 active torsions:
REMARK  status: ('A' for Active; 'I' for Inactive)
REMARK    1  A    between atoms: C_1  and  S_2
REMARK    2  A    between atoms: S_2  and  C_3
REMARK    3  A    between atoms: C_6  and  C_7
REMARK    4  A    between atoms: N_8  and  N_9
REMARK    5  A    between atoms: N_12  and  C_13
REMARK    6  A    between atoms: C_18  and  O_19
REMARK    7  A    between atoms: O_19  and  C_20
REMARK                            x       y       z     vdW  Elec       q    Type
REMARK                         _______ _______ _______ _____ _____    ______ ____
ROOT
ATOM      1  N   UNL     1       2.330   7.197  20.542  0.00  0.00    +0.000 N 
ATOM      2  C   UNL     1       2.757   6.930  19.246  0.00  0.00    +0.000 C 
ATOM      3  O   UNL     1       2.259   7.435  18.242  0.00  0.00    +0.000 OA
ATOM      4  N   UNL     1       3.781   5.987  19.224  0.00  0.00    +0.000 N 
ATOM      5  H   UNL     1       2.999   7.098  21.293  0.00  0.00    +0.000 HD
ATOM      6  H   UNL     1       3.620   5.231  19.877  0.00  0.00    +0.000 HD
ENDROOT
BRANCH   4   7
ATOM      7  C   UNL     1       4.348   5.599  17.982  0.00  0.00    +0.000 A 
ATOM      8  C   UNL     1       4.621   6.582  17.020  0.00  0.00    +0.000 A 
ATOM      9  C   UNL     1       5.197   6.244  15.793  0.00  0.00    +0.000 A 
ATOM     10  C   UNL     1       5.514   4.917  15.518  0.00  0.00    +0.000 A 
ATOM     11  C   UNL     1       5.239   3.927  16.461  0.00  0.00    +0.000 A 
ATOM     12  C   UNL     1       4.636   4.254  17.685  0.00  0.00    +0.000 A 
BRANCH  12  13
ATOM     13  O   UNL     1       4.394   3.185  18.521  0.00  0.00    +0.000 OA
BRANCH  13  14
ATOM     14  C   UNL     1       3.122   2.953  19.005  0.00  0.00    +0.000 A 
ATOM     15  C   UNL     1       1.972   2.820  18.227  0.00  0.00    +0.000 A 
ATOM     16  C   UNL     1       0.717   2.786  18.837  0.00  0.00    +0.000 A 
ATOM     17  C   UNL     1       0.615   2.791  20.227  0.00  0.00    +0.000 A 
ATOM     18  C   UNL     1       1.769   2.816  21.009  0.00  0.00    +0.000 A 
ATOM     19  C   UNL     1       3.020   2.904  20.399  0.00  0.00    +0.000 A 
ENDBRANCH  13  14
ENDBRANCH  12  13
ENDBRANCH   4   7
BRANCH   1  21
ATOM     20  C   UNL     1       1.314   8.896  21.657  0.00  0.00    +0.000 C 
ATOM     21  N   UNL     1       1.271   8.042  20.690  0.00  0.00    +0.000 NA
BRANCH  20  25
ATOM     22  C   UNL     1      -1.781  11.802  22.195  0.00  0.00    +0.000 A 
ATOM     23  C   UNL     1      -1.118  11.703  20.966  0.00  0.00    +0.000 A 
ATOM     24  C   UNL     1      -0.123  10.741  20.779  0.00  0.00    +0.000 A 
ATOM     25  C   UNL     1       0.221   9.877  21.824  0.00  0.00    +0.000 A 
ATOM     26  C   UNL     1      -0.434   9.967  23.055  0.00  0.00    +0.000 A 
ATOM     27  C   UNL     1      -1.429  10.935  23.236  0.00  0.00    +0.000 A 
BRANCH  22  29
ATOM     28  C   UNL     1      -3.705  12.461  24.046  0.00  0.00    +0.000 C 
ATOM     29  S   UNL     1      -3.017  13.056  22.480  0.00  0.00    +0.000 S 
ENDBRANCH  22  29
ENDBRANCH  20  25
ENDBRANCH   1  21
TORSDOF 6
ENDMDL
MODEL 5
REMARK VINA RESULT:      -8.2      6.180      7.724
REMARK  Name = 
REMARK  7 active torsions:
REMARK  status: ('A' for Active; 'I' for Inactive)
REMARK    1  A    between atoms: C_1  and  S_2
REMARK    2  A    between atoms: S_2  and  C_3
REMARK    3  A    between atoms: C_6  and  C_7
REMARK    4  A    between atoms: N_8  and  N_9
REMARK    5  A    between atoms: N_12  and  C_13
REMARK    6  A    between atoms: C_18  and  O_19
REMARK    7  A    between atoms: O_19  and  C_20
REMARK                            x       y       z     vdW  Elec       q    Type
REMARK                         _______ _______ _______ _____ _____    ______ ____
ROOT
ATOM      1  N   UNL     1       2.265   7.000  20.646  0.00  0.00    +0.000 N 
ATOM      2  C   UNL     1       2.705   6.816  19.340  0.00  0.00    +0.000 C 
ATOM      3  O   UNL     1       2.243   7.413  18.370  0.00  0.00    +0.000 OA
ATOM      4  N   UNL     1       3.695   5.840  19.262  0.00  0.00    +0.000 N 
ATOM      5  H   UNL     1       2.917   6.821  21.397  0.00  0.00    +0.000 HD
ATOM      6  H   UNL     1       3.496   5.044  19.854  0.00  0.00    +0.000 HD
ENDROOT
BRANCH   4   7
ATOM      7  C   UNL     1       4.270   5.527  18.003  0.00  0.00    +0.000 A 
ATOM      8  C   UNL     1       4.543   6.564  17.100  0.00  0.00    +0.000 A 
ATOM      9  C   UNL     1       5.126   6.299  15.859  0.00  0.00    +0.000 A 
ATOM     10  C   UNL     1       5.451   4.991  15.510  0.00  0.00    +0.000 A 
ATOM     11  C   UNL     1       5.177   3.947  16.394  0.00  0.00    +0.000 A 
ATOM     12  C   UNL     1       4.566   4.202  17.631  0.00  0.00    +0.000 A 
BRANCH  12  13
ATOM     13  O   UNL     1       4.325   3.086  18.405  0.00  0.00    +0.000 OA
BRANCH  13  14
ATOM     14  C   UNL     1       3.124   2.946  19.072  0.00  0.00    +0.000 A 
ATOM     15  C   UNL     1       1.864   2.942  18.475  0.00  0.00    +0.000 A 
ATOM     16  C   UNL     1       0.717   2.993  19.269  0.00  0.00    +0.000 A 
ATOM     17  C   UNL     1       0.825   2.954  20.658  0.00  0.00    +0.000 A 
ATOM     18  C   UNL     1       2.080   2.851  21.255  0.00  0.00    +0.000 A 
ATOM     19  C   UNL     1       3.229   2.854  20.463  0.00  0.00    +0.000 A 
ENDBRANCH  13  14
ENDBRANCH  12  13
ENDBRANCH   4   7
BRANCH   1  21
ATOM     20  C   UNL     1       1.435   8.872  21.630  0.00  0.00    +0.000 C 
ATOM     21  N   UNL     1       1.234   7.870  20.842  0.00  0.00    +0.000 NA
BRANCH  20  25
ATOM     22  C   UNL     1      -1.713  11.725  22.149  0.00  0.00    +0.000 A 
ATOM     23  C   UNL     1      -1.372  10.858  23.195  0.00  0.00    +0.000 A 
ATOM     24  C   UNL     1      -0.331   9.941  23.037  0.00  0.00    +0.000 A 
ATOM     25  C   UNL     1       0.371   9.880  21.828  0.00  0.00    +0.000 A 
ATOM     26  C   UNL     1       0.040  10.739  20.779  0.00  0.00    +0.000 A 
ATOM     27  C   UNL     1      -1.007  11.655  20.943  0.00  0.00    +0.000 A 
BRANCH  22  29
ATOM     28  C   UNL     1      -2.373  14.020  23.513  0.00  0.00    +0.000 C 
ATOM     29  S   UNL     1      -3.073  12.868  22.302  0.00  0.00    +0.000 S 
ENDBRANCH  22  29
ENDBRANCH  20  25
ENDBRANCH   1  21
TORSDOF 6
ENDMDL
MODEL 6
REMARK VINA RESULT:      -8.2      5.339      8.284
REMARK  Name = 
REMARK  7 active torsions:
REMARK  status: ('A' for Active; 'I' for Inactive)
REMARK    1  A    between atoms: C_1  and  S_2
REMARK    2  A    between atoms: S_2  and  C_3
REMARK    3  A    between atoms: C_6  and  C_7
REMARK    4  A    between atoms: N_8  and  N_9
REMARK    5  A    between atoms: N_12  and  C_13
REMARK    6  A    between atoms: C_18  and  O_19
REMARK    7  A    between atoms: O_19  and  C_20
REMARK                            x       y       z     vdW  Elec       q    Type
REMARK                         _______ _______ _______ _____ _____    ______ ____
ROOT
ATOM      1  N   UNL     1       1.942   7.158  21.164  0.00  0.00    +0.000 N 
ATOM      2  C   UNL     1       2.131   6.287  20.096  0.00  0.00    +0.000 C 
ATOM      3  O   UNL     1       1.851   6.561  18.931  0.00  0.00    +0.000 OA
ATOM      4  N   UNL     1       2.630   5.057  20.515  0.00  0.00    +0.000 N 
ATOM      5  H   UNL     1       2.541   7.056  21.972  0.00  0.00    +0.000 HD
ATOM      6  H   UNL     1       2.190   4.735  21.368  0.00  0.00    +0.000 HD
ENDROOT
BRANCH   4   7
ATOM      7  C   UNL     1       2.896   4.046  19.554  0.00  0.00    +0.000 A 
ATOM      8  C   UNL     1       1.824   3.329  19.004  0.00  0.00    +0.000 A 
ATOM      9  C   UNL     1       2.042   2.341  18.042  0.00  0.00    +0.000 A 
ATOM     10  C   UNL     1       3.336   2.062  17.614  0.00  0.00    +0.000 A 
ATOM     11  C   UNL     1       4.414   2.760  18.160  0.00  0.00    +0.000 A 
ATOM     12  C   UNL     1       4.206   3.736  19.147  0.00  0.00    +0.000 A 
BRANCH  12  13
ATOM     13  O   UNL     1       5.352   4.338  19.624  0.00  0.00    +0.000 OA
BRANCH  13  14
ATOM     14  C   UNL     1       5.928   5.385  18.932  0.00  0.00    +0.000 A 
ATOM     15  C   UNL     1       5.317   6.115  17.913  0.00  0.00    +0.000 A 
ATOM     16  C   UNL     1       6.065   7.018  17.157  0.00  0.00    +0.000 A 
ATOM     17  C   UNL     1       7.399   7.260  17.477  0.00  0.00    +0.000 A 
ATOM     18  C   UNL     1       7.983   6.611  18.563  0.00  0.00    +0.000 A 
ATOM     19  C   UNL     1       7.251   5.669  19.286  0.00  0.00    +0.000 A 
ENDBRANCH  13  14
ENDBRANCH  12  13
ENDBRANCH   4   7
BRANCH   1  21
ATOM     20  C   UNL     1       0.436   8.780  21.675  0.00  0.00    +0.000 C 
ATOM     21  N   UNL     1       1.375   8.367  20.892  0.00  0.00    +0.000 NA
BRANCH  20  25
ATOM     22  C   UNL     1      -1.414  12.588  21.044  0.00  0.00    +0.000 A 
ATOM     23  C   UNL     1      -1.157  12.140  22.345  0.00  0.00    +0.000 A 
ATOM     24  C   UNL     1      -0.534  10.908  22.554  0.00  0.00    +0.000 A 
ATOM     25  C   UNL     1      -0.170  10.112  21.463  0.00  0.00    +0.000 A 
ATOM     26  C   UNL     1      -0.420  10.549  20.160  0.00  0.00    +0.000 A 
ATOM     27  C   UNL     1      -1.048  11.784  19.957  0.00  0.00    +0.000 A 
BRANCH  22  29
ATOM     28  C   UNL     1      -3.954  13.525  20.565  0.00  0.00    +0.000 C 
ATOM     29  S   UNL     1      -2.257  14.130  20.747  0.00  0.00    +0.000 S 
ENDBRANCH  22  29
ENDBRANCH  20  25
ENDBRANCH   1  21
TORSDOF 6
ENDMDL
MODEL 7
REMARK VINA RESULT:      -8.1      1.409      2.121
REMARK  Name = 
REMARK  7 active torsions:
REMARK  status: ('A' for Active; 'I' for Inactive)
REMARK    1  A    between atoms: C_1  and  S_2
REMARK    2  A    between atoms: S_2  and  C_3
REMARK    3  A    between atoms: C_6  and  C_7
REMARK    4  A    between atoms: N_8  and  N_9
REMARK    5  A    between atoms: N_12  and  C_13
REMARK    6  A    between atoms: C_18  and  O_19
REMARK    7  A    between atoms: O_19  and  C_20
REMARK                            x       y       z     vdW  Elec       q    Type
REMARK                         _______ _______ _______ _____ _____    ______ ____
ROOT
ATOM      1  N   UNL     1       8.469   7.993  18.655  0.00  0.00    +0.000 N 
ATOM      2  C   UNL     1       7.659   7.328  17.741  0.00  0.00    +0.000 C 
ATOM      3  O   UNL     1       7.112   7.874  16.785  0.00  0.00    +0.000 OA
ATOM      4  N   UNL     1       7.505   5.985  18.071  0.00  0.00    +0.000 N 
ATOM      5  H   UNL     1       9.184   7.461  19.131  0.00  0.00    +0.000 HD
ATOM      6  H   UNL     1       7.378   5.846  19.065  0.00  0.00    +0.000 HD
ENDROOT
BRANCH   4   7
ATOM      7  C   UNL     1       6.715   5.147  17.240  0.00  0.00    +0.000 A 
ATOM      8  C   UNL     1       7.206   4.778  15.980  0.00  0.00    +0.000 A 
ATOM      9  C   UNL     1       6.469   3.939  15.141  0.00  0.00    +0.000 A 
ATOM     10  C   UNL     1       5.232   3.455  15.557  0.00  0.00    +0.000 A 
ATOM     11  C   UNL     1       4.726   3.822  16.804  0.00  0.00    +0.000 A 
ATOM     12  C   UNL     1       5.448   4.686  17.642  0.00  0.00    +0.000 A 
BRANCH  12  13
ATOM     13  O   UNL     1       4.831   4.992  18.836  0.00  0.00    +0.000 OA
BRANCH  13  14
ATOM     14  C   UNL     1       3.917   6.025  18.903  0.00  0.00    +0.000 A 
ATOM     15  C   UNL     1       2.975   6.208  19.915  0.00  0.00    +0.000 A 
ATOM     16  C   UNL     1       1.977   7.173  19.772  0.00  0.00    +0.000 A 
ATOM     17  C   UNL     1       1.974   8.018  18.664  0.00  0.00    +0.000 A 
ATOM     18  C   UNL     1       2.977   7.907  17.703  0.00  0.00    +0.000 A 
ATOM     19  C   UNL     1       3.944   6.907  17.818  0.00  0.00    +0.000 A 
ENDBRANCH  13  14
ENDBRANCH  12  13
ENDBRANCH   4   7
BRANCH   1  21
ATOM     20  C   UNL     1       9.312   9.975  19.377  0.00  0.00    +0.000 C 
ATOM     21  N   UNL     1       8.627   9.337  18.489  0.00  0.00    +0.000 NA
BRANCH  20  25
ATOM     22  C   UNL     1       9.947  14.177  18.864  0.00  0.00    +0.000 A 
ATOM     23  C   UNL     1       9.674  13.659  20.136  0.00  0.00    +0.000 A 
ATOM     24  C   UNL     1       9.488  12.286  20.311  0.00  0.00    +0.000 A 
ATOM     25  C   UNL     1       9.567  11.423  19.213  0.00  0.00    +0.000 A 
ATOM     26  C   UNL     1       9.839  11.929  17.940  0.00  0.00    +0.000 A 
ATOM     27  C   UNL     1      10.021  13.306  17.771  0.00  0.00    +0.000 A 
BRANCH  22  29
ATOM     28  C   UNL     1       8.420  16.370  18.216  0.00  0.00    +0.000 C 
ATOM     29  S   UNL     1      10.134  15.930  18.602  0.00  0.00    +0.000 S 
ENDBRANCH  22  29
ENDBRANCH  20  25
ENDBRANCH   1  21
TORSDOF 6
ENDMDL
MODEL 8
REMARK VINA RESULT:      -8.1      5.378      7.933
REMARK  Name = 
REMARK  7 active torsions:
REMARK  status: ('A' for Active; 'I' for Inactive)
REMARK    1  A    between atoms: C_1  and  S_2
REMARK    2  A    between atoms: S_2  and  C_3
REMARK    3  A    between atoms: C_6  and  C_7
REMARK    4  A    between atoms: N_8  and  N_9
REMARK    5  A    between atoms: N_12  and  C_13
REMARK    6  A    between atoms: C_18  and  O_19
REMARK    7  A    between atoms: O_19  and  C_20
REMARK                            x       y       z     vdW  Elec       q    Type
REMARK                         _______ _______ _______ _____ _____    ______ ____
ROOT
ATOM      1  N   UNL     1       1.844   7.279  21.323  0.00  0.00    +0.000 N 
ATOM      2  C   UNL     1       2.021   6.411  20.251  0.00  0.00    +0.000 C 
ATOM      3  O   UNL     1       1.840   6.727  19.077  0.00  0.00    +0.000 OA
ATOM      4  N   UNL     1       2.380   5.135  20.673  0.00  0.00    +0.000 N 
ATOM      5  H   UNL     1       2.380   7.110  22.164  0.00  0.00    +0.000 HD
ATOM      6  H   UNL     1       1.860   4.841  21.490  0.00  0.00    +0.000 HD
ENDROOT
BRANCH   4   7
ATOM      7  C   UNL     1       2.613   4.119  19.709  0.00  0.00    +0.000 A 
ATOM      8  C   UNL     1       1.522   3.407  19.191  0.00  0.00    +0.000 A 
ATOM      9  C   UNL     1       1.707   2.413  18.227  0.00  0.00    +0.000 A 
ATOM     10  C   UNL     1       2.988   2.125  17.765  0.00  0.00    +0.000 A 
ATOM     11  C   UNL     1       4.085   2.819  18.278  0.00  0.00    +0.000 A 
ATOM     12  C   UNL     1       3.910   3.799  19.267  0.00  0.00    +0.000 A 
BRANCH  12  13
ATOM     13  O   UNL     1       5.072   4.395  19.710  0.00  0.00    +0.000 OA
BRANCH  13  14
ATOM     14  C   UNL     1       5.692   5.365  18.946  0.00  0.00    +0.000 A 
ATOM     15  C   UNL     1       5.110   6.050  17.880  0.00  0.00    +0.000 A 
ATOM     16  C   UNL     1       5.896   6.862  17.061  0.00  0.00    +0.000 A 
ATOM     17  C   UNL     1       7.241   7.064  17.361  0.00  0.00    +0.000 A 
ATOM     18  C   UNL     1       7.800   6.465  18.489  0.00  0.00    +0.000 A 
ATOM     19  C   UNL     1       7.028   5.610  19.277  0.00  0.00    +0.000 A 
ENDBRANCH  13  14
ENDBRANCH  12  13
ENDBRANCH   4   7
BRANCH   1  21
ATOM     20  C   UNL     1       0.355   8.961  21.661  0.00  0.00    +0.000 C 
ATOM     21  N   UNL     1       1.407   8.539  21.043  0.00  0.00    +0.000 NA
BRANCH  20  25
ATOM     22  C   UNL     1      -0.942  12.996  21.070  0.00  0.00    +0.000 A 
ATOM     23  C   UNL     1      -0.419  12.263  19.998  0.00  0.00    +0.000 A 
ATOM     24  C   UNL     1      -0.015  10.940  20.182  0.00  0.00    +0.000 A 
ATOM     25  C   UNL     1      -0.125  10.342  21.442  0.00  0.00    +0.000 A 
ATOM     26  C   UNL     1      -0.646  11.063  22.518  0.00  0.00    +0.000 A 
ATOM     27  C   UNL     1      -1.047  12.391  22.328  0.00  0.00    +0.000 A 
BRANCH  22  29
ATOM     28  C   UNL     1      -0.555  15.425  22.301  0.00  0.00    +0.000 C 
ATOM     29  S   UNL     1      -1.415  14.704  20.878  0.00  0.00    +0.000 S 
ENDBRANCH  22  29
ENDBRANCH  20  25
ENDBRANCH   1  21
TORSDOF 6
ENDMDL
MODEL 9
REMARK VINA RESULT:      -8.1      1.066      1.548
REMARK  Name = 
REMARK  7 active torsions:
REMARK  status: ('A' for Active; 'I' for Inactive)
REMARK    1  A    between atoms: C_1  and  S_2
REMARK    2  A    between atoms: S_2  and  C_3
REMARK    3  A    between atoms: C_6  and  C_7
REMARK    4  A    between atoms: N_8  and  N_9
REMARK    5  A    between atoms: N_12  and  C_13
REMARK    6  A    between atoms: C_18  and  O_19
REMARK    7  A    between atoms: O_19  and  C_20
REMARK                            x       y       z     vdW  Elec       q    Type
REMARK                         _______ _______ _______ _____ _____    ______ ____
ROOT
ATOM      1  N   UNL     1       8.596   8.324  18.821  0.00  0.00    +0.000 N 
ATOM      2  C   UNL     1       7.743   7.736  17.894  0.00  0.00    +0.000 C 
ATOM      3  O   UNL     1       7.134   8.362  17.030  0.00  0.00    +0.000 OA
ATOM      4  N   UNL     1       7.628   6.364  18.097  0.00  0.00    +0.000 N 
ATOM      5  H   UNL     1       9.345   7.762  19.201  0.00  0.00    +0.000 HD
ATOM      6  H   UNL     1       7.562   6.126  19.079  0.00  0.00    +0.000 HD
ENDROOT
BRANCH   4   7
ATOM      7  C   UNL     1       6.803   5.596  17.234  0.00  0.00    +0.000 A 
ATOM      8  C   UNL     1       7.336   5.116  16.029  0.00  0.00    +0.000 A 
ATOM      9  C   UNL     1       6.563   4.341  15.162  0.00  0.00    +0.000 A 
ATOM     10  C   UNL     1       5.247   4.031  15.494  0.00  0.00    +0.000 A 
ATOM     11  C   UNL     1       4.700   4.511  16.684  0.00  0.00    +0.000 A 
ATOM     12  C   UNL     1       5.461   5.313  17.548  0.00  0.00    +0.000 A 
BRANCH  12  13
ATOM     13  O   UNL     1       4.800   5.743  18.679  0.00  0.00    +0.000 OA
BRANCH  13  14
ATOM     14  C   UNL     1       3.964   4.886  19.366  0.00  0.00    +0.000 A 
ATOM     15  C   UNL     1       2.748   5.237  19.952  0.00  0.00    +0.000 A 
ATOM     16  C   UNL     1       2.089   4.333  20.786  0.00  0.00    +0.000 A 
ATOM     17  C   UNL     1       2.594   3.047  20.961  0.00  0.00    +0.000 A 
ATOM     18  C   UNL     1       3.753   2.658  20.291  0.00  0.00    +0.000 A 
ATOM     19  C   UNL     1       4.441   3.578  19.500  0.00  0.00    +0.000 A 
ENDBRANCH  13  14
ENDBRANCH  12  13
ENDBRANCH   4   7
BRANCH   1  21
ATOM     20  C   UNL     1       9.690  10.171  18.077  0.00  0.00    +0.000 C 
ATOM     21  N   UNL     1       8.725   9.680  18.781  0.00  0.00    +0.000 NA
BRANCH  20  25
ATOM     22  C   UNL     1      10.117  14.422  17.813  0.00  0.00    +0.000 A 
ATOM     23  C   UNL     1      11.232  13.593  17.643  0.00  0.00    +0.000 A 
ATOM     24  C   UNL     1      11.093  12.205  17.707  0.00  0.00    +0.000 A 
ATOM     25  C   UNL     1       9.838  11.637  17.948  0.00  0.00    +0.000 A 
ATOM     26  C   UNL     1       8.718  12.454  18.119  0.00  0.00    +0.000 A 
ATOM     27  C   UNL     1       8.865  13.845  18.056  0.00  0.00    +0.000 A 
BRANCH  22  29
ATOM     28  C   UNL     1       9.343  16.608  19.291  0.00  0.00    +0.000 C 
ATOM     29  S   UNL     1      10.273  16.198  17.791  0.00  0.00    +0.000 S 
ENDBRANCH  22  29
ENDBRANCH  20  25
ENDBRANCH   1  21
TORSDOF 6
ENDMDL
