MODEL 1
REMARK VINA RESULT:      -7.5      0.000      0.000
REMARK  Name = 
REMARK  10 active torsions:
REMARK  status: ('A' for Active; 'I' for Inactive)
REMARK    1  A    between atoms: C_1  and  O_2
REMARK    2  A    between atoms: O_2  and  C_3
REMARK    3  A    between atoms: C_5  and  O_6
REMARK    4  A    between atoms: O_6  and  C_7
REMARK    5  A    between atoms: C_9  and  O_10
REMARK    6  A    between atoms: O_10  and  C_11
REMARK    7  A    between atoms: C_15  and  O_16
REMARK    8  A    between atoms: O_16  and  C_17
REMARK    9  A    between atoms: C_18  and  C_19
REMARK   10  A    between atoms: C_19  and  O_21
REMARK                            x       y       z     vdW  Elec       q    Type
REMARK                         _______ _______ _______ _____ _____    ______ ____
ROOT
ATOM      1  C   UNL     1       2.718   4.654  18.058  0.00  0.00    +0.000 A 
ATOM      2  C   UNL     1       2.893   6.015  18.381  0.00  0.00    +0.000 A 
ATOM      3  C   UNL     1       2.509   6.510  19.614  0.00  0.00    +0.000 A 
ATOM      4  C   UNL     1       1.863   5.672  20.511  0.00  0.00    +0.000 A 
ATOM      5  C   UNL     1       1.566   4.341  20.169  0.00  0.00    +0.000 A 
ATOM      6  C   UNL     1       2.004   3.806  18.930  0.00  0.00    +0.000 A 
ENDROOT
BRANCH   5   7
ATOM      7  O   UNL     1       0.884   3.512  21.035  0.00  0.00    +0.000 OA
ATOM      8  C   UNL     1       1.681   2.685  21.885  0.00  0.00    +0.000 C 
ENDBRANCH   5   7
BRANCH   6   9
ATOM      9  C   UNL     1       1.721   2.391  18.489  0.00  0.00    +0.000 C 
ATOM     10  O   UNL     1       0.609   1.951  18.259  0.00  0.00    +0.000 OA
BRANCH   9  11
ATOM     11  O   UNL     1       2.807   1.594  18.359  0.00  0.00    +0.000 OA
ATOM     12  H   UNL     1       2.676   0.697  18.728  0.00  0.00    +0.000 HD
ENDBRANCH   9  11
ENDBRANCH   6   9
BRANCH   1  13
ATOM     13  O   UNL     1       3.228   4.148  16.874  0.00  0.00    +0.000 OA
BRANCH  13  18
ATOM     14  C   UNL     1       6.402   4.459  15.439  0.00  0.00    +0.000 A 
ATOM     15  C   UNL     1       7.227   4.648  16.521  0.00  0.00    +0.000 A 
ATOM     16  C   UNL     1       6.626   4.484  17.746  0.00  0.00    +0.000 A 
ATOM     17  N   UNL     1       5.334   4.173  17.900  0.00  0.00    +0.000 NA
ATOM     18  C   UNL     1       4.608   4.089  16.773  0.00  0.00    +0.000 A 
ATOM     19  N   UNL     1       5.091   4.193  15.532  0.00  0.00    +0.000 NA
BRANCH  14  21
ATOM     20  C   UNL     1       6.320   3.853  13.184  0.00  0.00    +0.000 C 
ATOM     21  O   UNL     1       6.960   4.641  14.188  0.00  0.00    +0.000 OA
ENDBRANCH  14  21
BRANCH  16  22
ATOM     22  O   UNL     1       7.389   4.755  18.865  0.00  0.00    +0.000 OA
ATOM     23  C   UNL     1       7.826   6.113  18.913  0.00  0.00    +0.000 C 
ENDBRANCH  16  22
ENDBRANCH  13  18
ENDBRANCH   1  13
TORSDOF 7
ENDMDL
MODEL 2
REMARK VINA RESULT:      -7.4      1.996      2.575
REMARK  Name = 
REMARK  10 active torsions:
REMARK  status: ('A' for Active; 'I' for Inactive)
REMARK    1  A    between atoms: C_1  and  O_2
REMARK    2  A    between atoms: O_2  and  C_3
REMARK    3  A    between atoms: C_5  and  O_6
REMARK    4  A    between atoms: O_6  and  C_7
REMARK    5  A    between atoms: C_9  and  O_10
REMARK    6  A    between atoms: O_10  and  C_11
REMARK    7  A    between atoms: C_15  and  O_16
REMARK    8  A    between atoms: O_16  and  C_17
REMARK    9  A    between atoms: C_18  and  C_19
REMARK   10  A    between atoms: C_19  and  O_21
REMARK                            x       y       z     vdW  Elec       q    Type
REMARK                         _______ _______ _______ _____ _____    ______ ____
ROOT
ATOM      1  C   UNL     1       4.657   4.410  19.505  0.00  0.00    +0.000 A 
ATOM      2  C   UNL     1       4.131   5.713  19.393  0.00  0.00    +0.000 A 
ATOM      3  C   UNL     1       2.783   5.955  19.589  0.00  0.00    +0.000 A 
ATOM      4  C   UNL     1       1.926   4.888  19.813  0.00  0.00    +0.000 A 
ATOM      5  C   UNL     1       2.404   3.566  19.809  0.00  0.00    +0.000 A 
ATOM      6  C   UNL     1       3.791   3.308  19.665  0.00  0.00    +0.000 A 
ENDROOT
BRANCH   5   7
ATOM      7  O   UNL     1       1.554   2.495  19.985  0.00  0.00    +0.000 OA
ATOM      8  C   UNL     1       0.680   2.190  18.895  0.00  0.00    +0.000 C 
ENDBRANCH   5   7
BRANCH   6   9
ATOM      9  C   UNL     1       4.381   1.918  19.647  0.00  0.00    +0.000 C 
ATOM     10  O   UNL     1       5.102   1.465  20.517  0.00  0.00    +0.000 OA
BRANCH   9  11
ATOM     11  O   UNL     1       4.062   1.165  18.568  0.00  0.00    +0.000 OA
ATOM     12  H   UNL     1       3.563   0.355  18.796  0.00  0.00    +0.000 HD
ENDBRANCH   9  11
ENDBRANCH   6   9
BRANCH   1  13
ATOM     13  O   UNL     1       6.025   4.203  19.438  0.00  0.00    +0.000 OA
BRANCH  13  18
ATOM     14  C   UNL     1       6.804   5.842  16.448  0.00  0.00    +0.000 A 
ATOM     15  C   UNL     1       7.523   6.938  16.860  0.00  0.00    +0.000 A 
ATOM     16  C   UNL     1       7.848   6.951  18.195  0.00  0.00    +0.000 A 
ATOM     17  N   UNL     1       7.494   5.987  19.052  0.00  0.00    +0.000 NA
ATOM     18  C   UNL     1       6.726   5.005  18.553  0.00  0.00    +0.000 A 
ATOM     19  N   UNL     1       6.380   4.870  17.269  0.00  0.00    +0.000 NA
BRANCH  14  21
ATOM     20  C   UNL     1       6.467   4.479  14.580  0.00  0.00    +0.000 C 
ATOM     21  O   UNL     1       6.432   5.802  15.118  0.00  0.00    +0.000 OA
ENDBRANCH  14  21
BRANCH  16  22
ATOM     22  O   UNL     1       8.489   8.076  18.677  0.00  0.00    +0.000 OA
ATOM     23  C   UNL     1       8.184   9.246  17.919  0.00  0.00    +0.000 C 
ENDBRANCH  16  22
ENDBRANCH  13  18
ENDBRANCH   1  13
TORSDOF 7
ENDMDL
MODEL 3
REMARK VINA RESULT:      -7.4      0.427      2.638
REMARK  Name = 
REMARK  10 active torsions:
REMARK  status: ('A' for Active; 'I' for Inactive)
REMARK    1  A    between atoms: C_1  and  O_2
REMARK    2  A    between atoms: O_2  and  C_3
REMARK    3  A    between atoms: C_5  and  O_6
REMARK    4  A    between atoms: O_6  and  C_7
REMARK    5  A    between atoms: C_9  and  O_10
REMARK    6  A    between atoms: O_10  and  C_11
REMARK    7  A    between atoms: C_15  and  O_16
REMARK    8  A    between atoms: O_16  and  C_17
REMARK    9  A    between atoms: C_18  and  C_19
REMARK   10  A    between atoms: C_19  and  O_21
REMARK                            x       y       z     vdW  Elec       q    Type
REMARK                         _______ _______ _______ _____ _____    ______ ____
ROOT
ATOM      1  C   UNL     1       2.879   4.858  18.054  0.00  0.00    +0.000 A 
ATOM      2  C   UNL     1       2.957   6.226  18.385  0.00  0.00    +0.000 A 
ATOM      3  C   UNL     1       2.482   6.694  19.597  0.00  0.00    +0.000 A 
ATOM      4  C   UNL     1       1.842   5.818  20.460  0.00  0.00    +0.000 A 
ATOM      5  C   UNL     1       1.642   4.472  20.104  0.00  0.00    +0.000 A 
ATOM      6  C   UNL     1       2.173   3.968  18.890  0.00  0.00    +0.000 A 
ENDROOT
BRANCH   5   7
ATOM      7  O   UNL     1       0.967   3.603  20.935  0.00  0.00    +0.000 OA
ATOM      8  C   UNL     1       1.767   2.816  21.819  0.00  0.00    +0.000 C 
ENDBRANCH   5   7
BRANCH   6   9
ATOM      9  C   UNL     1       1.997   2.539  18.436  0.00  0.00    +0.000 C 
ATOM     10  O   UNL     1       0.921   2.020  18.200  0.00  0.00    +0.000 OA
BRANCH   9  11
ATOM     11  O   UNL     1       3.140   1.826  18.300  0.00  0.00    +0.000 OA
ATOM     12  H   UNL     1       3.941   2.329  18.549  0.00  0.00    +0.000 HD
ENDBRANCH   9  11
ENDBRANCH   6   9
BRANCH   1  13
ATOM     13  O   UNL     1       3.477   4.386  16.898  0.00  0.00    +0.000 OA
BRANCH  13  18
ATOM     14  C   UNL     1       6.911   4.706  17.486  0.00  0.00    +0.000 A 
ATOM     15  C   UNL     1       7.441   4.839  16.226  0.00  0.00    +0.000 A 
ATOM     16  C   UNL     1       6.518   4.981  15.218  0.00  0.00    +0.000 A 
ATOM     17  N   UNL     1       5.195   4.983  15.421  0.00  0.00    +0.000 NA
ATOM     18  C   UNL     1       4.792   4.768  16.684  0.00  0.00    +0.000 A 
ATOM     19  N   UNL     1       5.596   4.652  17.745  0.00  0.00    +0.000 NA
BRANCH  14  21
ATOM     20  C   UNL     1       7.868   5.669  19.387  0.00  0.00    +0.000 C 
ATOM     21  O   UNL     1       7.804   4.532  18.525  0.00  0.00    +0.000 OA
ENDBRANCH  14  21
BRANCH  16  22
ATOM     22  O   UNL     1       6.997   5.024  13.924  0.00  0.00    +0.000 OA
ATOM     23  C   UNL     1       6.503   3.951  13.121  0.00  0.00    +0.000 C 
ENDBRANCH  16  22
ENDBRANCH  13  18
ENDBRANCH   1  13
TORSDOF 7
ENDMDL
MODEL 4
REMARK VINA RESULT:      -7.2      1.339      3.536
REMARK  Name = 
REMARK  10 active torsions:
REMARK  status: ('A' for Active; 'I' for Inactive)
REMARK    1  A    between atoms: C_1  and  O_2
REMARK    2  A    between atoms: O_2  and  C_3
REMARK    3  A    between atoms: C_5  and  O_6
REMARK    4  A    between atoms: O_6  and  C_7
REMARK    5  A    between atoms: C_9  and  O_10
REMARK    6  A    between atoms: O_10  and  C_11
REMARK    7  A    between atoms: C_15  and  O_16
REMARK    8  A    between atoms: O_16  and  C_17
REMARK    9  A    between atoms: C_18  and  C_19
REMARK   10  A    between atoms: C_19  and  O_21
REMARK                            x       y       z     vdW  Elec       q    Type
REMARK                         _______ _______ _______ _____ _____    ______ ____
ROOT
ATOM      1  C   UNL     1       2.942   4.382  17.794  0.00  0.00    +0.000 A 
ATOM      2  C   UNL     1       2.908   3.151  17.109  0.00  0.00    +0.000 A 
ATOM      3  C   UNL     1       2.195   2.076  17.610  0.00  0.00    +0.000 A 
ATOM      4  C   UNL     1       1.577   2.188  18.847  0.00  0.00    +0.000 A 
ATOM      5  C   UNL     1       1.695   3.364  19.609  0.00  0.00    +0.000 A 
ATOM      6  C   UNL     1       2.377   4.491  19.082  0.00  0.00    +0.000 A 
ENDROOT
BRANCH   5   7
ATOM      7  O   UNL     1       1.124   3.470  20.859  0.00  0.00    +0.000 OA
ATOM      8  C   UNL     1       1.653   2.616  21.876  0.00  0.00    +0.000 C 
ENDBRANCH   5   7
BRANCH   6   9
ATOM      9  C   UNL     1       2.550   5.786  19.839  0.00  0.00    +0.000 C 
ATOM     10  O   UNL     1       1.631   6.490  20.217  0.00  0.00    +0.000 OA
BRANCH   9  11
ATOM     11  O   UNL     1       3.830   6.149  20.085  0.00  0.00    +0.000 OA
ATOM     12  H   UNL     1       4.165   6.829  19.466  0.00  0.00    +0.000 HD
ENDBRANCH   9  11
ENDBRANCH   6   9
BRANCH   1  13
ATOM     13  O   UNL     1       3.548   5.484  17.216  0.00  0.00    +0.000 OA
BRANCH  13  18
ATOM     14  C   UNL     1       6.958   4.808  17.605  0.00  0.00    +0.000 A 
ATOM     15  C   UNL     1       7.353   4.416  16.349  0.00  0.00    +0.000 A 
ATOM     16  C   UNL     1       6.407   4.577  15.366  0.00  0.00    +0.000 A 
ATOM     17  N   UNL     1       5.182   5.066  15.589  0.00  0.00    +0.000 NA
ATOM     18  C   UNL     1       4.882   5.343  16.869  0.00  0.00    +0.000 A 
ATOM     19  N   UNL     1       5.730   5.260  17.898  0.00  0.00    +0.000 NA
BRANCH  14  21
ATOM     20  C   UNL     1       7.861   5.726  19.555  0.00  0.00    +0.000 C 
ATOM     21  O   UNL     1       7.870   4.638  18.629  0.00  0.00    +0.000 OA
ENDBRANCH  14  21
BRANCH  16  22
ATOM     22  O   UNL     1       6.722   4.110  14.104  0.00  0.00    +0.000 OA
ATOM     23  C   UNL     1       5.564   3.850  13.311  0.00  0.00    +0.000 C 
ENDBRANCH  16  22
ENDBRANCH  13  18
ENDBRANCH   1  13
TORSDOF 7
ENDMDL
MODEL 5
REMARK VINA RESULT:      -7.2      1.293      2.333
REMARK  Name = 
REMARK  10 active torsions:
REMARK  status: ('A' for Active; 'I' for Inactive)
REMARK    1  A    between atoms: C_1  and  O_2
REMARK    2  A    between atoms: O_2  and  C_3
REMARK    3  A    between atoms: C_5  and  O_6
REMARK    4  A    between atoms: O_6  and  C_7
REMARK    5  A    between atoms: C_9  and  O_10
REMARK    6  A    between atoms: O_10  and  C_11
REMARK    7  A    between atoms: C_15  and  O_16
REMARK    8  A    between atoms: O_16  and  C_17
REMARK    9  A    between atoms: C_18  and  C_19
REMARK   10  A    between atoms: C_19  and  O_21
REMARK                            x       y       z     vdW  Elec       q    Type
REMARK                         _______ _______ _______ _____ _____    ______ ____
ROOT
ATOM      1  C   UNL     1       2.884   4.176  17.825  0.00  0.00    +0.000 A 
ATOM      2  C   UNL     1       2.626   2.945  17.189  0.00  0.00    +0.000 A 
ATOM      3  C   UNL     1       1.768   2.018  17.754  0.00  0.00    +0.000 A 
ATOM      4  C   UNL     1       1.225   2.269  19.005  0.00  0.00    +0.000 A 
ATOM      5  C   UNL     1       1.560   3.434  19.717  0.00  0.00    +0.000 A 
ATOM      6  C   UNL     1       2.394   4.418  19.125  0.00  0.00    +0.000 A 
ENDROOT
BRANCH   5   7
ATOM      7  O   UNL     1       1.062   3.673  20.980  0.00  0.00    +0.000 OA
ATOM      8  C   UNL     1       1.527   2.811  22.021  0.00  0.00    +0.000 C 
ENDBRANCH   5   7
BRANCH   6   9
ATOM      9  C   UNL     1       2.803   5.691  19.825  0.00  0.00    +0.000 C 
ATOM     10  O   UNL     1       2.036   6.587  20.127  0.00  0.00    +0.000 OA
BRANCH   9  11
ATOM     11  O   UNL     1       4.122   5.800  20.112  0.00  0.00    +0.000 OA
ATOM     12  H   UNL     1       4.367   5.391  20.966  0.00  0.00    +0.000 HD
ENDBRANCH   9  11
ENDBRANCH   6   9
BRANCH   1  13
ATOM     13  O   UNL     1       3.638   5.146  17.185  0.00  0.00    +0.000 OA
BRANCH  13  18
ATOM     14  C   UNL     1       6.563   4.900  15.283  0.00  0.00    +0.000 A 
ATOM     15  C   UNL     1       7.554   4.802  16.229  0.00  0.00    +0.000 A 
ATOM     16  C   UNL     1       7.111   4.654  17.521  0.00  0.00    +0.000 A 
ATOM     17  N   UNL     1       5.818   4.616  17.861  0.00  0.00    +0.000 NA
ATOM     18  C   UNL     1       4.940   4.800  16.861  0.00  0.00    +0.000 A 
ATOM     19  N   UNL     1       5.253   4.917  15.568  0.00  0.00    +0.000 NA
BRANCH  14  21
ATOM     20  C   UNL     1       6.543   4.011  13.122  0.00  0.00    +0.000 C 
ATOM     21  O   UNL     1       6.965   5.078  13.973  0.00  0.00    +0.000 OA
ENDBRANCH  14  21
BRANCH  16  22
ATOM     22  O   UNL     1       8.067   4.645  18.519  0.00  0.00    +0.000 OA
ATOM     23  C   UNL     1       7.876   5.692  19.470  0.00  0.00    +0.000 C 
ENDBRANCH  16  22
ENDBRANCH  13  18
ENDBRANCH   1  13
TORSDOF 7
ENDMDL
MODEL 6
REMARK VINA RESULT:      -7.1      1.238      1.386
REMARK  Name = 
REMARK  10 active torsions:
REMARK  status: ('A' for Active; 'I' for Inactive)
REMARK    1  A    between atoms: C_1  and  O_2
REMARK    2  A    between atoms: O_2  and  C_3
REMARK    3  A    between atoms: C_5  and  O_6
REMARK    4  A    between atoms: O_6  and  C_7
REMARK    5  A    between atoms: C_9  and  O_10
REMARK    6  A    between atoms: O_10  and  C_11
REMARK    7  A    between atoms: C_15  and  O_16
REMARK    8  A    between atoms: O_16  and  C_17
REMARK    9  A    between atoms: C_18  and  C_19
REMARK   10  A    between atoms: C_19  and  O_21
REMARK                            x       y       z     vdW  Elec       q    Type
REMARK                         _______ _______ _______ _____ _____    ______ ____
ROOT
ATOM      1  C   UNL     1       3.381   4.133  17.947  0.00  0.00    +0.000 A 
ATOM      2  C   UNL     1       2.762   5.397  17.863  0.00  0.00    +0.000 A 
ATOM      3  C   UNL     1       2.266   6.024  18.992  0.00  0.00    +0.000 A 
ATOM      4  C   UNL     1       2.301   5.359  20.209  0.00  0.00    +0.000 A 
ATOM      5  C   UNL     1       2.802   4.048  20.301  0.00  0.00    +0.000 A 
ATOM      6  C   UNL     1       3.364   3.417  19.162  0.00  0.00    +0.000 A 
ENDROOT
BRANCH   5   7
ATOM      7  O   UNL     1       2.799   3.361  21.496  0.00  0.00    +0.000 OA
ATOM      8  C   UNL     1       1.587   2.688  21.842  0.00  0.00    +0.000 C 
ENDBRANCH   5   7
BRANCH   6   9
ATOM      9  C   UNL     1       3.917   2.012  19.179  0.00  0.00    +0.000 C 
ATOM     10  O   UNL     1       3.437   1.076  18.565  0.00  0.00    +0.000 OA
BRANCH   9  11
ATOM     11  O   UNL     1       5.018   1.829  19.945  0.00  0.00    +0.000 OA
ATOM     12  H   UNL     1       5.720   1.316  19.496  0.00  0.00    +0.000 HD
ENDBRANCH   9  11
ENDBRANCH   6   9
BRANCH   1  13
ATOM     13  O   UNL     1       3.989   3.580  16.833  0.00  0.00    +0.000 OA
BRANCH  13  18
ATOM     14  C   UNL     1       6.674   4.669  14.873  0.00  0.00    +0.000 A 
ATOM     15  C   UNL     1       7.377   5.491  15.721  0.00  0.00    +0.000 A 
ATOM     16  C   UNL     1       6.948   5.484  17.026  0.00  0.00    +0.000 A 
ATOM     17  N   UNL     1       5.919   4.749  17.463  0.00  0.00    +0.000 NA
ATOM     18  C   UNL     1       5.258   4.045  16.530  0.00  0.00    +0.000 A 
ATOM     19  N   UNL     1       5.605   3.948  15.243  0.00  0.00    +0.000 NA
BRANCH  14  21
ATOM     20  C   UNL     1       6.348   3.692  12.776  0.00  0.00    +0.000 C 
ATOM     21  O   UNL     1       7.054   4.667  13.545  0.00  0.00    +0.000 OA
ENDBRANCH  14  21
BRANCH  16  22
ATOM     22  O   UNL     1       7.562   6.363  17.896  0.00  0.00    +0.000 OA
ATOM     23  C   UNL     1       7.795   5.788  19.182  0.00  0.00    +0.000 C 
ENDBRANCH  16  22
ENDBRANCH  13  18
ENDBRANCH   1  13
TORSDOF 7
ENDMDL
MODEL 7
REMARK VINA RESULT:      -7.1      1.849      3.046
REMARK  Name = 
REMARK  10 active torsions:
REMARK  status: ('A' for Active; 'I' for Inactive)
REMARK    1  A    between atoms: C_1  and  O_2
REMARK    2  A    between atoms: O_2  and  C_3
REMARK    3  A    between atoms: C_5  and  O_6
REMARK    4  A    between atoms: O_6  and  C_7
REMARK    5  A    between atoms: C_9  and  O_10
REMARK    6  A    between atoms: O_10  and  C_11
REMARK    7  A    between atoms: C_15  and  O_16
REMARK    8  A    between atoms: O_16  and  C_17
REMARK    9  A    between atoms: C_18  and  C_19
REMARK   10  A    between atoms: C_19  and  O_21
REMARK                            x       y       z     vdW  Elec       q    Type
REMARK                         _______ _______ _______ _____ _____    ______ ____
ROOT
ATOM      1  C   UNL     1       4.021   4.714  19.777  0.00  0.00    +0.000 A 
ATOM      2  C   UNL     1       3.226   5.873  19.677  0.00  0.00    +0.000 A 
ATOM      3  C   UNL     1       1.906   5.869  20.092  0.00  0.00    +0.000 A 
ATOM      4  C   UNL     1       1.335   4.684  20.530  0.00  0.00    +0.000 A 
ATOM      5  C   UNL     1       2.069   3.484  20.526  0.00  0.00    +0.000 A 
ATOM      6  C   UNL     1       3.439   3.486  20.157  0.00  0.00    +0.000 A 
ENDROOT
BRANCH   5   7
ATOM      7  O   UNL     1       1.498   2.292  20.916  0.00  0.00    +0.000 OA
ATOM      8  C   UNL     1       1.214   2.147  22.310  0.00  0.00    +0.000 C 
ENDBRANCH   5   7
BRANCH   6   9
ATOM      9  C   UNL     1       4.292   2.242  20.122  0.00  0.00    +0.000 C 
ATOM     10  O   UNL     1       4.861   1.770  21.091  0.00  0.00    +0.000 OA
BRANCH   9  11
ATOM     11  O   UNL     1       4.407   1.648  18.911  0.00  0.00    +0.000 OA
ATOM     12  H   UNL     1       3.586   1.202  18.620  0.00  0.00    +0.000 HD
ENDBRANCH   9  11
ENDBRANCH   6   9
BRANCH   1  13
ATOM     13  O   UNL     1       5.373   4.769  19.483  0.00  0.00    +0.000 OA
BRANCH  13  18
ATOM     14  C   UNL     1       7.045   6.381  16.868  0.00  0.00    +0.000 A 
ATOM     15  C   UNL     1       6.951   5.488  15.828  0.00  0.00    +0.000 A 
ATOM     16  C   UNL     1       6.134   4.408  16.061  0.00  0.00    +0.000 A 
ATOM     17  N   UNL     1       5.478   4.212  17.210  0.00  0.00    +0.000 NA
ATOM     18  C   UNL     1       5.707   5.109  18.183  0.00  0.00    +0.000 A 
ATOM     19  N   UNL     1       6.450   6.213  18.058  0.00  0.00    +0.000 NA
BRANCH  14  21
ATOM     20  C   UNL     1       8.027   8.248  17.873  0.00  0.00    +0.000 C 
ATOM     21  O   UNL     1       7.878   7.468  16.685  0.00  0.00    +0.000 OA
ENDBRANCH  14  21
BRANCH  16  22
ATOM     22  O   UNL     1       6.081   3.435  15.083  0.00  0.00    +0.000 OA
ATOM     23  C   UNL     1       6.312   3.959  13.775  0.00  0.00    +0.000 C 
ENDBRANCH  16  22
ENDBRANCH  13  18
ENDBRANCH   1  13
TORSDOF 7
ENDMDL
MODEL 8
REMARK VINA RESULT:      -7.1      1.636      3.218
REMARK  Name = 
REMARK  10 active torsions:
REMARK  status: ('A' for Active; 'I' for Inactive)
REMARK    1  A    between atoms: C_1  and  O_2
REMARK    2  A    between atoms: O_2  and  C_3
REMARK    3  A    between atoms: C_5  and  O_6
REMARK    4  A    between atoms: O_6  and  C_7
REMARK    5  A    between atoms: C_9  and  O_10
REMARK    6  A    between atoms: O_10  and  C_11
REMARK    7  A    between atoms: C_15  and  O_16
REMARK    8  A    between atoms: O_16  and  C_17
REMARK    9  A    between atoms: C_18  and  C_19
REMARK   10  A    between atoms: C_19  and  O_21
REMARK                            x       y       z     vdW  Elec       q    Type
REMARK                         _______ _______ _______ _____ _____    ______ ____
ROOT
ATOM      1  C   UNL     1       3.403   3.076  17.700  0.00  0.00    +0.000 A 
ATOM      2  C   UNL     1       2.357   3.829  17.129  0.00  0.00    +0.000 A 
ATOM      3  C   UNL     1       1.226   4.146  17.860  0.00  0.00    +0.000 A 
ATOM      4  C   UNL     1       1.082   3.640  19.144  0.00  0.00    +0.000 A 
ATOM      5  C   UNL     1       2.054   2.786  19.695  0.00  0.00    +0.000 A 
ATOM      6  C   UNL     1       3.244   2.500  18.978  0.00  0.00    +0.000 A 
ENDROOT
BRANCH   5   7
ATOM      7  O   UNL     1       1.900   2.241  20.952  0.00  0.00    +0.000 OA
ATOM      8  C   UNL     1       2.080   3.129  22.058  0.00  0.00    +0.000 C 
ENDBRANCH   5   7
BRANCH   6   9
ATOM      9  C   UNL     1       4.330   1.590  19.499  0.00  0.00    +0.000 C 
ATOM     10  O   UNL     1       5.008   1.822  20.484  0.00  0.00    +0.000 OA
BRANCH   9  11
ATOM     11  O   UNL     1       4.530   0.455  18.788  0.00  0.00    +0.000 OA
ATOM     12  H   UNL     1       3.962  -0.287  19.078  0.00  0.00    +0.000 HD
ENDBRANCH   9  11
ENDBRANCH   6   9
BRANCH   1  13
ATOM     13  O   UNL     1       4.583   2.882  17.002  0.00  0.00    +0.000 OA
BRANCH  13  18
ATOM     14  C   UNL     1       6.816   5.516  17.557  0.00  0.00    +0.000 A 
ATOM     15  C   UNL     1       7.308   5.789  16.304  0.00  0.00    +0.000 A 
ATOM     16  C   UNL     1       6.684   5.124  15.277  0.00  0.00    +0.000 A 
ATOM     17  N   UNL     1       5.677   4.262  15.457  0.00  0.00    +0.000 NA
ATOM     18  C   UNL     1       5.332   4.015  16.732  0.00  0.00    +0.000 A 
ATOM     19  N   UNL     1       5.843   4.626  17.804  0.00  0.00    +0.000 NA
BRANCH  14  21
ATOM     20  C   UNL     1       8.036   7.383  18.252  0.00  0.00    +0.000 C 
ATOM     21  O   UNL     1       7.434   6.142  18.622  0.00  0.00    +0.000 OA
ENDBRANCH  14  21
BRANCH  16  22
ATOM     22  O   UNL     1       7.203   5.293  14.008  0.00  0.00    +0.000 OA
ATOM     23  C   UNL     1       6.829   4.240  13.119  0.00  0.00    +0.000 C 
ENDBRANCH  16  22
ENDBRANCH  13  18
ENDBRANCH   1  13
TORSDOF 7
ENDMDL
MODEL 9
REMARK VINA RESULT:      -7.0      1.211      2.935
REMARK  Name = 
REMARK  10 active torsions:
REMARK  status: ('A' for Active; 'I' for Inactive)
REMARK    1  A    between atoms: C_1  and  O_2
REMARK    2  A    between atoms: O_2  and  C_3
REMARK    3  A    between atoms: C_5  and  O_6
REMARK    4  A    between atoms: O_6  and  C_7
REMARK    5  A    between atoms: C_9  and  O_10
REMARK    6  A    between atoms: O_10  and  C_11
REMARK    7  A    between atoms: C_15  and  O_16
REMARK    8  A    between atoms: O_16  and  C_17
REMARK    9  A    between atoms: C_18  and  C_19
REMARK   10  A    between atoms: C_19  and  O_21
REMARK                            x       y       z     vdW  Elec       q    Type
REMARK                         _______ _______ _______ _____ _____    ______ ____
ROOT
ATOM      1  C   UNL     1       3.203   4.221  17.914  0.00  0.00    +0.000 A 
ATOM      2  C   UNL     1       2.489   5.435  17.869  0.00  0.00    +0.000 A 
ATOM      3  C   UNL     1       1.938   5.980  19.015  0.00  0.00    +0.000 A 
ATOM      4  C   UNL     1       2.017   5.277  20.208  0.00  0.00    +0.000 A 
ATOM      5  C   UNL     1       2.618   4.006  20.258  0.00  0.00    +0.000 A 
ATOM      6  C   UNL     1       3.235   3.462  19.103  0.00  0.00    +0.000 A 
ENDROOT
BRANCH   5   7
ATOM      7  O   UNL     1       2.662   3.278  21.428  0.00  0.00    +0.000 OA
ATOM      8  C   UNL     1       1.516   2.476  21.722  0.00  0.00    +0.000 C 
ENDBRANCH   5   7
BRANCH   6   9
ATOM      9  C   UNL     1       3.896   2.105  19.075  0.00  0.00    +0.000 C 
ATOM     10  O   UNL     1       3.485   1.153  18.436  0.00  0.00    +0.000 OA
BRANCH   9  11
ATOM     11  O   UNL     1       5.013   1.986  19.829  0.00  0.00    +0.000 OA
ATOM     12  H   UNL     1       4.864   2.186  20.776  0.00  0.00    +0.000 HD
ENDBRANCH   9  11
ENDBRANCH   6   9
BRANCH   1  13
ATOM     13  O   UNL     1       3.860   3.757  16.787  0.00  0.00    +0.000 OA
BRANCH  13  18
ATOM     14  C   UNL     1       6.859   5.549  16.960  0.00  0.00    +0.000 A 
ATOM     15  C   UNL     1       7.389   5.411  15.700  0.00  0.00    +0.000 A 
ATOM     16  C   UNL     1       6.557   4.818  14.782  0.00  0.00    +0.000 A 
ATOM     17  N   UNL     1       5.323   4.389  15.069  0.00  0.00    +0.000 NA
ATOM     18  C   UNL     1       4.941   4.506  16.352  0.00  0.00    +0.000 A 
ATOM     19  N   UNL     1       5.648   5.096  17.319  0.00  0.00    +0.000 NA
BRANCH  14  21
ATOM     20  C   UNL     1       7.343   5.679  19.242  0.00  0.00    +0.000 C 
ATOM     21  O   UNL     1       7.672   6.116  17.923  0.00  0.00    +0.000 OA
ENDBRANCH  14  21
BRANCH  16  22
ATOM     22  O   UNL     1       7.077   4.571  13.526  0.00  0.00    +0.000 OA
ATOM     23  C   UNL     1       6.337   3.582  12.812  0.00  0.00    +0.000 C 
ENDBRANCH  16  22
ENDBRANCH  13  18
ENDBRANCH   1  13
TORSDOF 7
ENDMDL
