MODEL 1
REMARK VINA RESULT:      -8.3      0.000      0.000
REMARK  Name = 
REMARK  5 active torsions:
REMARK  status: ('A' for Active; 'I' for Inactive)
REMARK    1  A    between atoms: C_1  and  N_2
REMARK    2  A    between atoms: C_5  and  S_6
REMARK    3  A    between atoms: S_6  and  N_9
REMARK    4  A    between atoms: N_9  and  C_10
REMARK    5  A    between atoms: C_13  and  N_14
REMARK                            x       y       z     vdW  Elec       q    Type
REMARK                         _______ _______ _______ _____ _____    ______ ____
ROOT
ATOM      1  C   UNL     1       1.095   9.876  19.659  0.00  0.00    +0.000 A 
ATOM      2  C   UNL     1       0.816   9.347  20.917  0.00  0.00    +0.000 A 
ATOM      3  C   UNL     1       1.109   8.002  21.188  0.00  0.00    +0.000 A 
ATOM      4  C   UNL     1       1.665   7.171  20.204  0.00  0.00    +0.000 A 
ATOM      5  C   UNL     1       2.030   7.756  18.984  0.00  0.00    +0.000 A 
ATOM      6  C   UNL     1       1.739   9.097  18.704  0.00  0.00    +0.000 A 
ENDROOT
BRANCH   4   7
ATOM      7  N   UNL     1       1.908   5.805  20.498  0.00  0.00    +0.000 N 
ATOM      8  C   UNL     1       3.015   5.036  20.051  0.00  0.00    +0.000 A 
ATOM      9  C   UNL     1       3.159   3.745  20.505  0.00  0.00    +0.000 A 
ATOM     10  C   UNL     1       4.263   3.067  20.050  0.00  0.00    +0.000 A 
ATOM     11  N   UNL     1       5.171   3.598  19.210  0.00  0.00    +0.000 NA
ATOM     12  C   UNL     1       4.971   4.859  18.806  0.00  0.00    +0.000 A 
ATOM     13  N   UNL     1       5.886   5.478  17.990  0.00  0.00    +0.000 N 
ATOM     14  C   UNL     1       7.004   4.729  17.419  0.00  0.00    +0.000 C 
ATOM     15  C   UNL     1       6.803   4.489  15.905  0.00  0.00    +0.000 C 
ATOM     16  N   UNL     1       6.491   5.719  15.150  0.00  0.00    +0.000 NA
ATOM     17  C   UNL     1       5.301   6.357  15.745  0.00  0.00    +0.000 C 
ATOM     18  C   UNL     1       5.476   6.674  17.246  0.00  0.00    +0.000 C 
ATOM     19  N   UNL     1       3.913   5.571  19.212  0.00  0.00    +0.000 NA
ATOM     20  H   UNL     1       1.062   5.252  20.406  0.00  0.00    +0.000 HD
ATOM     21  H   UNL     1       6.293   5.477  14.180  0.00  0.00    +0.000 HD
ENDBRANCH   4   7
BRANCH   1  22
ATOM     22  N   UNL     1       0.768  11.229  19.345  0.00  0.00    +0.000 N 
ATOM     23  H   UNL     1       1.432  11.691  18.728  0.00  0.00    +0.000 HD
BRANCH  22  24
ATOM     24  S   UNL     1      -0.795  11.511  18.758  0.00  0.00    +0.000 S 
ATOM     25  O   UNL     1      -1.345  10.259  18.279  0.00  0.00    +0.000 OA
ATOM     26  O   UNL     1      -0.717  12.665  17.886  0.00  0.00    +0.000 OA
BRANCH  24  31
ATOM     27  C   UNL     1      -2.776  12.714  23.452  0.00  0.00    +0.000 C 
ATOM     28  N   UNL     1      -2.635  12.502  22.034  0.00  0.00    +0.000 N 
ATOM     29  C   UNL     1      -3.587  12.732  21.085  0.00  0.00    +0.000 A 
ATOM     30  N   UNL     1      -3.141  12.460  19.878  0.00  0.00    +0.000 NA
ATOM     31  C   UNL     1      -1.843  12.004  20.065  0.00  0.00    +0.000 A 
ATOM     32  C   UNL     1      -1.515  12.037  21.408  0.00  0.00    +0.000 A 
ENDBRANCH  24  31
ENDBRANCH  22  24
ENDBRANCH   1  22
TORSDOF 4
ENDMDL
MODEL 2
REMARK VINA RESULT:      -8.2      3.434      9.562
REMARK  Name = 
REMARK  5 active torsions:
REMARK  status: ('A' for Active; 'I' for Inactive)
REMARK    1  A    between atoms: C_1  and  N_2
REMARK    2  A    between atoms: C_5  and  S_6
REMARK    3  A    between atoms: S_6  and  N_9
REMARK    4  A    between atoms: N_9  and  C_10
REMARK    5  A    between atoms: C_13  and  N_14
REMARK                            x       y       z     vdW  Elec       q    Type
REMARK                         _______ _______ _______ _____ _____    ______ ____
ROOT
ATOM      1  C   UNL     1       2.299   6.620  18.685  0.00  0.00    +0.000 A 
ATOM      2  C   UNL     1       1.876   6.797  20.000  0.00  0.00    +0.000 A 
ATOM      3  C   UNL     1       1.497   8.072  20.444  0.00  0.00    +0.000 A 
ATOM      4  C   UNL     1       1.553   9.182  19.588  0.00  0.00    +0.000 A 
ATOM      5  C   UNL     1       1.882   8.956  18.245  0.00  0.00    +0.000 A 
ATOM      6  C   UNL     1       2.265   7.686  17.793  0.00  0.00    +0.000 A 
ENDROOT
BRANCH   4   7
ATOM      7  N   UNL     1       1.204  10.465  20.082  0.00  0.00    +0.000 N 
ATOM      8  C   UNL     1      -0.035  11.131  19.884  0.00  0.00    +0.000 A 
ATOM      9  C   UNL     1      -0.255  12.334  20.513  0.00  0.00    +0.000 A 
ATOM     10  C   UNL     1      -1.481  12.912  20.295  0.00  0.00    +0.000 A 
ATOM     11  N   UNL     1      -2.436  12.365  19.520  0.00  0.00    +0.000 NA
ATOM     12  C   UNL     1      -2.157  11.192  18.937  0.00  0.00    +0.000 A 
ATOM     13  N   UNL     1      -3.106  10.554  18.174  0.00  0.00    +0.000 N 
ATOM     14  C   UNL     1      -4.371  11.213  17.854  0.00  0.00    +0.000 C 
ATOM     15  C   UNL     1      -4.419  11.642  16.369  0.00  0.00    +0.000 C 
ATOM     16  N   UNL     1      -4.084  10.553  15.429  0.00  0.00    +0.000 NA
ATOM     17  C   UNL     1      -2.757  10.011  15.779  0.00  0.00    +0.000 C 
ATOM     18  C   UNL     1      -2.676   9.510  17.237  0.00  0.00    +0.000 C 
ATOM     19  N   UNL     1      -0.979  10.581  19.108  0.00  0.00    +0.000 NA
ATOM     20  H   UNL     1       1.961  11.128  19.951  0.00  0.00    +0.000 HD
ATOM     21  H   UNL     1      -4.056  10.924  14.481  0.00  0.00    +0.000 HD
ENDBRANCH   4   7
BRANCH   1  22
ATOM     22  N   UNL     1       2.730   5.341  18.220  0.00  0.00    +0.000 N 
ATOM     23  H   UNL     1       2.697   5.226  17.210  0.00  0.00    +0.000 HD
BRANCH  22  24
ATOM     24  S   UNL     1       4.240   4.808  18.771  0.00  0.00    +0.000 S 
ATOM     25  O   UNL     1       4.080   3.503  19.379  0.00  0.00    +0.000 OA
ATOM     26  O   UNL     1       4.828   5.903  19.516  0.00  0.00    +0.000 OA
BRANCH  24  31
ATOM     27  C   UNL     1       6.228   3.908  14.013  0.00  0.00    +0.000 C 
ATOM     28  N   UNL     1       6.109   4.185  15.421  0.00  0.00    +0.000 N 
ATOM     29  C   UNL     1       7.137   4.402  16.291  0.00  0.00    +0.000 A 
ATOM     30  N   UNL     1       6.697   4.650  17.505  0.00  0.00    +0.000 NA
ATOM     31  C   UNL     1       5.314   4.557  17.417  0.00  0.00    +0.000 A 
ATOM     32  C   UNL     1       4.938   4.277  16.116  0.00  0.00    +0.000 A 
ENDBRANCH  24  31
ENDBRANCH  22  24
ENDBRANCH   1  22
TORSDOF 4
ENDMDL
MODEL 3
REMARK VINA RESULT:      -8.2      1.920      2.622
REMARK  Name = 
REMARK  5 active torsions:
REMARK  status: ('A' for Active; 'I' for Inactive)
REMARK    1  A    between atoms: C_1  and  N_2
REMARK    2  A    between atoms: C_5  and  S_6
REMARK    3  A    between atoms: S_6  and  N_9
REMARK    4  A    between atoms: N_9  and  C_10
REMARK    5  A    between atoms: C_13  and  N_14
REMARK                            x       y       z     vdW  Elec       q    Type
REMARK                         _______ _______ _______ _____ _____    ______ ____
ROOT
ATOM      1  C   UNL     1       1.255  10.166  19.233  0.00  0.00    +0.000 A 
ATOM      2  C   UNL     1       1.110   9.744  20.553  0.00  0.00    +0.000 A 
ATOM      3  C   UNL     1       1.356   8.403  20.887  0.00  0.00    +0.000 A 
ATOM      4  C   UNL     1       1.729   7.471  19.907  0.00  0.00    +0.000 A 
ATOM      5  C   UNL     1       1.967   7.945  18.610  0.00  0.00    +0.000 A 
ATOM      6  C   UNL     1       1.722   9.281  18.267  0.00  0.00    +0.000 A 
ENDROOT
BRANCH   4   7
ATOM      7  N   UNL     1       1.927   6.115  20.272  0.00  0.00    +0.000 N 
ATOM      8  C   UNL     1       3.013   5.291  19.875  0.00  0.00    +0.000 A 
ATOM      9  C   UNL     1       3.113   4.021  20.395  0.00  0.00    +0.000 A 
ATOM     10  C   UNL     1       4.199   3.287  19.986  0.00  0.00    +0.000 A 
ATOM     11  N   UNL     1       5.131   3.747  19.131  0.00  0.00    +0.000 NA
ATOM     12  C   UNL     1       4.974   4.992  18.663  0.00  0.00    +0.000 A 
ATOM     13  N   UNL     1       5.916   5.541  17.827  0.00  0.00    +0.000 N 
ATOM     14  C   UNL     1       7.016   4.730  17.307  0.00  0.00    +0.000 C 
ATOM     15  C   UNL     1       6.822   4.421  15.805  0.00  0.00    +0.000 C 
ATOM     16  N   UNL     1       6.556   5.620  14.985  0.00  0.00    +0.000 NA
ATOM     17  C   UNL     1       5.381   6.323  15.534  0.00  0.00    +0.000 C 
ATOM     18  C   UNL     1       5.550   6.710  17.019  0.00  0.00    +0.000 C 
ATOM     19  N   UNL     1       3.935   5.755  19.021  0.00  0.00    +0.000 NA
ATOM     20  H   UNL     1       1.064   5.584  20.197  0.00  0.00    +0.000 HD
ATOM     21  H   UNL     1       6.360   5.336  14.027  0.00  0.00    +0.000 HD
ENDBRANCH   4   7
BRANCH   1  22
ATOM     22  N   UNL     1       0.971  11.514  18.861  0.00  0.00    +0.000 N 
ATOM     23  H   UNL     1       1.279  11.767  17.925  0.00  0.00    +0.000 HD
BRANCH  22  24
ATOM     24  S   UNL     1      -0.631  12.028  19.054  0.00  0.00    +0.000 S 
ATOM     25  O   UNL     1      -0.731  13.410  18.628  0.00  0.00    +0.000 OA
ATOM     26  O   UNL     1      -1.043  11.635  20.386  0.00  0.00    +0.000 OA
BRANCH  24  31
ATOM     27  C   UNL     1      -3.443  10.418  14.942  0.00  0.00    +0.000 C 
ATOM     28  N   UNL     1      -2.833  10.491  16.245  0.00  0.00    +0.000 N 
ATOM     29  C   UNL     1      -2.960   9.575  17.248  0.00  0.00    +0.000 A 
ATOM     30  N   UNL     1      -2.261   9.920  18.307  0.00  0.00    +0.000 NA
ATOM     31  C   UNL     1      -1.677  11.136  17.977  0.00  0.00    +0.000 A 
ATOM     32  C   UNL     1      -2.020  11.495  16.688  0.00  0.00    +0.000 A 
ENDBRANCH  24  31
ENDBRANCH  22  24
ENDBRANCH   1  22
TORSDOF 4
ENDMDL
MODEL 4
REMARK VINA RESULT:      -8.1      2.263      3.987
REMARK  Name = 
REMARK  5 active torsions:
REMARK  status: ('A' for Active; 'I' for Inactive)
REMARK    1  A    between atoms: C_1  and  N_2
REMARK    2  A    between atoms: C_5  and  S_6
REMARK    3  A    between atoms: S_6  and  N_9
REMARK    4  A    between atoms: N_9  and  C_10
REMARK    5  A    between atoms: C_13  and  N_14
REMARK                            x       y       z     vdW  Elec       q    Type
REMARK                         _______ _______ _______ _____ _____    ______ ____
ROOT
ATOM      1  C   UNL     1      -0.225  10.097  20.180  0.00  0.00    +0.000 A 
ATOM      2  C   UNL     1      -0.066  10.470  18.847  0.00  0.00    +0.000 A 
ATOM      3  C   UNL     1       0.962   9.902  18.081  0.00  0.00    +0.000 A 
ATOM      4  C   UNL     1       1.850   8.971  18.642  0.00  0.00    +0.000 A 
ATOM      5  C   UNL     1       1.604   8.539  19.951  0.00  0.00    +0.000 A 
ATOM      6  C   UNL     1       0.580   9.103  20.724  0.00  0.00    +0.000 A 
ENDROOT
BRANCH   4   7
ATOM      7  N   UNL     1       2.906   8.449  17.852  0.00  0.00    +0.000 N 
ATOM      8  C   UNL     1       3.297   7.086  17.772  0.00  0.00    +0.000 A 
ATOM      9  C   UNL     1       4.281   6.725  16.881  0.00  0.00    +0.000 A 
ATOM     10  C   UNL     1       4.594   5.388  16.840  0.00  0.00    +0.000 A 
ATOM     11  N   UNL     1       3.997   4.459  17.607  0.00  0.00    +0.000 NA
ATOM     12  C   UNL     1       3.046   4.878  18.453  0.00  0.00    +0.000 A 
ATOM     13  N   UNL     1       2.361   3.973  19.229  0.00  0.00    +0.000 N 
ATOM     14  C   UNL     1       2.762   2.568  19.265  0.00  0.00    +0.000 C 
ATOM     15  C   UNL     1       3.435   2.212  20.611  0.00  0.00    +0.000 C 
ATOM     16  N   UNL     1       2.643   2.615  21.791  0.00  0.00    +0.000 NA
ATOM     17  C   UNL     1       2.363   4.061  21.708  0.00  0.00    +0.000 C 
ATOM     18  C   UNL     1       1.634   4.459  20.407  0.00  0.00    +0.000 C 
ATOM     19  N   UNL     1       2.699   6.167  18.542  0.00  0.00    +0.000 NA
ATOM     20  H   UNL     1       3.737   9.028  17.918  0.00  0.00    +0.000 HD
ATOM     21  H   UNL     1       3.179   2.425  22.636  0.00  0.00    +0.000 HD
ENDBRANCH   4   7
BRANCH   1  22
ATOM     22  N   UNL     1      -1.237  10.692  20.991  0.00  0.00    +0.000 N 
ATOM     23  H   UNL     1      -1.963  10.050  21.299  0.00  0.00    +0.000 HD
BRANCH  22  24
ATOM     24  S   UNL     1      -0.704  11.579  22.332  0.00  0.00    +0.000 S 
ATOM     25  O   UNL     1       0.286  12.540  21.891  0.00  0.00    +0.000 OA
ATOM     26  O   UNL     1      -0.391  10.622  23.374  0.00  0.00    +0.000 OA
BRANCH  24  31
ATOM     27  C   UNL     1      -3.627  15.427  24.345  0.00  0.00    +0.000 C 
ATOM     28  N   UNL     1      -3.208  14.158  23.809  0.00  0.00    +0.000 N 
ATOM     29  C   UNL     1      -4.003  13.069  23.598  0.00  0.00    +0.000 A 
ATOM     30  N   UNL     1      -3.324  12.070  23.077  0.00  0.00    +0.000 NA
ATOM     31  C   UNL     1      -2.018  12.532  22.976  0.00  0.00    +0.000 A 
ATOM     32  C   UNL     1      -1.939  13.838  23.421  0.00  0.00    +0.000 A 
ENDBRANCH  24  31
ENDBRANCH  22  24
ENDBRANCH   1  22
TORSDOF 4
ENDMDL
MODEL 5
REMARK VINA RESULT:      -8.1      3.402      9.448
REMARK  Name = 
REMARK  5 active torsions:
REMARK  status: ('A' for Active; 'I' for Inactive)
REMARK    1  A    between atoms: C_1  and  N_2
REMARK    2  A    between atoms: C_5  and  S_6
REMARK    3  A    between atoms: S_6  and  N_9
REMARK    4  A    between atoms: N_9  and  C_10
REMARK    5  A    between atoms: C_13  and  N_14
REMARK                            x       y       z     vdW  Elec       q    Type
REMARK                         _______ _______ _______ _____ _____    ______ ____
ROOT
ATOM      1  C   UNL     1       2.075   6.729  18.873  0.00  0.00    +0.000 A 
ATOM      2  C   UNL     1       2.170   7.812  18.003  0.00  0.00    +0.000 A 
ATOM      3  C   UNL     1       1.867   9.103  18.462  0.00  0.00    +0.000 A 
ATOM      4  C   UNL     1       1.450   9.321  19.783  0.00  0.00    +0.000 A 
ATOM      5  C   UNL     1       1.463   8.230  20.662  0.00  0.00    +0.000 A 
ATOM      6  C   UNL     1       1.762   6.937  20.212  0.00  0.00    +0.000 A 
ENDROOT
BRANCH   4   7
ATOM      7  N   UNL     1       1.109  10.633  20.201  0.00  0.00    +0.000 N 
ATOM      8  C   UNL     1      -0.120  11.298  19.953  0.00  0.00    +0.000 A 
ATOM      9  C   UNL     1      -0.335  12.537  20.512  0.00  0.00    +0.000 A 
ATOM     10  C   UNL     1      -1.553  13.114  20.248  0.00  0.00    +0.000 A 
ATOM     11  N   UNL     1      -2.505  12.534  19.495  0.00  0.00    +0.000 NA
ATOM     12  C   UNL     1      -2.232  11.327  18.981  0.00  0.00    +0.000 A 
ATOM     13  N   UNL     1      -3.179  10.658  18.244  0.00  0.00    +0.000 N 
ATOM     14  C   UNL     1      -4.435  11.310  17.874  0.00  0.00    +0.000 C 
ATOM     15  C   UNL     1      -4.462  11.656  16.367  0.00  0.00    +0.000 C 
ATOM     16  N   UNL     1      -4.129  10.513  15.493  0.00  0.00    +0.000 NA
ATOM     17  C   UNL     1      -2.811   9.979  15.887  0.00  0.00    +0.000 C 
ATOM     18  C   UNL     1      -2.751   9.559  17.371  0.00  0.00    +0.000 C 
ATOM     19  N   UNL     1      -1.062  10.715  19.198  0.00  0.00    +0.000 NA
ATOM     20  H   UNL     1       1.874  11.281  20.042  0.00  0.00    +0.000 HD
ATOM     21  H   UNL     1      -4.087  10.830  14.526  0.00  0.00    +0.000 HD
ENDBRANCH   4   7
BRANCH   1  22
ATOM     22  N   UNL     1       2.337   5.401  18.420  0.00  0.00    +0.000 N 
ATOM     23  H   UNL     1       1.993   5.199  17.484  0.00  0.00    +0.000 HD
BRANCH  22  24
ATOM     24  S   UNL     1       3.941   4.869  18.528  0.00  0.00    +0.000 S 
ATOM     25  O   UNL     1       3.942   3.451  18.824  0.00  0.00    +0.000 OA
ATOM     26  O   UNL     1       4.638   5.803  19.390  0.00  0.00    +0.000 OA
BRANCH  24  31
ATOM     27  C   UNL     1       6.223   3.896  13.919  0.00  0.00    +0.000 C 
ATOM     28  N   UNL     1       5.665   4.579  15.058  0.00  0.00    +0.000 N 
ATOM     29  C   UNL     1       5.577   5.930  15.227  0.00  0.00    +0.000 A 
ATOM     30  N   UNL     1       4.996   6.237  16.366  0.00  0.00    +0.000 NA
ATOM     31  C   UNL     1       4.724   5.018  16.975  0.00  0.00    +0.000 A 
ATOM     32  C   UNL     1       5.129   3.978  16.160  0.00  0.00    +0.000 A 
ENDBRANCH  24  31
ENDBRANCH  22  24
ENDBRANCH   1  22
TORSDOF 4
ENDMDL
MODEL 6
REMARK VINA RESULT:      -8.1      3.554      9.228
REMARK  Name = 
REMARK  5 active torsions:
REMARK  status: ('A' for Active; 'I' for Inactive)
REMARK    1  A    between atoms: C_1  and  N_2
REMARK    2  A    between atoms: C_5  and  S_6
REMARK    3  A    between atoms: S_6  and  N_9
REMARK    4  A    between atoms: N_9  and  C_10
REMARK    5  A    between atoms: C_13  and  N_14
REMARK                            x       y       z     vdW  Elec       q    Type
REMARK                         _______ _______ _______ _____ _____    ______ ____
ROOT
ATOM      1  C   UNL     1       3.745   5.237  17.984  0.00  0.00    +0.000 A 
ATOM      2  C   UNL     1       3.552   4.562  19.188  0.00  0.00    +0.000 A 
ATOM      3  C   UNL     1       2.845   5.182  20.229  0.00  0.00    +0.000 A 
ATOM      4  C   UNL     1       2.341   6.483  20.085  0.00  0.00    +0.000 A 
ATOM      5  C   UNL     1       2.460   7.096  18.831  0.00  0.00    +0.000 A 
ATOM      6  C   UNL     1       3.166   6.485  17.786  0.00  0.00    +0.000 A 
ENDROOT
BRANCH   4   7
ATOM      7  N   UNL     1       1.669   7.097  21.173  0.00  0.00    +0.000 N 
ATOM      8  C   UNL     1       1.030   8.365  21.155  0.00  0.00    +0.000 A 
ATOM      9  C   UNL     1       0.335   8.779  22.268  0.00  0.00    +0.000 A 
ATOM     10  C   UNL     1      -0.277  10.004  22.174  0.00  0.00    +0.000 A 
ATOM     11  N   UNL     1      -0.224  10.782  21.078  0.00  0.00    +0.000 NA
ATOM     12  C   UNL     1       0.470  10.320  20.029  0.00  0.00    +0.000 A 
ATOM     13  N   UNL     1       0.522  11.042  18.861  0.00  0.00    +0.000 N 
ATOM     14  C   UNL     1      -0.038  12.390  18.791  0.00  0.00    +0.000 C 
ATOM     15  C   UNL     1       1.080  13.457  18.726  0.00  0.00    +0.000 C 
ATOM     16  N   UNL     1       2.083  13.197  17.675  0.00  0.00    +0.000 NA
ATOM     17  C   UNL     1       2.652  11.851  17.879  0.00  0.00    +0.000 C 
ATOM     18  C   UNL     1       1.579  10.740  17.889  0.00  0.00    +0.000 C 
ATOM     19  N   UNL     1       1.091   9.135  20.060  0.00  0.00    +0.000 NA
ATOM     20  H   UNL     1       2.202   7.007  22.033  0.00  0.00    +0.000 HD
ATOM     21  H   UNL     1       2.828  13.889  17.741  0.00  0.00    +0.000 HD
ENDBRANCH   4   7
BRANCH   1  22
ATOM     22  N   UNL     1       4.497   4.645  16.926  0.00  0.00    +0.000 N 
ATOM     23  H   UNL     1       3.983   4.534  16.054  0.00  0.00    +0.000 HD
BRANCH  22  24
ATOM     24  S   UNL     1       5.996   5.351  16.578  0.00  0.00    +0.000 S 
ATOM     25  O   UNL     1       6.990   4.799  17.477  0.00  0.00    +0.000 OA
ATOM     26  O   UNL     1       5.782   6.782  16.503  0.00  0.00    +0.000 OA
BRANCH  24  31
ATOM     27  C   UNL     1       6.443   3.082  11.882  0.00  0.00    +0.000 C 
ATOM     28  N   UNL     1       6.670   3.927  13.026  0.00  0.00    +0.000 N 
ATOM     29  C   UNL     1       7.644   4.875  13.149  0.00  0.00    +0.000 A 
ATOM     30  N   UNL     1       7.573   5.492  14.308  0.00  0.00    +0.000 NA
ATOM     31  C   UNL     1       6.516   4.888  14.977  0.00  0.00    +0.000 A 
ATOM     32  C   UNL     1       5.940   3.917  14.179  0.00  0.00    +0.000 A 
ENDBRANCH  24  31
ENDBRANCH  22  24
ENDBRANCH   1  22
TORSDOF 4
ENDMDL
MODEL 7
REMARK VINA RESULT:      -8.1      0.674      1.297
REMARK  Name = 
REMARK  5 active torsions:
REMARK  status: ('A' for Active; 'I' for Inactive)
REMARK    1  A    between atoms: C_1  and  N_2
REMARK    2  A    between atoms: C_5  and  S_6
REMARK    3  A    between atoms: S_6  and  N_9
REMARK    4  A    between atoms: N_9  and  C_10
REMARK    5  A    between atoms: C_13  and  N_14
REMARK                            x       y       z     vdW  Elec       q    Type
REMARK                         _______ _______ _______ _____ _____    ______ ____
ROOT
ATOM      1  C   UNL     1       1.300   9.775  19.586  0.00  0.00    +0.000 A 
ATOM      2  C   UNL     1       1.756   8.906  18.599  0.00  0.00    +0.000 A 
ATOM      3  C   UNL     1       1.960   7.551  18.903  0.00  0.00    +0.000 A 
ATOM      4  C   UNL     1       1.729   7.058  20.195  0.00  0.00    +0.000 A 
ATOM      5  C   UNL     1       1.173   7.932  21.139  0.00  0.00    +0.000 A 
ATOM      6  C   UNL     1       0.968   9.286  20.845  0.00  0.00    +0.000 A 
ENDROOT
BRANCH   4   7
ATOM      7  N   UNL     1       1.988   5.693  20.480  0.00  0.00    +0.000 N 
ATOM      8  C   UNL     1       3.100   4.938  20.022  0.00  0.00    +0.000 A 
ATOM      9  C   UNL     1       3.260   3.646  20.467  0.00  0.00    +0.000 A 
ATOM     10  C   UNL     1       4.369   2.982  20.002  0.00  0.00    +0.000 A 
ATOM     11  N   UNL     1       5.267   3.528  19.162  0.00  0.00    +0.000 NA
ATOM     12  C   UNL     1       5.052   4.790  18.767  0.00  0.00    +0.000 A 
ATOM     13  N   UNL     1       5.956   5.424  17.949  0.00  0.00    +0.000 N 
ATOM     14  C   UNL     1       7.079   4.690  17.369  0.00  0.00    +0.000 C 
ATOM     15  C   UNL     1       6.873   4.457  15.854  0.00  0.00    +0.000 C 
ATOM     16  N   UNL     1       6.545   5.689  15.108  0.00  0.00    +0.000 NA
ATOM     17  C   UNL     1       5.351   6.310  15.713  0.00  0.00    +0.000 C 
ATOM     18  C   UNL     1       5.530   6.620  17.215  0.00  0.00    +0.000 C 
ATOM     19  N   UNL     1       3.988   5.488  19.182  0.00  0.00    +0.000 NA
ATOM     20  H   UNL     1       1.147   5.132  20.388  0.00  0.00    +0.000 HD
ATOM     21  H   UNL     1       6.344   5.451  14.138  0.00  0.00    +0.000 HD
ENDBRANCH   4   7
BRANCH   1  22
ATOM     22  N   UNL     1       1.124  11.165  19.314  0.00  0.00    +0.000 N 
ATOM     23  H   UNL     1       1.676  11.515  18.534  0.00  0.00    +0.000 HD
BRANCH  22  24
ATOM     24  S   UNL     1      -0.471  11.702  19.124  0.00  0.00    +0.000 S 
ATOM     25  O   UNL     1      -1.303  10.571  18.768  0.00  0.00    +0.000 OA
ATOM     26  O   UNL     1      -0.423  12.878  18.280  0.00  0.00    +0.000 OA
BRANCH  24  31
ATOM     27  C   UNL     1      -3.564  13.404  22.989  0.00  0.00    +0.000 C 
ATOM     28  N   UNL     1      -2.411  12.971  22.243  0.00  0.00    +0.000 N 
ATOM     29  C   UNL     1      -1.139  12.850  22.721  0.00  0.00    +0.000 A 
ATOM     30  N   UNL     1      -0.315  12.410  21.795  0.00  0.00    +0.000 NA
ATOM     31  C   UNL     1      -1.094  12.269  20.654  0.00  0.00    +0.000 A 
ATOM     32  C   UNL     1      -2.406  12.607  20.927  0.00  0.00    +0.000 A 
ENDBRANCH  24  31
ENDBRANCH  22  24
ENDBRANCH   1  22
TORSDOF 4
ENDMDL
MODEL 8
REMARK VINA RESULT:      -8.1      3.815      8.582
REMARK  Name = 
REMARK  5 active torsions:
REMARK  status: ('A' for Active; 'I' for Inactive)
REMARK    1  A    between atoms: C_1  and  N_2
REMARK    2  A    between atoms: C_5  and  S_6
REMARK    3  A    between atoms: S_6  and  N_9
REMARK    4  A    between atoms: N_9  and  C_10
REMARK    5  A    between atoms: C_13  and  N_14
REMARK                            x       y       z     vdW  Elec       q    Type
REMARK                         _______ _______ _______ _____ _____    ______ ____
ROOT
ATOM      1  C   UNL     1       2.839   5.313  18.310  0.00  0.00    +0.000 A 
ATOM      2  C   UNL     1       2.160   4.667  19.340  0.00  0.00    +0.000 A 
ATOM      3  C   UNL     1       1.622   5.416  20.397  0.00  0.00    +0.000 A 
ATOM      4  C   UNL     1       1.772   6.810  20.445  0.00  0.00    +0.000 A 
ATOM      5  C   UNL     1       2.368   7.442  19.345  0.00  0.00    +0.000 A 
ATOM      6  C   UNL     1       2.910   6.701  18.286  0.00  0.00    +0.000 A 
ENDROOT
BRANCH   4   7
ATOM      7  N   UNL     1       1.254   7.531  21.550  0.00  0.00    +0.000 N 
ATOM      8  C   UNL     1       0.756   8.861  21.524  0.00  0.00    +0.000 A 
ATOM      9  C   UNL     1       0.196   9.388  22.664  0.00  0.00    +0.000 A 
ATOM     10  C   UNL     1      -0.285  10.671  22.562  0.00  0.00    +0.000 A 
ATOM     11  N   UNL     1      -0.229  11.400  21.432  0.00  0.00    +0.000 NA
ATOM     12  C   UNL     1       0.330  10.827  20.358  0.00  0.00    +0.000 A 
ATOM     13  N   UNL     1       0.373  11.498  19.159  0.00  0.00    +0.000 N 
ATOM     14  C   UNL     1      -0.040  12.898  19.072  0.00  0.00    +0.000 C 
ATOM     15  C   UNL     1       1.179  13.830  18.884  0.00  0.00    +0.000 C 
ATOM     16  N   UNL     1       2.067  13.424  17.776  0.00  0.00    +0.000 NA
ATOM     17  C   UNL     1       2.499  12.030  17.997  0.00  0.00    +0.000 C 
ATOM     18  C   UNL     1       1.316  11.047  18.130  0.00  0.00    +0.000 C 
ATOM     19  N   UNL     1       0.819   9.582  20.395  0.00  0.00    +0.000 NA
ATOM     20  H   UNL     1       1.836   7.412  22.373  0.00  0.00    +0.000 HD
ATOM     21  H   UNL     1       2.885  14.030  17.761  0.00  0.00    +0.000 HD
ENDBRANCH   4   7
BRANCH   1  22
ATOM     22  N   UNL     1       3.432   4.570  17.245  0.00  0.00    +0.000 N 
ATOM     23  H   UNL     1       3.506   5.078  16.366  0.00  0.00    +0.000 HD
BRANCH  22  24
ATOM     24  S   UNL     1       4.927   3.845  17.572  0.00  0.00    +0.000 S 
ATOM     25  O   UNL     1       5.419   3.225  16.358  0.00  0.00    +0.000 OA
ATOM     26  O   UNL     1       4.763   3.067  18.783  0.00  0.00    +0.000 OA
BRANCH  24  31
ATOM     27  C   UNL     1       7.919   8.139  17.633  0.00  0.00    +0.000 C 
ATOM     28  N   UNL     1       7.332   6.870  17.976  0.00  0.00    +0.000 N 
ATOM     29  C   UNL     1       7.655   6.096  19.052  0.00  0.00    +0.000 A 
ATOM     30  N   UNL     1       6.922   5.005  19.099  0.00  0.00    +0.000 NA
ATOM     31  C   UNL     1       6.106   5.067  17.977  0.00  0.00    +0.000 A 
ATOM     32  C   UNL     1       6.348   6.234  17.276  0.00  0.00    +0.000 A 
ENDBRANCH  24  31
ENDBRANCH  22  24
ENDBRANCH   1  22
TORSDOF 4
ENDMDL
MODEL 9
REMARK VINA RESULT:      -8.0      2.551      4.360
REMARK  Name = 
REMARK  5 active torsions:
REMARK  status: ('A' for Active; 'I' for Inactive)
REMARK    1  A    between atoms: C_1  and  N_2
REMARK    2  A    between atoms: C_5  and  S_6
REMARK    3  A    between atoms: S_6  and  N_9
REMARK    4  A    between atoms: N_9  and  C_10
REMARK    5  A    between atoms: C_13  and  N_14
REMARK                            x       y       z     vdW  Elec       q    Type
REMARK                         _______ _______ _______ _____ _____    ______ ____
ROOT
ATOM      1  C   UNL     1      -0.214  10.015  19.891  0.00  0.00    +0.000 A 
ATOM      2  C   UNL     1      -0.099  10.204  18.516  0.00  0.00    +0.000 A 
ATOM      3  C   UNL     1       0.964   9.613  17.817  0.00  0.00    +0.000 A 
ATOM      4  C   UNL     1       1.929   8.846  18.485  0.00  0.00    +0.000 A 
ATOM      5  C   UNL     1       1.731   8.588  19.848  0.00  0.00    +0.000 A 
ATOM      6  C   UNL     1       0.674   9.176  20.554  0.00  0.00    +0.000 A 
ENDROOT
BRANCH   4   7
ATOM      7  N   UNL     1       3.016   8.299  17.755  0.00  0.00    +0.000 N 
ATOM      8  C   UNL     1       3.408   6.935  17.732  0.00  0.00    +0.000 A 
ATOM      9  C   UNL     1       4.427   6.546  16.894  0.00  0.00    +0.000 A 
ATOM     10  C   UNL     1       4.739   5.209  16.907  0.00  0.00    +0.000 A 
ATOM     11  N   UNL     1       4.110   4.303  17.677  0.00  0.00    +0.000 NA
ATOM     12  C   UNL     1       3.126   4.748  18.470  0.00  0.00    +0.000 A 
ATOM     13  N   UNL     1       2.409   3.868  19.245  0.00  0.00    +0.000 N 
ATOM     14  C   UNL     1       2.805   2.464  19.340  0.00  0.00    +0.000 C 
ATOM     15  C   UNL     1       3.423   2.150  20.723  0.00  0.00    +0.000 C 
ATOM     16  N   UNL     1       2.584   2.588  21.856  0.00  0.00    +0.000 NA
ATOM     17  C   UNL     1       2.310   4.032  21.718  0.00  0.00    +0.000 C 
ATOM     18  C   UNL     1       1.635   4.390  20.376  0.00  0.00    +0.000 C 
ATOM     19  N   UNL     1       2.777   6.039  18.505  0.00  0.00    +0.000 NA
ATOM     20  H   UNL     1       3.844   8.880  17.838  0.00  0.00    +0.000 HD
ATOM     21  H   UNL     1       3.084   2.424  22.728  0.00  0.00    +0.000 HD
ENDBRANCH   4   7
BRANCH   1  22
ATOM     22  N   UNL     1      -1.262  10.640  20.631  0.00  0.00    +0.000 N 
ATOM     23  H   UNL     1      -1.826  10.001  21.186  0.00  0.00    +0.000 HD
BRANCH  22  24
ATOM     24  S   UNL     1      -0.819  11.951  21.607  0.00  0.00    +0.000 S 
ATOM     25  O   UNL     1      -0.278  11.442  22.852  0.00  0.00    +0.000 OA
ATOM     26  O   UNL     1      -1.938  12.872  21.611  0.00  0.00    +0.000 OA
BRANCH  24  31
ATOM     27  C   UNL     1       2.032  15.197  18.653  0.00  0.00    +0.000 C 
ATOM     28  N   UNL     1       1.647  14.202  19.620  0.00  0.00    +0.000 N 
ATOM     29  C   UNL     1       2.484  13.518  20.452  0.00  0.00    +0.000 A 
ATOM     30  N   UNL     1       1.820  12.693  21.233  0.00  0.00    +0.000 NA
ATOM     31  C   UNL     1       0.489  12.834  20.861  0.00  0.00    +0.000 A 
ATOM     32  C   UNL     1       0.371  13.781  19.862  0.00  0.00    +0.000 A 
ENDBRANCH  24  31
ENDBRANCH  22  24
ENDBRANCH   1  22
TORSDOF 4
ENDMDL
