MODEL 1
REMARK VINA RESULT:      -8.2      0.000      0.000
REMARK  Name = 
REMARK  8 active torsions:
REMARK  status: ('A' for Active; 'I' for Inactive)
REMARK    1  A    between atoms: C_1  and  C_2
REMARK    2  A    between atoms: C_2  and  C_3
REMARK    3  A    between atoms: C_2  and  C_4
REMARK    4  A    between atoms: C_2  and  C_5
REMARK    5  A    between atoms: C_9  and  C_10
REMARK    6  A    between atoms: C_10  and  N_11
REMARK    7  A    between atoms: N_11  and  C_12
REMARK    8  A    between atoms: C_15  and  C_16
REMARK                            x       y       z     vdW  Elec       q    Type
REMARK                         _______ _______ _______ _____ _____    ______ ____
ROOT
ATOM      1  N   UNL     1       4.714   2.817  17.146  0.00  0.00    +0.000 NA
ATOM      2  H   UNL     1       5.238   3.280  17.924  0.00  0.00    +0.000 HD
ENDROOT
BRANCH   1   3
ATOM      3  C   UNL     1       3.330   2.490  17.617  0.00  0.00    +0.000 C 
ATOM      4  C   UNL     1       3.317   1.955  19.077  0.00  0.00    +0.000 C 
ATOM      5  C   UNL     1       3.581   3.076  20.090  0.00  0.00    +0.000 C 
ATOM      6  C   UNL     1       2.468   4.141  20.036  0.00  0.00    +0.000 C 
ATOM      7  C   UNL     1       2.445   4.743  18.604  0.00  0.00    +0.000 C 
ATOM      8  C   UNL     1       2.304   3.659  17.506  0.00  0.00    +0.000 C 
BRANCH   6   9
ATOM      9  C   UNL     1       1.083   3.625  20.571  0.00  0.00    +0.000 C 
ATOM     10  F   UNL     1       1.203   3.012  21.808  0.00  0.00    +0.000 F 
ATOM     11  F   UNL     1       0.227   4.700  20.734  0.00  0.00    +0.000 F 
ATOM     12  F   UNL     1       0.468   2.736  19.711  0.00  0.00    +0.000 F 
ENDBRANCH   6   9
ENDBRANCH   1   3
BRANCH   1  13
ATOM     13  C   UNL     1       4.592   3.816  16.048  0.00  0.00    +0.000 C 
BRANCH  13  18
ATOM     14  C   UNL     1       6.568   5.534  16.184  0.00  0.00    +0.000 A 
ATOM     15  N   UNL     1       7.621   5.844  15.399  0.00  0.00    +0.000 NA
ATOM     16  N   UNL     1       7.582   5.082  14.321  0.00  0.00    +0.000 N 
ATOM     17  C   UNL     1       6.527   4.262  14.365  0.00  0.00    +0.000 A 
ATOM     18  C   UNL     1       5.840   4.501  15.542  0.00  0.00    +0.000 A 
ATOM     19  H   UNL     1       8.295   5.125  13.557  0.00  0.00    +0.000 HD
BRANCH  14  21
ATOM     20  C   UNL     1       4.985   7.013  17.451  0.00  0.00    +0.000 C 
ATOM     21  C   UNL     1       6.349   6.291  17.513  0.00  0.00    +0.000 C 
ATOM     22  C   UNL     1       7.463   7.345  17.663  0.00  0.00    +0.000 C 
ATOM     23  C   UNL     1       6.354   5.411  18.775  0.00  0.00    +0.000 C 
ENDBRANCH  14  21
ENDBRANCH  13  18
ENDBRANCH   1  13
TORSDOF 5
ENDMDL
MODEL 2
REMARK VINA RESULT:      -7.9      0.327      1.319
REMARK  Name = 
REMARK  8 active torsions:
REMARK  status: ('A' for Active; 'I' for Inactive)
REMARK    1  A    between atoms: C_1  and  C_2
REMARK    2  A    between atoms: C_2  and  C_3
REMARK    3  A    between atoms: C_2  and  C_4
REMARK    4  A    between atoms: C_2  and  C_5
REMARK    5  A    between atoms: C_9  and  C_10
REMARK    6  A    between atoms: C_10  and  N_11
REMARK    7  A    between atoms: N_11  and  C_12
REMARK    8  A    between atoms: C_15  and  C_16
REMARK                            x       y       z     vdW  Elec       q    Type
REMARK                         _______ _______ _______ _____ _____    ______ ____
ROOT
ATOM      1  N   UNL     1       4.658   2.960  17.096  0.00  0.00    +0.000 NA
ATOM      2  H   UNL     1       5.182   3.446  17.859  0.00  0.00    +0.000 HD
ENDROOT
BRANCH   1   3
ATOM      3  C   UNL     1       3.251   2.718  17.551  0.00  0.00    +0.000 C 
ATOM      4  C   UNL     1       3.189   1.826  18.823  0.00  0.00    +0.000 C 
ATOM      5  C   UNL     1       3.640   2.593  20.071  0.00  0.00    +0.000 C 
ATOM      6  C   UNL     1       2.700   3.780  20.359  0.00  0.00    +0.000 C 
ATOM      7  C   UNL     1       2.736   4.734  19.133  0.00  0.00    +0.000 C 
ATOM      8  C   UNL     1       2.410   4.005  17.804  0.00  0.00    +0.000 C 
BRANCH   6   9
ATOM      9  C   UNL     1       1.264   3.340  20.826  0.00  0.00    +0.000 C 
ATOM     10  F   UNL     1       0.347   4.373  20.711  0.00  0.00    +0.000 F 
ATOM     11  F   UNL     1       0.816   2.311  20.017  0.00  0.00    +0.000 F 
ATOM     12  F   UNL     1       1.234   2.883  22.128  0.00  0.00    +0.000 F 
ENDBRANCH   6   9
ENDBRANCH   1   3
BRANCH   1  13
ATOM     13  C   UNL     1       4.602   3.896  15.940  0.00  0.00    +0.000 C 
BRANCH  13  18
ATOM     14  C   UNL     1       6.590   5.595  16.132  0.00  0.00    +0.000 A 
ATOM     15  N   UNL     1       7.678   5.882  15.388  0.00  0.00    +0.000 NA
ATOM     16  N   UNL     1       7.676   5.104  14.321  0.00  0.00    +0.000 N 
ATOM     17  C   UNL     1       6.610   4.296  14.333  0.00  0.00    +0.000 A 
ATOM     18  C   UNL     1       5.878   4.560  15.476  0.00  0.00    +0.000 A 
ATOM     19  H   UNL     1       8.421   5.127  13.586  0.00  0.00    +0.000 HD
BRANCH  14  21
ATOM     20  C   UNL     1       7.408   7.464  17.594  0.00  0.00    +0.000 C 
ATOM     21  C   UNL     1       6.324   6.375  17.439  0.00  0.00    +0.000 C 
ATOM     22  C   UNL     1       6.431   5.395  18.622  0.00  0.00    +0.000 C 
ATOM     23  C   UNL     1       4.951   7.068  17.519  0.00  0.00    +0.000 C 
ENDBRANCH  14  21
ENDBRANCH  13  18
ENDBRANCH   1  13
TORSDOF 5
ENDMDL
MODEL 3
REMARK VINA RESULT:      -7.8      0.960      1.553
REMARK  Name = 
REMARK  8 active torsions:
REMARK  status: ('A' for Active; 'I' for Inactive)
REMARK    1  A    between atoms: C_1  and  C_2
REMARK    2  A    between atoms: C_2  and  C_3
REMARK    3  A    between atoms: C_2  and  C_4
REMARK    4  A    between atoms: C_2  and  C_5
REMARK    5  A    between atoms: C_9  and  C_10
REMARK    6  A    between atoms: C_10  and  N_11
REMARK    7  A    between atoms: N_11  and  C_12
REMARK    8  A    between atoms: C_15  and  C_16
REMARK                            x       y       z     vdW  Elec       q    Type
REMARK                         _______ _______ _______ _____ _____    ______ ____
ROOT
ATOM      1  N   UNL     1       3.753   3.842  16.670  0.00  0.00    +0.000 NA
ATOM      2  H   UNL     1       3.267   2.922  16.563  0.00  0.00    +0.000 HD
ENDROOT
BRANCH   1   3
ATOM      3  C   UNL     1       3.330   4.468  17.964  0.00  0.00    +0.000 C 
ATOM      4  C   UNL     1       1.790   4.410  18.171  0.00  0.00    +0.000 C 
ATOM      5  C   UNL     1       1.319   2.990  18.507  0.00  0.00    +0.000 C 
ATOM      6  C   UNL     1       1.927   2.510  19.839  0.00  0.00    +0.000 C 
ATOM      7  C   UNL     1       3.474   2.513  19.694  0.00  0.00    +0.000 C 
ATOM      8  C   UNL     1       4.024   3.887  19.233  0.00  0.00    +0.000 C 
BRANCH   6   9
ATOM      9  C   UNL     1       1.369   3.276  21.093  0.00  0.00    +0.000 C 
ATOM     10  F   UNL     1       2.349   4.035  21.712  0.00  0.00    +0.000 F 
ATOM     11  F   UNL     1       0.376   4.151  20.690  0.00  0.00    +0.000 F 
ATOM     12  F   UNL     1       0.817   2.436  22.040  0.00  0.00    +0.000 F 
ENDBRANCH   6   9
ENDBRANCH   1   3
BRANCH   1  13
ATOM     13  C   UNL     1       5.211   3.557  16.763  0.00  0.00    +0.000 C 
BRANCH  13  18
ATOM     14  C   UNL     1       6.809   5.588  16.318  0.00  0.00    +0.000 A 
ATOM     15  N   UNL     1       7.592   5.981  15.291  0.00  0.00    +0.000 NA
ATOM     16  N   UNL     1       7.470   5.108  14.309  0.00  0.00    +0.000 N 
ATOM     17  C   UNL     1       6.623   4.132  14.653  0.00  0.00    +0.000 A 
ATOM     18  C   UNL     1       6.170   4.382  15.936  0.00  0.00    +0.000 A 
ATOM     19  H   UNL     1       7.982   5.184  13.400  0.00  0.00    +0.000 HD
BRANCH  14  21
ATOM     20  C   UNL     1       5.315   7.027  17.731  0.00  0.00    +0.000 C 
ATOM     21  C   UNL     1       6.738   6.442  17.603  0.00  0.00    +0.000 C 
ATOM     22  C   UNL     1       7.743   7.602  17.474  0.00  0.00    +0.000 C 
ATOM     23  C   UNL     1       7.051   5.686  18.908  0.00  0.00    +0.000 C 
ENDBRANCH  14  21
ENDBRANCH  13  18
ENDBRANCH   1  13
TORSDOF 5
ENDMDL
MODEL 4
REMARK VINA RESULT:      -7.7      0.819      1.663
REMARK  Name = 
REMARK  8 active torsions:
REMARK  status: ('A' for Active; 'I' for Inactive)
REMARK    1  A    between atoms: C_1  and  C_2
REMARK    2  A    between atoms: C_2  and  C_3
REMARK    3  A    between atoms: C_2  and  C_4
REMARK    4  A    between atoms: C_2  and  C_5
REMARK    5  A    between atoms: C_9  and  C_10
REMARK    6  A    between atoms: C_10  and  N_11
REMARK    7  A    between atoms: N_11  and  C_12
REMARK    8  A    between atoms: C_15  and  C_16
REMARK                            x       y       z     vdW  Elec       q    Type
REMARK                         _______ _______ _______ _____ _____    ______ ____
ROOT
ATOM      1  N   UNL     1       4.658   2.982  17.151  0.00  0.00    +0.000 NA
ATOM      2  H   UNL     1       5.646   2.642  17.138  0.00  0.00    +0.000 HD
ENDROOT
BRANCH   1   3
ATOM      3  C   UNL     1       4.353   3.537  18.509  0.00  0.00    +0.000 C 
ATOM      4  C   UNL     1       3.112   4.473  18.497  0.00  0.00    +0.000 C 
ATOM      5  C   UNL     1       1.809   3.679  18.342  0.00  0.00    +0.000 C 
ATOM      6  C   UNL     1       1.595   2.733  19.540  0.00  0.00    +0.000 C 
ATOM      7  C   UNL     1       2.791   1.744  19.594  0.00  0.00    +0.000 C 
ATOM      8  C   UNL     1       4.160   2.469  19.628  0.00  0.00    +0.000 C 
BRANCH   6   9
ATOM      9  C   UNL     1       1.285   3.488  20.884  0.00  0.00    +0.000 C 
ATOM     10  F   UNL     1       0.381   4.521  20.698  0.00  0.00    +0.000 F 
ATOM     11  F   UNL     1       0.709   2.605  21.781  0.00  0.00    +0.000 F 
ATOM     12  F   UNL     1       2.413   4.008  21.486  0.00  0.00    +0.000 F 
ENDBRANCH   6   9
ENDBRANCH   1   3
BRANCH   1  13
ATOM     13  C   UNL     1       4.569   4.104  16.176  0.00  0.00    +0.000 C 
BRANCH  13  18
ATOM     14  C   UNL     1       6.685   5.654  16.169  0.00  0.00    +0.000 A 
ATOM     15  N   UNL     1       7.723   5.851  15.329  0.00  0.00    +0.000 NA
ATOM     16  N   UNL     1       7.572   5.064  14.280  0.00  0.00    +0.000 N 
ATOM     17  C   UNL     1       6.455   4.337  14.397  0.00  0.00    +0.000 A 
ATOM     18  C   UNL     1       5.846   4.667  15.594  0.00  0.00    +0.000 A 
ATOM     19  H   UNL     1       8.250   5.023  13.484  0.00  0.00    +0.000 HD
BRANCH  14  21
ATOM     20  C   UNL     1       5.174   7.076  17.581  0.00  0.00    +0.000 C 
ATOM     21  C   UNL     1       6.590   6.466  17.479  0.00  0.00    +0.000 C 
ATOM     22  C   UNL     1       7.621   7.609  17.420  0.00  0.00    +0.000 C 
ATOM     23  C   UNL     1       6.845   5.662  18.767  0.00  0.00    +0.000 C 
ENDBRANCH  14  21
ENDBRANCH  13  18
ENDBRANCH   1  13
TORSDOF 5
ENDMDL
MODEL 5
REMARK VINA RESULT:      -7.6      0.959      1.982
REMARK  Name = 
REMARK  8 active torsions:
REMARK  status: ('A' for Active; 'I' for Inactive)
REMARK    1  A    between atoms: C_1  and  C_2
REMARK    2  A    between atoms: C_2  and  C_3
REMARK    3  A    between atoms: C_2  and  C_4
REMARK    4  A    between atoms: C_2  and  C_5
REMARK    5  A    between atoms: C_9  and  C_10
REMARK    6  A    between atoms: C_10  and  N_11
REMARK    7  A    between atoms: N_11  and  C_12
REMARK    8  A    between atoms: C_15  and  C_16
REMARK                            x       y       z     vdW  Elec       q    Type
REMARK                         _______ _______ _______ _____ _____    ______ ____
ROOT
ATOM      1  N   UNL     1       3.870   3.606  16.801  0.00  0.00    +0.000 NA
ATOM      2  H   UNL     1       3.479   2.637  16.784  0.00  0.00    +0.000 HD
ENDROOT
BRANCH   1   3
ATOM      3  C   UNL     1       3.386   4.305  18.035  0.00  0.00    +0.000 C 
ATOM      4  C   UNL     1       1.844   4.199  18.204  0.00  0.00    +0.000 C 
ATOM      5  C   UNL     1       1.419   2.789  18.630  0.00  0.00    +0.000 C 
ATOM      6  C   UNL     1       2.006   2.430  20.009  0.00  0.00    +0.000 C 
ATOM      7  C   UNL     1       3.555   2.486  19.905  0.00  0.00    +0.000 C 
ATOM      8  C   UNL     1       4.065   3.845  19.360  0.00  0.00    +0.000 C 
BRANCH   6   9
ATOM      9  C   UNL     1       1.382   3.261  21.189  0.00  0.00    +0.000 C 
ATOM     10  F   UNL     1       0.390   4.121  20.746  0.00  0.00    +0.000 F 
ATOM     11  F   UNL     1       0.791   2.396  22.094  0.00  0.00    +0.000 F 
ATOM     12  F   UNL     1       2.316   4.005  21.881  0.00  0.00    +0.000 F 
ENDBRANCH   6   9
ENDBRANCH   1   3
BRANCH   1  13
ATOM     13  C   UNL     1       5.350   3.479  16.908  0.00  0.00    +0.000 C 
BRANCH  13  18
ATOM     14  C   UNL     1       6.821   5.556  16.276  0.00  0.00    +0.000 A 
ATOM     15  N   UNL     1       7.528   5.932  15.190  0.00  0.00    +0.000 NA
ATOM     16  N   UNL     1       7.395   5.005  14.259  0.00  0.00    +0.000 N 
ATOM     17  C   UNL     1       6.616   4.010  14.697  0.00  0.00    +0.000 A 
ATOM     18  C   UNL     1       6.222   4.303  15.989  0.00  0.00    +0.000 A 
ATOM     19  H   UNL     1       7.853   5.058  13.319  0.00  0.00    +0.000 HD
BRANCH  14  21
ATOM     20  C   UNL     1       7.160   5.632  18.762  0.00  0.00    +0.000 C 
ATOM     21  C   UNL     1       6.778   6.469  17.521  0.00  0.00    +0.000 C 
ATOM     22  C   UNL     1       5.338   6.988  17.696  0.00  0.00    +0.000 C 
ATOM     23  C   UNL     1       7.718   7.687  17.471  0.00  0.00    +0.000 C 
ENDBRANCH  14  21
ENDBRANCH  13  18
ENDBRANCH   1  13
TORSDOF 5
ENDMDL
MODEL 6
REMARK VINA RESULT:      -7.4      0.914      1.584
REMARK  Name = 
REMARK  8 active torsions:
REMARK  status: ('A' for Active; 'I' for Inactive)
REMARK    1  A    between atoms: C_1  and  C_2
REMARK    2  A    between atoms: C_2  and  C_3
REMARK    3  A    between atoms: C_2  and  C_4
REMARK    4  A    between atoms: C_2  and  C_5
REMARK    5  A    between atoms: C_9  and  C_10
REMARK    6  A    between atoms: C_10  and  N_11
REMARK    7  A    between atoms: N_11  and  C_12
REMARK    8  A    between atoms: C_15  and  C_16
REMARK                            x       y       z     vdW  Elec       q    Type
REMARK                         _______ _______ _______ _____ _____    ______ ____
ROOT
ATOM      1  N   UNL     1       3.789   4.088  16.620  0.00  0.00    +0.000 NA
ATOM      2  H   UNL     1       3.311   4.186  15.696  0.00  0.00    +0.000 HD
ENDROOT
BRANCH   1   3
ATOM      3  C   UNL     1       3.036   3.096  17.454  0.00  0.00    +0.000 C 
ATOM      4  C   UNL     1       3.896   2.537  18.622  0.00  0.00    +0.000 C 
ATOM      5  C   UNL     1       4.086   3.580  19.730  0.00  0.00    +0.000 C 
ATOM      6  C   UNL     1       2.735   3.962  20.365  0.00  0.00    +0.000 C 
ATOM      7  C   UNL     1       1.830   4.560  19.253  0.00  0.00    +0.000 C 
ATOM      8  C   UNL     1       1.685   3.614  18.033  0.00  0.00    +0.000 C 
BRANCH   6   9
ATOM      9  C   UNL     1       2.088   2.800  21.205  0.00  0.00    +0.000 C 
ATOM     10  F   UNL     1       1.143   3.276  22.100  0.00  0.00    +0.000 F 
ATOM     11  F   UNL     1       1.433   1.929  20.352  0.00  0.00    +0.000 F 
ATOM     12  F   UNL     1       3.016   2.063  21.914  0.00  0.00    +0.000 F 
ENDBRANCH   6   9
ENDBRANCH   1   3
BRANCH   1  13
ATOM     13  C   UNL     1       5.140   3.521  16.355  0.00  0.00    +0.000 C 
BRANCH  13  18
ATOM     14  C   UNL     1       6.831   5.511  16.130  0.00  0.00    +0.000 A 
ATOM     15  N   UNL     1       7.664   5.954  15.164  0.00  0.00    +0.000 NA
ATOM     16  N   UNL     1       7.539   5.171  14.108  0.00  0.00    +0.000 N 
ATOM     17  C   UNL     1       6.643   4.207  14.344  0.00  0.00    +0.000 A 
ATOM     18  C   UNL     1       6.158   4.369  15.629  0.00  0.00    +0.000 A 
ATOM     19  H   UNL     1       8.084   5.300  13.224  0.00  0.00    +0.000 HD
BRANCH  14  21
ATOM     20  C   UNL     1       7.209   5.300  18.602  0.00  0.00    +0.000 C 
ATOM     21  C   UNL     1       6.752   6.258  17.479  0.00  0.00    +0.000 C 
ATOM     22  C   UNL     1       5.285   6.655  17.732  0.00  0.00    +0.000 C 
ATOM     23  C   UNL     1       7.612   7.531  17.574  0.00  0.00    +0.000 C 
ENDBRANCH  14  21
ENDBRANCH  13  18
ENDBRANCH   1  13
TORSDOF 5
ENDMDL
MODEL 7
REMARK VINA RESULT:      -7.3      0.835      1.730
REMARK  Name = 
REMARK  8 active torsions:
REMARK  status: ('A' for Active; 'I' for Inactive)
REMARK    1  A    between atoms: C_1  and  C_2
REMARK    2  A    between atoms: C_2  and  C_3
REMARK    3  A    between atoms: C_2  and  C_4
REMARK    4  A    between atoms: C_2  and  C_5
REMARK    5  A    between atoms: C_9  and  C_10
REMARK    6  A    between atoms: C_10  and  N_11
REMARK    7  A    between atoms: N_11  and  C_12
REMARK    8  A    between atoms: C_15  and  C_16
REMARK                            x       y       z     vdW  Elec       q    Type
REMARK                         _______ _______ _______ _____ _____    ______ ____
ROOT
ATOM      1  N   UNL     1       4.237   3.003  16.805  0.00  0.00    +0.000 NA
ATOM      2  H   UNL     1       5.136   2.487  16.670  0.00  0.00    +0.000 HD
ENDROOT
BRANCH   1   3
ATOM      3  C   UNL     1       4.137   3.443  18.234  0.00  0.00    +0.000 C 
ATOM      4  C   UNL     1       3.011   4.492  18.450  0.00  0.00    +0.000 C 
ATOM      5  C   UNL     1       1.621   3.849  18.373  0.00  0.00    +0.000 C 
ATOM      6  C   UNL     1       1.431   2.811  19.496  0.00  0.00    +0.000 C 
ATOM      7  C   UNL     1       2.512   1.709  19.322  0.00  0.00    +0.000 C 
ATOM      8  C   UNL     1       3.948   2.290  19.265  0.00  0.00    +0.000 C 
BRANCH   6   9
ATOM      9  C   UNL     1       1.347   3.450  20.930  0.00  0.00    +0.000 C 
ATOM     10  F   UNL     1       2.604   3.667  21.472  0.00  0.00    +0.000 F 
ATOM     11  F   UNL     1       0.725   4.683  20.845  0.00  0.00    +0.000 F 
ATOM     12  F   UNL     1       0.623   2.684  21.822  0.00  0.00    +0.000 F 
ENDBRANCH   6   9
ENDBRANCH   1   3
BRANCH   1  13
ATOM     13  C   UNL     1       4.306   4.228  15.961  0.00  0.00    +0.000 C 
BRANCH  13  18
ATOM     14  C   UNL     1       6.505   5.648  16.109  0.00  0.00    +0.000 A 
ATOM     15  N   UNL     1       7.616   5.771  15.352  0.00  0.00    +0.000 NA
ATOM     16  N   UNL     1       7.501   4.981  14.301  0.00  0.00    +0.000 N 
ATOM     17  C   UNL     1       6.337   4.324  14.335  0.00  0.00    +0.000 A 
ATOM     18  C   UNL     1       5.656   4.706  15.477  0.00  0.00    +0.000 A 
ATOM     19  H   UNL     1       8.236   4.890  13.562  0.00  0.00    +0.000 HD
BRANCH  14  21
ATOM     20  C   UNL     1       7.453   7.570  17.416  0.00  0.00    +0.000 C 
ATOM     21  C   UNL     1       6.357   6.481  17.401  0.00  0.00    +0.000 C 
ATOM     22  C   UNL     1       6.567   5.548  18.609  0.00  0.00    +0.000 C 
ATOM     23  C   UNL     1       4.998   7.183  17.574  0.00  0.00    +0.000 C 
ENDBRANCH  14  21
ENDBRANCH  13  18
ENDBRANCH   1  13
TORSDOF 5
ENDMDL
MODEL 8
REMARK VINA RESULT:      -7.3      0.971      1.089
REMARK  Name = 
REMARK  8 active torsions:
REMARK  status: ('A' for Active; 'I' for Inactive)
REMARK    1  A    between atoms: C_1  and  C_2
REMARK    2  A    between atoms: C_2  and  C_3
REMARK    3  A    between atoms: C_2  and  C_4
REMARK    4  A    between atoms: C_2  and  C_5
REMARK    5  A    between atoms: C_9  and  C_10
REMARK    6  A    between atoms: C_10  and  N_11
REMARK    7  A    between atoms: N_11  and  C_12
REMARK    8  A    between atoms: C_15  and  C_16
REMARK                            x       y       z     vdW  Elec       q    Type
REMARK                         _______ _______ _______ _____ _____    ______ ____
ROOT
ATOM      1  N   UNL     1       4.202   3.789  16.652  0.00  0.00    +0.000 NA
ATOM      2  H   UNL     1       3.590   3.664  15.814  0.00  0.00    +0.000 HD
ENDROOT
BRANCH   1   3
ATOM      3  C   UNL     1       3.750   2.850  17.729  0.00  0.00    +0.000 C 
ATOM      4  C   UNL     1       4.310   3.244  19.125  0.00  0.00    +0.000 C 
ATOM      5  C   UNL     1       3.610   4.490  19.681  0.00  0.00    +0.000 C 
ATOM      6  C   UNL     1       2.108   4.226  19.904  0.00  0.00    +0.000 C 
ATOM      7  C   UNL     1       1.475   3.854  18.535  0.00  0.00    +0.000 C 
ATOM      8  C   UNL     1       2.206   2.675  17.843  0.00  0.00    +0.000 C 
BRANCH   6   9
ATOM      9  C   UNL     1       1.818   3.217  21.074  0.00  0.00    +0.000 C 
ATOM     10  F   UNL     1       2.221   3.721  22.301  0.00  0.00    +0.000 F 
ATOM     11  F   UNL     1       0.455   2.994  21.158  0.00  0.00    +0.000 F 
ATOM     12  F   UNL     1       2.425   1.990  20.895  0.00  0.00    +0.000 F 
ENDBRANCH   6   9
ENDBRANCH   1   3
BRANCH   1  13
ATOM     13  C   UNL     1       5.578   3.384  16.251  0.00  0.00    +0.000 C 
BRANCH  13  18
ATOM     14  C   UNL     1       6.975   5.596  16.068  0.00  0.00    +0.000 A 
ATOM     15  N   UNL     1       7.720   6.179  15.105  0.00  0.00    +0.000 NA
ATOM     16  N   UNL     1       7.683   5.420  14.026  0.00  0.00    +0.000 N 
ATOM     17  C   UNL     1       6.933   4.334  14.242  0.00  0.00    +0.000 A 
ATOM     18  C   UNL     1       6.456   4.387  15.539  0.00  0.00    +0.000 A 
ATOM     19  H   UNL     1       8.188   5.651  13.139  0.00  0.00    +0.000 HD
BRANCH  14  21
ATOM     20  C   UNL     1       5.356   6.747  17.602  0.00  0.00    +0.000 C 
ATOM     21  C   UNL     1       6.820   6.281  17.443  0.00  0.00    +0.000 C 
ATOM     22  C   UNL     1       7.741   7.515  17.480  0.00  0.00    +0.000 C 
ATOM     23  C   UNL     1       7.162   5.397  18.657  0.00  0.00    +0.000 C 
ENDBRANCH  14  21
ENDBRANCH  13  18
ENDBRANCH   1  13
TORSDOF 5
ENDMDL
MODEL 9
REMARK VINA RESULT:      -7.1      0.872      1.640
REMARK  Name = 
REMARK  8 active torsions:
REMARK  status: ('A' for Active; 'I' for Inactive)
REMARK    1  A    between atoms: C_1  and  C_2
REMARK    2  A    between atoms: C_2  and  C_3
REMARK    3  A    between atoms: C_2  and  C_4
REMARK    4  A    between atoms: C_2  and  C_5
REMARK    5  A    between atoms: C_9  and  C_10
REMARK    6  A    between atoms: C_10  and  N_11
REMARK    7  A    between atoms: N_11  and  C_12
REMARK    8  A    between atoms: C_15  and  C_16
REMARK                            x       y       z     vdW  Elec       q    Type
REMARK                         _______ _______ _______ _____ _____    ______ ____
ROOT
ATOM      1  N   UNL     1       4.630   2.698  17.094  0.00  0.00    +0.000 NA
ATOM      2  H   UNL     1       5.618   2.365  17.026  0.00  0.00    +0.000 HD
ENDROOT
BRANCH   1   3
ATOM      3  C   UNL     1       4.234   2.755  18.538  0.00  0.00    +0.000 C 
ATOM      4  C   UNL     1       3.870   4.197  18.992  0.00  0.00    +0.000 C 
ATOM      5  C   UNL     1       2.515   4.639  18.427  0.00  0.00    +0.000 C 
ATOM      6  C   UNL     1       1.378   3.745  18.959  0.00  0.00    +0.000 C 
ATOM      7  C   UNL     1       1.663   2.284  18.514  0.00  0.00    +0.000 C 
ATOM      8  C   UNL     1       3.072   1.798  18.940  0.00  0.00    +0.000 C 
BRANCH   6   9
ATOM      9  C   UNL     1       1.099   3.936  20.495  0.00  0.00    +0.000 C 
ATOM     10  F   UNL     1       2.199   4.457  21.157  0.00  0.00    +0.000 F 
ATOM     11  F   UNL     1       0.063   4.839  20.662  0.00  0.00    +0.000 F 
ATOM     12  F   UNL     1       0.731   2.766  21.128  0.00  0.00    +0.000 F 
ENDBRANCH   6   9
ENDBRANCH   1   3
BRANCH   1  13
ATOM     13  C   UNL     1       4.601   4.089  16.564  0.00  0.00    +0.000 C 
BRANCH  13  18
ATOM     14  C   UNL     1       6.680   5.657  16.256  0.00  0.00    +0.000 A 
ATOM     15  N   UNL     1       7.641   5.797  15.319  0.00  0.00    +0.000 NA
ATOM     16  N   UNL     1       7.418   4.927  14.352  0.00  0.00    +0.000 N 
ATOM     17  C   UNL     1       6.328   4.199  14.620  0.00  0.00    +0.000 A 
ATOM     18  C   UNL     1       5.814   4.618  15.833  0.00  0.00    +0.000 A 
ATOM     19  H   UNL     1       8.028   4.830  13.508  0.00  0.00    +0.000 HD
BRANCH  14  21
ATOM     20  C   UNL     1       7.007   5.713  18.744  0.00  0.00    +0.000 C 
ATOM     21  C   UNL     1       6.680   6.571  17.501  0.00  0.00    +0.000 C 
ATOM     22  C   UNL     1       5.269   7.168  17.668  0.00  0.00    +0.000 C 
ATOM     23  C   UNL     1       7.686   7.735  17.459  0.00  0.00    +0.000 C 
ENDBRANCH  14  21
ENDBRANCH  13  18
ENDBRANCH   1  13
TORSDOF 5
ENDMDL
