MODEL 1
REMARK VINA RESULT:      -6.9      0.000      0.000
REMARK  Name = 
REMARK  7 active torsions:
REMARK  status: ('A' for Active; 'I' for Inactive)
REMARK    1  A    between atoms: C_1  and  C_2
REMARK    2  A    between atoms: C_2  and  C_15
REMARK    3  A    between atoms: N_3  and  N_4
REMARK    4  A    between atoms: N_4  and  C_5
REMARK    5  A    between atoms: C_5  and  N_7
REMARK    6  A    between atoms: N_7  and  C_8
REMARK    7  A    between atoms: N_7  and  C_9
REMARK                            x       y       z     vdW  Elec       q    Type
REMARK                         _______ _______ _______ _____ _____    ______ ____
ROOT
ATOM      1  N   UNL     1       5.051   3.264  17.395  0.00  0.00    +0.000 N 
ATOM      2  H   UNL     1       5.601   2.604  17.947  0.00  0.00    +0.000 HD
ENDROOT
BRANCH   1   5
ATOM      3  C   UNL     1       6.819   4.662  14.513  0.00  0.00    +0.000 C 
ATOM      4  C   UNL     1       6.372   4.483  15.950  0.00  0.00    +0.000 C 
ATOM      5  N   UNL     1       5.508   3.525  16.136  0.00  0.00    +0.000 NA
BRANCH   4   6
ATOM      6  C   UNL     1       6.990   5.389  16.987  0.00  0.00    +0.000 A 
ATOM      7  C   UNL     1       7.125   6.757  16.769  0.00  0.00    +0.000 A 
ATOM      8  C   UNL     1       7.727   7.540  17.751  0.00  0.00    +0.000 A 
ATOM      9  C   UNL     1       8.186   6.939  18.916  0.00  0.00    +0.000 A 
ATOM     10  C   UNL     1       8.016   5.574  19.057  0.00  0.00    +0.000 A 
ATOM     11  N   UNL     1       7.433   4.790  18.126  0.00  0.00    +0.000 NA
ENDBRANCH   4   6
ENDBRANCH   1   5
BRANCH   1  12
ATOM     12  C   UNL     1       3.716   3.473  17.741  0.00  0.00    +0.000 C 
ATOM     13  S   UNL     1       2.479   2.406  17.311  0.00  0.00    +0.000 S 
BRANCH  12  14
ATOM     14  N   UNL     1       3.517   4.654  18.507  0.00  0.00    +0.000 N 
ATOM     15  C   UNL     1       3.252   5.918  17.826  0.00  0.00    +0.000 C 
BRANCH  14  16
ATOM     16  C   UNL     1       3.464   4.592  20.000  0.00  0.00    +0.000 C 
ATOM     17  C   UNL     1       2.164   5.234  20.530  0.00  0.00    +0.000 C 
ATOM     18  C   UNL     1       0.956   4.315  20.380  0.00  0.00    +0.000 C 
ATOM     19  C   UNL     1       1.172   3.011  21.135  0.00  0.00    +0.000 C 
ATOM     20  C   UNL     1       2.440   2.297  20.679  0.00  0.00    +0.000 C 
ATOM     21  C   UNL     1       3.667   3.212  20.669  0.00  0.00    +0.000 C 
ENDBRANCH  14  16
ENDBRANCH  12  14
ENDBRANCH   1  12
TORSDOF 5
ENDMDL
MODEL 2
REMARK VINA RESULT:      -6.8      1.631      3.040
REMARK  Name = 
REMARK  7 active torsions:
REMARK  status: ('A' for Active; 'I' for Inactive)
REMARK    1  A    between atoms: C_1  and  C_2
REMARK    2  A    between atoms: C_2  and  C_15
REMARK    3  A    between atoms: N_3  and  N_4
REMARK    4  A    between atoms: N_4  and  C_5
REMARK    5  A    between atoms: C_5  and  N_7
REMARK    6  A    between atoms: N_7  and  C_8
REMARK    7  A    between atoms: N_7  and  C_9
REMARK                            x       y       z     vdW  Elec       q    Type
REMARK                         _______ _______ _______ _____ _____    ______ ____
ROOT
ATOM      1  N   UNL     1       5.773   4.127  19.386  0.00  0.00    +0.000 N 
ATOM      2  H   UNL     1       6.131   3.203  19.138  0.00  0.00    +0.000 HD
ENDROOT
BRANCH   1   5
ATOM      3  C   UNL     1       8.148   6.837  18.751  0.00  0.00    +0.000 C 
ATOM      4  C   UNL     1       7.135   5.746  18.467  0.00  0.00    +0.000 C 
ATOM      5  N   UNL     1       6.702   5.116  19.524  0.00  0.00    +0.000 NA
BRANCH   4   6
ATOM      6  C   UNL     1       6.721   5.539  17.031  0.00  0.00    +0.000 A 
ATOM      7  C   UNL     1       5.755   6.343  16.431  0.00  0.00    +0.000 A 
ATOM      8  C   UNL     1       5.393   6.089  15.110  0.00  0.00    +0.000 A 
ATOM      9  C   UNL     1       5.995   5.040  14.428  0.00  0.00    +0.000 A 
ATOM     10  C   UNL     1       6.945   4.287  15.094  0.00  0.00    +0.000 A 
ATOM     11  N   UNL     1       7.320   4.511  16.371  0.00  0.00    +0.000 NA
ENDBRANCH   4   6
ENDBRANCH   1   5
BRANCH   1  12
ATOM     12  C   UNL     1       4.435   4.417  19.117  0.00  0.00    +0.000 C 
ATOM     13  S   UNL     1       3.717   5.890  19.527  0.00  0.00    +0.000 S 
BRANCH  12  14
ATOM     14  N   UNL     1       3.759   3.360  18.450  0.00  0.00    +0.000 N 
ATOM     15  C   UNL     1       3.698   3.351  16.991  0.00  0.00    +0.000 C 
BRANCH  14  16
ATOM     16  C   UNL     1       3.208   2.204  19.221  0.00  0.00    +0.000 C 
ATOM     17  C   UNL     1       3.463   2.381  20.733  0.00  0.00    +0.000 C 
ATOM     18  C   UNL     1       2.490   3.363  21.378  0.00  0.00    +0.000 C 
ATOM     19  C   UNL     1       1.052   2.894  21.200  0.00  0.00    +0.000 C 
ATOM     20  C   UNL     1       0.703   2.690  19.730  0.00  0.00    +0.000 C 
ATOM     21  C   UNL     1       1.726   1.826  18.990  0.00  0.00    +0.000 C 
ENDBRANCH  14  16
ENDBRANCH  12  14
ENDBRANCH   1  12
TORSDOF 5
ENDMDL
MODEL 3
REMARK VINA RESULT:      -6.7      1.951      3.266
REMARK  Name = 
REMARK  7 active torsions:
REMARK  status: ('A' for Active; 'I' for Inactive)
REMARK    1  A    between atoms: C_1  and  C_2
REMARK    2  A    between atoms: C_2  and  C_15
REMARK    3  A    between atoms: N_3  and  N_4
REMARK    4  A    between atoms: N_4  and  C_5
REMARK    5  A    between atoms: C_5  and  N_7
REMARK    6  A    between atoms: N_7  and  C_8
REMARK    7  A    between atoms: N_7  and  C_9
REMARK                            x       y       z     vdW  Elec       q    Type
REMARK                         _______ _______ _______ _____ _____    ______ ____
ROOT
ATOM      1  N   UNL     1       4.651   6.578  17.307  0.00  0.00    +0.000 N 
ATOM      2  H   UNL     1       4.821   7.242  16.549  0.00  0.00    +0.000 HD
ENDROOT
BRANCH   1   5
ATOM      3  C   UNL     1       7.796   4.880  18.088  0.00  0.00    +0.000 C 
ATOM      4  C   UNL     1       6.599   5.344  17.282  0.00  0.00    +0.000 C 
ATOM      5  N   UNL     1       5.756   6.090  17.940  0.00  0.00    +0.000 NA
BRANCH   4   6
ATOM      6  C   UNL     1       6.537   4.932  15.832  0.00  0.00    +0.000 A 
ATOM      7  C   UNL     1       5.560   4.055  15.367  0.00  0.00    +0.000 A 
ATOM      8  C   UNL     1       5.567   3.689  14.024  0.00  0.00    +0.000 A 
ATOM      9  C   UNL     1       6.548   4.198  13.183  0.00  0.00    +0.000 A 
ATOM     10  C   UNL     1       7.484   5.064  13.721  0.00  0.00    +0.000 A 
ATOM     11  N   UNL     1       7.501   5.440  15.017  0.00  0.00    +0.000 NA
ENDBRANCH   4   6
ENDBRANCH   1   5
BRANCH   1  12
ATOM     12  C   UNL     1       3.399   6.577  17.923  0.00  0.00    +0.000 C 
ATOM     13  S   UNL     1       2.464   7.972  18.102  0.00  0.00    +0.000 S 
BRANCH  12  14
ATOM     14  N   UNL     1       2.993   5.286  18.357  0.00  0.00    +0.000 N 
ATOM     15  C   UNL     1       2.432   4.344  17.392  0.00  0.00    +0.000 C 
BRANCH  14  16
ATOM     16  C   UNL     1       3.239   4.845  19.765  0.00  0.00    +0.000 C 
ATOM     17  C   UNL     1       2.018   5.154  20.657  0.00  0.00    +0.000 C 
ATOM     18  C   UNL     1       0.886   4.148  20.467  0.00  0.00    +0.000 C 
ATOM     19  C   UNL     1       1.358   2.738  20.794  0.00  0.00    +0.000 C 
ATOM     20  C   UNL     1       2.568   2.338  19.956  0.00  0.00    +0.000 C 
ATOM     21  C   UNL     1       3.686   3.382  19.992  0.00  0.00    +0.000 C 
ENDBRANCH  14  16
ENDBRANCH  12  14
ENDBRANCH   1  12
TORSDOF 5
ENDMDL
MODEL 4
REMARK VINA RESULT:      -6.7      0.741      1.131
REMARK  Name = 
REMARK  7 active torsions:
REMARK  status: ('A' for Active; 'I' for Inactive)
REMARK    1  A    between atoms: C_1  and  C_2
REMARK    2  A    between atoms: C_2  and  C_15
REMARK    3  A    between atoms: N_3  and  N_4
REMARK    4  A    between atoms: N_4  and  C_5
REMARK    5  A    between atoms: C_5  and  N_7
REMARK    6  A    between atoms: N_7  and  C_8
REMARK    7  A    between atoms: N_7  and  C_9
REMARK                            x       y       z     vdW  Elec       q    Type
REMARK                         _______ _______ _______ _____ _____    ______ ____
ROOT
ATOM      1  N   UNL     1       4.980   3.420  17.227  0.00  0.00    +0.000 N 
ATOM      2  H   UNL     1       5.417   2.659  17.750  0.00  0.00    +0.000 HD
ENDROOT
BRANCH   1   5
ATOM      3  C   UNL     1       6.834   4.709  14.349  0.00  0.00    +0.000 C 
ATOM      4  C   UNL     1       6.363   4.568  15.782  0.00  0.00    +0.000 C 
ATOM      5  N   UNL     1       5.462   3.645  15.971  0.00  0.00    +0.000 NA
BRANCH   4   6
ATOM      6  C   UNL     1       7.000   5.466  16.814  0.00  0.00    +0.000 A 
ATOM      7  C   UNL     1       7.490   4.959  18.015  0.00  0.00    +0.000 A 
ATOM      8  C   UNL     1       8.044   5.839  18.941  0.00  0.00    +0.000 A 
ATOM      9  C   UNL     1       8.087   7.196  18.652  0.00  0.00    +0.000 A 
ATOM     10  C   UNL     1       7.579   7.621  17.438  0.00  0.00    +0.000 A 
ATOM     11  N   UNL     1       7.040   6.794  16.518  0.00  0.00    +0.000 NA
ENDBRANCH   4   6
ENDBRANCH   1   5
BRANCH   1  12
ATOM     12  C   UNL     1       3.701   3.834  17.601  0.00  0.00    +0.000 C 
ATOM     13  S   UNL     1       2.294   3.183  16.933  0.00  0.00    +0.000 S 
BRANCH  12  14
ATOM     14  N   UNL     1       3.713   4.836  18.609  0.00  0.00    +0.000 N 
ATOM     15  C   UNL     1       3.722   6.245  18.225  0.00  0.00    +0.000 C 
BRANCH  14  16
ATOM     16  C   UNL     1       3.602   4.463  20.053  0.00  0.00    +0.000 C 
ATOM     17  C   UNL     1       2.383   5.150  20.705  0.00  0.00    +0.000 C 
ATOM     18  C   UNL     1       1.068   4.460  20.355  0.00  0.00    +0.000 C 
ATOM     19  C   UNL     1       1.083   3.007  20.810  0.00  0.00    +0.000 C 
ATOM     20  C   UNL     1       2.258   2.241  20.213  0.00  0.00    +0.000 C 
ATOM     21  C   UNL     1       3.596   2.958  20.407  0.00  0.00    +0.000 C 
ENDBRANCH  14  16
ENDBRANCH  12  14
ENDBRANCH   1  12
TORSDOF 5
ENDMDL
MODEL 5
REMARK VINA RESULT:      -6.7      2.139      3.702
REMARK  Name = 
REMARK  7 active torsions:
REMARK  status: ('A' for Active; 'I' for Inactive)
REMARK    1  A    between atoms: C_1  and  C_2
REMARK    2  A    between atoms: C_2  and  C_15
REMARK    3  A    between atoms: N_3  and  N_4
REMARK    4  A    between atoms: N_4  and  C_5
REMARK    5  A    between atoms: C_5  and  N_7
REMARK    6  A    between atoms: N_7  and  C_8
REMARK    7  A    between atoms: N_7  and  C_9
REMARK                            x       y       z     vdW  Elec       q    Type
REMARK                         _______ _______ _______ _____ _____    ______ ____
ROOT
ATOM      1  N   UNL     1       4.789   6.554  17.188  0.00  0.00    +0.000 N 
ATOM      2  H   UNL     1       5.004   7.165  16.398  0.00  0.00    +0.000 HD
ENDROOT
BRANCH   1   5
ATOM      3  C   UNL     1       7.829   4.657  17.927  0.00  0.00    +0.000 C 
ATOM      4  C   UNL     1       6.672   5.224  17.129  0.00  0.00    +0.000 C 
ATOM      5  N   UNL     1       5.857   5.977  17.812  0.00  0.00    +0.000 NA
BRANCH   4   6
ATOM      6  C   UNL     1       6.615   4.891  15.658  0.00  0.00    +0.000 A 
ATOM      7  C   UNL     1       5.620   4.067  15.138  0.00  0.00    +0.000 A 
ATOM      8  C   UNL     1       5.632   3.773  13.777  0.00  0.00    +0.000 A 
ATOM      9  C   UNL     1       6.636   4.297  12.975  0.00  0.00    +0.000 A 
ATOM     10  C   UNL     1       7.590   5.106  13.567  0.00  0.00    +0.000 A 
ATOM     11  N   UNL     1       7.602   5.413  14.881  0.00  0.00    +0.000 NA
ENDBRANCH   4   6
ENDBRANCH   1   5
BRANCH   1  12
ATOM     12  C   UNL     1       3.565   6.711  17.837  0.00  0.00    +0.000 C 
ATOM     13  S   UNL     1       2.700   8.162  17.826  0.00  0.00    +0.000 S 
BRANCH  12  14
ATOM     14  N   UNL     1       3.119   5.525  18.481  0.00  0.00    +0.000 N 
ATOM     15  C   UNL     1       2.929   5.519  19.930  0.00  0.00    +0.000 C 
BRANCH  14  16
ATOM     16  C   UNL     1       2.737   4.323  17.679  0.00  0.00    +0.000 C 
ATOM     17  C   UNL     1       3.692   3.145  17.967  0.00  0.00    +0.000 C 
ATOM     18  C   UNL     1       3.379   2.449  19.288  0.00  0.00    +0.000 C 
ATOM     19  C   UNL     1       1.957   1.905  19.288  0.00  0.00    +0.000 C 
ATOM     20  C   UNL     1       0.934   3.001  19.012  0.00  0.00    +0.000 C 
ATOM     21  C   UNL     1       1.272   3.833  17.773  0.00  0.00    +0.000 C 
ENDBRANCH  14  16
ENDBRANCH  12  14
ENDBRANCH   1  12
TORSDOF 5
ENDMDL
MODEL 6
REMARK VINA RESULT:      -6.6      1.696      3.164
REMARK  Name = 
REMARK  7 active torsions:
REMARK  status: ('A' for Active; 'I' for Inactive)
REMARK    1  A    between atoms: C_1  and  C_2
REMARK    2  A    between atoms: C_2  and  C_15
REMARK    3  A    between atoms: N_3  and  N_4
REMARK    4  A    between atoms: N_4  and  C_5
REMARK    5  A    between atoms: C_5  and  N_7
REMARK    6  A    between atoms: N_7  and  C_8
REMARK    7  A    between atoms: N_7  and  C_9
REMARK                            x       y       z     vdW  Elec       q    Type
REMARK                         _______ _______ _______ _____ _____    ______ ____
ROOT
ATOM      1  N   UNL     1       4.656   4.794  19.298  0.00  0.00    +0.000 N 
ATOM      2  H   UNL     1       4.753   3.778  19.269  0.00  0.00    +0.000 HD
ENDROOT
BRANCH   1   5
ATOM      3  C   UNL     1       7.779   6.555  18.569  0.00  0.00    +0.000 C 
ATOM      4  C   UNL     1       6.528   5.733  18.332  0.00  0.00    +0.000 C 
ATOM      5  N   UNL     1       5.814   5.509  19.399  0.00  0.00    +0.000 NA
BRANCH   4   6
ATOM      6  C   UNL     1       6.236   5.306  16.914  0.00  0.00    +0.000 A 
ATOM      7  C   UNL     1       5.654   6.179  15.998  0.00  0.00    +0.000 A 
ATOM      8  C   UNL     1       5.383   5.722  14.711  0.00  0.00    +0.000 A 
ATOM      9  C   UNL     1       5.688   4.410  14.375  0.00  0.00    +0.000 A 
ATOM     10  C   UNL     1       6.263   3.605  15.341  0.00  0.00    +0.000 A 
ATOM     11  N   UNL     1       6.542   4.019  16.595  0.00  0.00    +0.000 NA
ENDBRANCH   4   6
ENDBRANCH   1   5
BRANCH   1  12
ATOM     12  C   UNL     1       3.490   5.367  18.789  0.00  0.00    +0.000 C 
ATOM     13  S   UNL     1       3.223   7.034  18.761  0.00  0.00    +0.000 S 
BRANCH  12  14
ATOM     14  N   UNL     1       2.573   4.406  18.282  0.00  0.00    +0.000 N 
ATOM     15  C   UNL     1       2.896   3.676  17.059  0.00  0.00    +0.000 C 
BRANCH  14  16
ATOM     16  C   UNL     1       1.337   4.057  19.049  0.00  0.00    +0.000 C 
ATOM     17  C   UNL     1       1.117   2.529  19.067  0.00  0.00    +0.000 C 
ATOM     18  C   UNL     1       2.023   1.821  20.070  0.00  0.00    +0.000 C 
ATOM     19  C   UNL     1       1.780   2.344  21.479  0.00  0.00    +0.000 C 
ATOM     20  C   UNL     1       1.976   3.853  21.563  0.00  0.00    +0.000 C 
ATOM     21  C   UNL     1       1.201   4.614  20.485  0.00  0.00    +0.000 C 
ENDBRANCH  14  16
ENDBRANCH  12  14
ENDBRANCH   1  12
TORSDOF 5
ENDMDL
MODEL 7
REMARK VINA RESULT:      -6.5      1.986      3.578
REMARK  Name = 
REMARK  7 active torsions:
REMARK  status: ('A' for Active; 'I' for Inactive)
REMARK    1  A    between atoms: C_1  and  C_2
REMARK    2  A    between atoms: C_2  and  C_15
REMARK    3  A    between atoms: N_3  and  N_4
REMARK    4  A    between atoms: N_4  and  C_5
REMARK    5  A    between atoms: C_5  and  N_7
REMARK    6  A    between atoms: N_7  and  C_8
REMARK    7  A    between atoms: N_7  and  C_9
REMARK                            x       y       z     vdW  Elec       q    Type
REMARK                         _______ _______ _______ _____ _____    ______ ____
ROOT
ATOM      1  N   UNL     1       6.193   4.579  18.894  0.00  0.00    +0.000 N 
ATOM      2  H   UNL     1       6.655   3.792  18.437  0.00  0.00    +0.000 HD
ENDROOT
BRANCH   1   5
ATOM      3  C   UNL     1       7.592   7.640  17.460  0.00  0.00    +0.000 C 
ATOM      4  C   UNL     1       6.960   6.264  17.519  0.00  0.00    +0.000 C 
ATOM      5  N   UNL     1       6.773   5.802  18.723  0.00  0.00    +0.000 NA
BRANCH   4   6
ATOM      6  C   UNL     1       6.592   5.612  16.208  0.00  0.00    +0.000 A 
ATOM      7  C   UNL     1       5.264   5.377  15.862  0.00  0.00    +0.000 A 
ATOM      8  C   UNL     1       4.984   4.748  14.651  0.00  0.00    +0.000 A 
ATOM      9  C   UNL     1       6.032   4.364  13.825  0.00  0.00    +0.000 A 
ATOM     10  C   UNL     1       7.324   4.632  14.240  0.00  0.00    +0.000 A 
ATOM     11  N   UNL     1       7.626   5.243  15.405  0.00  0.00    +0.000 NA
ENDBRANCH   4   6
ENDBRANCH   1   5
BRANCH   1  12
ATOM     12  C   UNL     1       4.845   4.454  19.233  0.00  0.00    +0.000 C 
ATOM     13  S   UNL     1       3.854   5.782  19.557  0.00  0.00    +0.000 S 
BRANCH  12  14
ATOM     14  N   UNL     1       4.399   3.105  19.254  0.00  0.00    +0.000 N 
ATOM     15  C   UNL     1       4.676   2.271  20.421  0.00  0.00    +0.000 C 
BRANCH  14  16
ATOM     16  C   UNL     1       3.553   2.567  18.144  0.00  0.00    +0.000 C 
ATOM     17  C   UNL     1       2.672   1.401  18.640  0.00  0.00    +0.000 C 
ATOM     18  C   UNL     1       1.456   1.882  19.427  0.00  0.00    +0.000 C 
ATOM     19  C   UNL     1       0.586   2.791  18.571  0.00  0.00    +0.000 C 
ATOM     20  C   UNL     1       1.371   3.981  18.031  0.00  0.00    +0.000 C 
ATOM     21  C   UNL     1       2.681   3.571  17.354  0.00  0.00    +0.000 C 
ENDBRANCH  14  16
ENDBRANCH  12  14
ENDBRANCH   1  12
TORSDOF 5
ENDMDL
MODEL 8
REMARK VINA RESULT:      -6.5      1.516      2.276
REMARK  Name = 
REMARK  7 active torsions:
REMARK  status: ('A' for Active; 'I' for Inactive)
REMARK    1  A    between atoms: C_1  and  C_2
REMARK    2  A    between atoms: C_2  and  C_15
REMARK    3  A    between atoms: N_3  and  N_4
REMARK    4  A    between atoms: N_4  and  C_5
REMARK    5  A    between atoms: C_5  and  N_7
REMARK    6  A    between atoms: N_7  and  C_8
REMARK    7  A    between atoms: N_7  and  C_9
REMARK                            x       y       z     vdW  Elec       q    Type
REMARK                         _______ _______ _______ _____ _____    ______ ____
ROOT
ATOM      1  N   UNL     1       4.820   3.319  17.683  0.00  0.00    +0.000 N 
ATOM      2  H   UNL     1       5.496   2.922  18.337  0.00  0.00    +0.000 HD
ENDROOT
BRANCH   1   5
ATOM      3  C   UNL     1       6.546   4.421  14.651  0.00  0.00    +0.000 C 
ATOM      4  C   UNL     1       6.144   4.366  16.111  0.00  0.00    +0.000 C 
ATOM      5  N   UNL     1       5.242   3.468  16.394  0.00  0.00    +0.000 NA
BRANCH   4   6
ATOM      6  C   UNL     1       6.843   5.309  17.060  0.00  0.00    +0.000 A 
ATOM      7  C   UNL     1       7.017   6.655  16.749  0.00  0.00    +0.000 A 
ATOM      8  C   UNL     1       7.693   7.472  17.651  0.00  0.00    +0.000 A 
ATOM      9  C   UNL     1       8.185   6.927  18.830  0.00  0.00    +0.000 A 
ATOM     10  C   UNL     1       7.973   5.580  19.064  0.00  0.00    +0.000 A 
ATOM     11  N   UNL     1       7.319   4.764  18.213  0.00  0.00    +0.000 NA
ENDBRANCH   4   6
ENDBRANCH   1   5
BRANCH   1  12
ATOM     12  C   UNL     1       3.463   3.243  17.999  0.00  0.00    +0.000 C 
ATOM     13  S   UNL     1       2.661   1.777  18.248  0.00  0.00    +0.000 S 
BRANCH  12  14
ATOM     14  N   UNL     1       2.844   4.517  18.111  0.00  0.00    +0.000 N 
ATOM     15  C   UNL     1       1.457   4.684  17.685  0.00  0.00    +0.000 C 
BRANCH  14  16
ATOM     16  C   UNL     1       3.562   5.656  18.762  0.00  0.00    +0.000 C 
ATOM     17  C   UNL     1       3.601   6.885  17.829  0.00  0.00    +0.000 C 
ATOM     18  C   UNL     1       2.276   7.642  17.805  0.00  0.00    +0.000 C 
ATOM     19  C   UNL     1       1.908   8.128  19.200  0.00  0.00    +0.000 C 
ATOM     20  C   UNL     1       1.842   6.979  20.199  0.00  0.00    +0.000 C 
ATOM     21  C   UNL     1       3.089   6.092  20.169  0.00  0.00    +0.000 C 
ENDBRANCH  14  16
ENDBRANCH  12  14
ENDBRANCH   1  12
TORSDOF 5
ENDMDL
MODEL 9
REMARK VINA RESULT:      -6.4      1.241      2.576
REMARK  Name = 
REMARK  7 active torsions:
REMARK  status: ('A' for Active; 'I' for Inactive)
REMARK    1  A    between atoms: C_1  and  C_2
REMARK    2  A    between atoms: C_2  and  C_15
REMARK    3  A    between atoms: N_3  and  N_4
REMARK    4  A    between atoms: N_4  and  C_5
REMARK    5  A    between atoms: C_5  and  N_7
REMARK    6  A    between atoms: N_7  and  C_8
REMARK    7  A    between atoms: N_7  and  C_9
REMARK                            x       y       z     vdW  Elec       q    Type
REMARK                         _______ _______ _______ _____ _____    ______ ____
ROOT
ATOM      1  N   UNL     1       5.909   3.880  19.073  0.00  0.00    +0.000 N 
ATOM      2  H   UNL     1       6.383   2.990  18.907  0.00  0.00    +0.000 HD
ENDROOT
BRANCH   1   5
ATOM      3  C   UNL     1       7.950   6.875  18.578  0.00  0.00    +0.000 C 
ATOM      4  C   UNL     1       7.076   5.686  18.238  0.00  0.00    +0.000 C 
ATOM      5  N   UNL     1       6.714   4.965  19.262  0.00  0.00    +0.000 NA
BRANCH   4   6
ATOM      6  C   UNL     1       6.699   5.493  16.789  0.00  0.00    +0.000 A 
ATOM      7  C   UNL     1       5.717   6.272  16.184  0.00  0.00    +0.000 A 
ATOM      8  C   UNL     1       5.392   6.032  14.852  0.00  0.00    +0.000 A 
ATOM      9  C   UNL     1       6.045   5.019  14.162  0.00  0.00    +0.000 A 
ATOM     10  C   UNL     1       7.008   4.288  14.834  0.00  0.00    +0.000 A 
ATOM     11  N   UNL     1       7.348   4.499  16.123  0.00  0.00    +0.000 NA
ENDBRANCH   4   6
ENDBRANCH   1   5
BRANCH   1  12
ATOM     12  C   UNL     1       4.587   4.019  18.650  0.00  0.00    +0.000 C 
ATOM     13  S   UNL     1       3.975   3.244  17.280  0.00  0.00    +0.000 S 
BRANCH  12  14
ATOM     14  N   UNL     1       3.815   4.855  19.502  0.00  0.00    +0.000 N 
ATOM     15  C   UNL     1       3.541   6.233  19.104  0.00  0.00    +0.000 C 
BRANCH  14  16
ATOM     16  C   UNL     1       3.188   4.305  20.743  0.00  0.00    +0.000 C 
ATOM     17  C   UNL     1       1.815   4.961  21.002  0.00  0.00    +0.000 C 
ATOM     18  C   UNL     1       0.718   4.388  20.110  0.00  0.00    +0.000 C 
ATOM     19  C   UNL     1       0.567   2.889  20.334  0.00  0.00    +0.000 C 
ATOM     20  C   UNL     1       1.879   2.149  20.100  0.00  0.00    +0.000 C 
ATOM     21  C   UNL     1       3.055   2.768  20.860  0.00  0.00    +0.000 C 
ENDBRANCH  14  16
ENDBRANCH  12  14
ENDBRANCH   1  12
TORSDOF 5
ENDMDL
