MODEL 1
REMARK VINA RESULT:      -8.4      0.000      0.000
REMARK  Name = 
REMARK  8 active torsions:
REMARK  status: ('A' for Active; 'I' for Inactive)
REMARK    1  A    between atoms: C_2  and  O_3
REMARK    2  A    between atoms: C_2  and  C_4
REMARK    3  A    between atoms: C_9  and  C_10
REMARK    4  A    between atoms: C_10  and  N_11
REMARK    5  A    between atoms: N_11  and  C_12
REMARK    6  A    between atoms: N_11  and  C_19
REMARK    7  A    between atoms: C_12  and  C_13
REMARK    8  A    between atoms: C_24  and  O_25
REMARK                            x       y       z     vdW  Elec       q    Type
REMARK                         _______ _______ _______ _____ _____    ______ ____
ROOT
ATOM      1  N   UNL     1       3.983   5.581  19.441  0.00  0.00    +0.000 NA
ENDROOT
BRANCH   1   2
ATOM      2  C   UNL     1       3.133   4.331  19.606  0.00  0.00    +0.000 C 
ATOM      3  C   UNL     1       2.399   4.355  20.979  0.00  0.00    +0.000 C 
ATOM      4  C   UNL     1       1.569   3.105  21.255  0.00  0.00    +0.000 C 
ATOM      5  C   UNL     1       0.534   2.861  20.168  0.00  0.00    +0.000 C 
ATOM      6  C   UNL     1       1.215   2.787  18.823  0.00  0.00    +0.000 C 
ATOM      7  C   UNL     1       2.026   4.052  18.515  0.00  0.00    +0.000 C 
BRANCH   7   8
ATOM      8  O   UNL     1       2.553   3.798  17.224  0.00  0.00    +0.000 OA
ATOM      9  H   UNL     1       2.903   2.888  17.247  0.00  0.00    +0.000 HD
ENDBRANCH   7   8
ENDBRANCH   1   2
BRANCH   1  10
ATOM     10  C   UNL     1       5.431   5.203  19.265  0.00  0.00    +0.000 C 
BRANCH  10  16
ATOM     11  C   UNL     1       6.786   5.960  17.193  0.00  0.00    +0.000 A 
ATOM     12  C   UNL     1       7.012   5.736  15.819  0.00  0.00    +0.000 A 
ATOM     13  C   UNL     1       6.430   4.659  15.153  0.00  0.00    +0.000 A 
ATOM     14  C   UNL     1       5.678   3.784  15.892  0.00  0.00    +0.000 A 
ATOM     15  N   UNL     1       5.454   3.949  17.210  0.00  0.00    +0.000 NA
ATOM     16  C   UNL     1       5.939   5.062  17.844  0.00  0.00    +0.000 A 
BRANCH  11  18
ATOM     17  O   UNL     1       7.506   8.214  17.281  0.00  0.00    +0.000 OA
ATOM     18  C   UNL     1       7.522   7.110  17.791  0.00  0.00    +0.000 C 
BRANCH  18  19
ATOM     19  O   UNL     1       8.276   6.862  18.884  0.00  0.00    +0.000 OA
ATOM     20  H   UNL     1       7.871   6.227  19.512  0.00  0.00    +0.000 HD
ENDBRANCH  18  19
ENDBRANCH  11  18
ENDBRANCH  10  16
ENDBRANCH   1  10
BRANCH   1  21
ATOM     21  C   UNL     1       3.489   6.480  18.327  0.00  0.00    +0.000 C 
BRANCH  21  22
ATOM     22  C   UNL     1       2.508   7.604  18.661  0.00  0.00    +0.000 A 
ATOM     23  C   UNL     1       2.122   8.560  17.707  0.00  0.00    +0.000 A 
ATOM     24  C   UNL     1       1.413   9.708  18.078  0.00  0.00    +0.000 A 
ATOM     25  C   UNL     1       0.976   9.872  19.386  0.00  0.00    +0.000 A 
ATOM     26  C   UNL     1       1.193   8.853  20.299  0.00  0.00    +0.000 A 
ATOM     27  C   UNL     1       1.930   7.733  19.922  0.00  0.00    +0.000 A 
ENDBRANCH  21  22
ENDBRANCH   1  21
TORSDOF 8
ENDMDL
MODEL 2
REMARK VINA RESULT:      -8.1      2.274      5.952
REMARK  Name = 
REMARK  8 active torsions:
REMARK  status: ('A' for Active; 'I' for Inactive)
REMARK    1  A    between atoms: C_2  and  O_3
REMARK    2  A    between atoms: C_2  and  C_4
REMARK    3  A    between atoms: C_9  and  C_10
REMARK    4  A    between atoms: C_10  and  N_11
REMARK    5  A    between atoms: N_11  and  C_12
REMARK    6  A    between atoms: N_11  and  C_19
REMARK    7  A    between atoms: C_12  and  C_13
REMARK    8  A    between atoms: C_24  and  O_25
REMARK                            x       y       z     vdW  Elec       q    Type
REMARK                         _______ _______ _______ _____ _____    ______ ____
ROOT
ATOM      1  N   UNL     1       3.050   7.014  18.736  0.00  0.00    +0.000 NA
ENDROOT
BRANCH   1   2
ATOM      2  C   UNL     1       2.310   8.291  19.104  0.00  0.00    +0.000 C 
ATOM      3  C   UNL     1       1.520   8.831  17.876  0.00  0.00    +0.000 C 
ATOM      4  C   UNL     1       0.796  10.147  18.140  0.00  0.00    +0.000 C 
ATOM      5  C   UNL     1      -0.165  10.040  19.312  0.00  0.00    +0.000 C 
ATOM      6  C   UNL     1       0.575   9.560  20.537  0.00  0.00    +0.000 C 
ATOM      7  C   UNL     1       1.280   8.219  20.298  0.00  0.00    +0.000 C 
BRANCH   7   8
ATOM      8  O   UNL     1       1.883   7.937  21.550  0.00  0.00    +0.000 OA
ATOM      9  H   UNL     1       1.196   8.095  22.225  0.00  0.00    +0.000 HD
ENDBRANCH   7   8
ENDBRANCH   1   2
BRANCH   1  10
ATOM     10  C   UNL     1       2.080   5.868  18.622  0.00  0.00    +0.000 C 
BRANCH  10  16
ATOM     11  C   UNL     1       2.706   3.389  19.032  0.00  0.00    +0.000 A 
ATOM     12  C   UNL     1       2.741   2.353  19.988  0.00  0.00    +0.000 A 
ATOM     13  C   UNL     1       2.442   2.589  21.328  0.00  0.00    +0.000 A 
ATOM     14  C   UNL     1       2.173   3.879  21.702  0.00  0.00    +0.000 A 
ATOM     15  N   UNL     1       2.149   4.902  20.826  0.00  0.00    +0.000 NA
ATOM     16  C   UNL     1       2.340   4.655  19.493  0.00  0.00    +0.000 A 
BRANCH  11  18
ATOM     17  O   UNL     1       2.332   3.068  16.715  0.00  0.00    +0.000 OA
ATOM     18  C   UNL     1       3.111   3.009  17.649  0.00  0.00    +0.000 C 
BRANCH  18  19
ATOM     19  O   UNL     1       4.359   2.520  17.480  0.00  0.00    +0.000 OA
ATOM     20  H   UNL     1       4.981   2.762  18.197  0.00  0.00    +0.000 HD
ENDBRANCH  18  19
ENDBRANCH  11  18
ENDBRANCH  10  16
ENDBRANCH   1  10
BRANCH   1  21
ATOM     21  C   UNL     1       3.898   7.170  17.491  0.00  0.00    +0.000 C 
BRANCH  21  22
ATOM     22  C   UNL     1       5.002   6.150  17.213  0.00  0.00    +0.000 A 
ATOM     23  C   UNL     1       5.840   5.666  18.232  0.00  0.00    +0.000 A 
ATOM     24  C   UNL     1       6.985   4.918  17.935  0.00  0.00    +0.000 A 
ATOM     25  C   UNL     1       7.256   4.540  16.626  0.00  0.00    +0.000 A 
ATOM     26  C   UNL     1       6.344   4.856  15.633  0.00  0.00    +0.000 A 
ATOM     27  C   UNL     1       5.229   5.630  15.941  0.00  0.00    +0.000 A 
ENDBRANCH  21  22
ENDBRANCH   1  21
TORSDOF 8
ENDMDL
MODEL 3
REMARK VINA RESULT:      -7.9      1.578      4.406
REMARK  Name = 
REMARK  8 active torsions:
REMARK  status: ('A' for Active; 'I' for Inactive)
REMARK    1  A    between atoms: C_2  and  O_3
REMARK    2  A    between atoms: C_2  and  C_4
REMARK    3  A    between atoms: C_9  and  C_10
REMARK    4  A    between atoms: C_10  and  N_11
REMARK    5  A    between atoms: N_11  and  C_12
REMARK    6  A    between atoms: N_11  and  C_19
REMARK    7  A    between atoms: C_12  and  C_13
REMARK    8  A    between atoms: C_24  and  O_25
REMARK                            x       y       z     vdW  Elec       q    Type
REMARK                         _______ _______ _______ _____ _____    ______ ____
ROOT
ATOM      1  N   UNL     1       3.315   6.787  18.332  0.00  0.00    +0.000 NA
ENDROOT
BRANCH   1   2
ATOM      2  C   UNL     1       2.631   8.044  18.846  0.00  0.00    +0.000 C 
ATOM      3  C   UNL     1       1.986   8.829  17.666  0.00  0.00    +0.000 C 
ATOM      4  C   UNL     1       1.329  10.140  18.085  0.00  0.00    +0.000 C 
ATOM      5  C   UNL     1       0.265   9.927  19.149  0.00  0.00    +0.000 C 
ATOM      6  C   UNL     1       0.865   9.205  20.332  0.00  0.00    +0.000 C 
ATOM      7  C   UNL     1       1.499   7.867  19.933  0.00  0.00    +0.000 C 
BRANCH   7   8
ATOM      8  O   UNL     1       1.972   7.347  21.164  0.00  0.00    +0.000 OA
ATOM      9  H   UNL     1       2.451   8.076  21.602  0.00  0.00    +0.000 HD
ENDBRANCH   7   8
ENDBRANCH   1   2
BRANCH   1  10
ATOM     10  C   UNL     1       4.637   7.138  17.702  0.00  0.00    +0.000 C 
BRANCH  10  16
ATOM     11  C   UNL     1       6.657   5.522  17.597  0.00  0.00    +0.000 A 
ATOM     12  C   UNL     1       7.327   4.565  16.806  0.00  0.00    +0.000 A 
ATOM     13  C   UNL     1       6.790   4.110  15.604  0.00  0.00    +0.000 A 
ATOM     14  C   UNL     1       5.552   4.575  15.244  0.00  0.00    +0.000 A 
ATOM     15  N   UNL     1       4.869   5.473  15.979  0.00  0.00    +0.000 NA
ATOM     16  C   UNL     1       5.441   5.999  17.106  0.00  0.00    +0.000 A 
BRANCH  11  18
ATOM     17  O   UNL     1       6.988   5.341  19.935  0.00  0.00    +0.000 OA
ATOM     18  C   UNL     1       7.314   5.870  18.888  0.00  0.00    +0.000 C 
BRANCH  18  19
ATOM     19  O   UNL     1       8.239   6.855  18.868  0.00  0.00    +0.000 OA
ATOM     20  H   UNL     1       7.907   7.705  18.510  0.00  0.00    +0.000 HD
ENDBRANCH  18  19
ENDBRANCH  11  18
ENDBRANCH  10  16
ENDBRANCH   1  10
BRANCH   1  21
ATOM     21  C   UNL     1       3.456   5.722  19.400  0.00  0.00    +0.000 C 
BRANCH  21  22
ATOM     22  C   UNL     1       2.675   4.417  19.253  0.00  0.00    +0.000 A 
ATOM     23  C   UNL     1       3.029   3.442  18.305  0.00  0.00    +0.000 A 
ATOM     24  C   UNL     1       2.181   2.366  18.020  0.00  0.00    +0.000 A 
ATOM     25  C   UNL     1       1.017   2.177  18.754  0.00  0.00    +0.000 A 
ATOM     26  C   UNL     1       0.744   3.027  19.813  0.00  0.00    +0.000 A 
ATOM     27  C   UNL     1       1.582   4.112  20.060  0.00  0.00    +0.000 A 
ENDBRANCH  21  22
ENDBRANCH   1  21
TORSDOF 8
ENDMDL
MODEL 4
REMARK VINA RESULT:      -7.8      1.662      5.053
REMARK  Name = 
REMARK  8 active torsions:
REMARK  status: ('A' for Active; 'I' for Inactive)
REMARK    1  A    between atoms: C_2  and  O_3
REMARK    2  A    between atoms: C_2  and  C_4
REMARK    3  A    between atoms: C_9  and  C_10
REMARK    4  A    between atoms: C_10  and  N_11
REMARK    5  A    between atoms: N_11  and  C_12
REMARK    6  A    between atoms: N_11  and  C_19
REMARK    7  A    between atoms: C_12  and  C_13
REMARK    8  A    between atoms: C_24  and  O_25
REMARK                            x       y       z     vdW  Elec       q    Type
REMARK                         _______ _______ _______ _____ _____    ______ ____
ROOT
ATOM      1  N   UNL     1       3.494   5.377  17.511  0.00  0.00    +0.000 NA
ENDROOT
BRANCH   1   2
ATOM      2  C   UNL     1       4.893   5.120  16.976  0.00  0.00    +0.000 C 
ATOM      3  C   UNL     1       4.860   4.007  15.888  0.00  0.00    +0.000 C 
ATOM      4  C   UNL     1       6.235   3.641  15.340  0.00  0.00    +0.000 C 
ATOM      5  C   UNL     1       6.955   4.848  14.761  0.00  0.00    +0.000 C 
ATOM      6  C   UNL     1       7.046   5.935  15.804  0.00  0.00    +0.000 C 
ATOM      7  C   UNL     1       5.668   6.340  16.340  0.00  0.00    +0.000 C 
BRANCH   7   8
ATOM      8  O   UNL     1       5.966   7.369  17.269  0.00  0.00    +0.000 OA
ATOM      9  H   UNL     1       5.275   7.323  17.957  0.00  0.00    +0.000 HD
ENDBRANCH   7   8
ENDBRANCH   1   2
BRANCH   1  10
ATOM     10  C   UNL     1       2.760   4.074  17.691  0.00  0.00    +0.000 C 
BRANCH  10  16
ATOM     11  C   UNL     1       3.263   2.971  19.978  0.00  0.00    +0.000 A 
ATOM     12  C   UNL     1       2.701   2.540  21.198  0.00  0.00    +0.000 A 
ATOM     13  C   UNL     1       1.374   2.811  21.524  0.00  0.00    +0.000 A 
ATOM     14  C   UNL     1       0.646   3.569  20.644  0.00  0.00    +0.000 A 
ATOM     15  N   UNL     1       1.148   4.018  19.479  0.00  0.00    +0.000 NA
ATOM     16  C   UNL     1       2.419   3.664  19.110  0.00  0.00    +0.000 A 
BRANCH  11  18
ATOM     17  O   UNL     1       5.532   3.552  19.626  0.00  0.00    +0.000 OA
ATOM     18  C   UNL     1       4.710   2.669  19.789  0.00  0.00    +0.000 C 
BRANCH  18  19
ATOM     19  O   UNL     1       5.070   1.368  19.728  0.00  0.00    +0.000 OA
ATOM     20  H   UNL     1       4.746   0.902  18.929  0.00  0.00    +0.000 HD
ENDBRANCH  18  19
ENDBRANCH  11  18
ENDBRANCH  10  16
ENDBRANCH   1  10
BRANCH   1  21
ATOM     21  C   UNL     1       3.496   6.210  18.776  0.00  0.00    +0.000 C 
BRANCH  21  22
ATOM     22  C   UNL     1       2.530   7.389  18.890  0.00  0.00    +0.000 A 
ATOM     23  C   UNL     1       2.255   8.231  17.799  0.00  0.00    +0.000 A 
ATOM     24  C   UNL     1       1.558   9.433  17.969  0.00  0.00    +0.000 A 
ATOM     25  C   UNL     1       1.024   9.765  19.207  0.00  0.00    +0.000 A 
ATOM     26  C   UNL     1       1.133   8.861  20.251  0.00  0.00    +0.000 A 
ATOM     27  C   UNL     1       1.859   7.686  20.073  0.00  0.00    +0.000 A 
ENDBRANCH  21  22
ENDBRANCH   1  21
TORSDOF 8
ENDMDL
MODEL 5
REMARK VINA RESULT:      -7.8      2.477      5.829
REMARK  Name = 
REMARK  8 active torsions:
REMARK  status: ('A' for Active; 'I' for Inactive)
REMARK    1  A    between atoms: C_2  and  O_3
REMARK    2  A    between atoms: C_2  and  C_4
REMARK    3  A    between atoms: C_9  and  C_10
REMARK    4  A    between atoms: C_10  and  N_11
REMARK    5  A    between atoms: N_11  and  C_12
REMARK    6  A    between atoms: N_11  and  C_19
REMARK    7  A    between atoms: C_12  and  C_13
REMARK    8  A    between atoms: C_24  and  O_25
REMARK                            x       y       z     vdW  Elec       q    Type
REMARK                         _______ _______ _______ _____ _____    ______ ____
ROOT
ATOM      1  N   UNL     1       2.950   6.725  18.737  0.00  0.00    +0.000 NA
ENDROOT
BRANCH   1   2
ATOM      2  C   UNL     1       2.366   8.089  19.071  0.00  0.00    +0.000 C 
ATOM      3  C   UNL     1       1.659   8.694  17.823  0.00  0.00    +0.000 C 
ATOM      4  C   UNL     1       1.097  10.094  18.052  0.00  0.00    +0.000 C 
ATOM      5  C   UNL     1       0.118  10.128  19.214  0.00  0.00    +0.000 C 
ATOM      6  C   UNL     1       0.783   9.588  20.457  0.00  0.00    +0.000 C 
ATOM      7  C   UNL     1       1.323   8.167  20.254  0.00  0.00    +0.000 C 
BRANCH   7   8
ATOM      8  O   UNL     1       1.874   7.841  21.518  0.00  0.00    +0.000 OA
ATOM      9  H   UNL     1       1.869   8.666  22.039  0.00  0.00    +0.000 HD
ENDBRANCH   7   8
ENDBRANCH   1   2
BRANCH   1  10
ATOM     10  C   UNL     1       1.845   5.713  18.581  0.00  0.00    +0.000 C 
BRANCH  10  16
ATOM     11  C   UNL     1       2.550   3.518  19.758  0.00  0.00    +0.000 A 
ATOM     12  C   UNL     1       3.053   2.215  19.561  0.00  0.00    +0.000 A 
ATOM     13  C   UNL     1       3.214   1.683  18.284  0.00  0.00    +0.000 A 
ATOM     14  C   UNL     1       2.807   2.446  17.221  0.00  0.00    +0.000 A 
ATOM     15  N   UNL     1       2.303   3.687  17.365  0.00  0.00    +0.000 NA
ATOM     16  C   UNL     1       2.240   4.250  18.611  0.00  0.00    +0.000 A 
BRANCH  11  18
ATOM     17  O   UNL     1       1.963   3.159  22.024  0.00  0.00    +0.000 OA
ATOM     18  C   UNL     1       2.367   3.934  21.178  0.00  0.00    +0.000 C 
BRANCH  18  19
ATOM     19  O   UNL     1       2.596   5.231  21.478  0.00  0.00    +0.000 OA
ATOM     20  H   UNL     1       2.647   5.818  20.695  0.00  0.00    +0.000 HD
ENDBRANCH  18  19
ENDBRANCH  11  18
ENDBRANCH  10  16
ENDBRANCH   1  10
BRANCH   1  21
ATOM     21  C   UNL     1       3.866   6.761  17.532  0.00  0.00    +0.000 C 
BRANCH  21  22
ATOM     22  C   UNL     1       5.115   5.880  17.523  0.00  0.00    +0.000 A 
ATOM     23  C   UNL     1       5.872   5.655  18.684  0.00  0.00    +0.000 A 
ATOM     24  C   UNL     1       7.130   5.045  18.622  0.00  0.00    +0.000 A 
ATOM     25  C   UNL     1       7.609   4.545  17.417  0.00  0.00    +0.000 A 
ATOM     26  C   UNL     1       6.796   4.599  16.297  0.00  0.00    +0.000 A 
ATOM     27  C   UNL     1       5.562   5.240  16.370  0.00  0.00    +0.000 A 
ENDBRANCH  21  22
ENDBRANCH   1  21
TORSDOF 8
ENDMDL
MODEL 6
REMARK VINA RESULT:      -7.8      2.011      5.157
REMARK  Name = 
REMARK  8 active torsions:
REMARK  status: ('A' for Active; 'I' for Inactive)
REMARK    1  A    between atoms: C_2  and  O_3
REMARK    2  A    between atoms: C_2  and  C_4
REMARK    3  A    between atoms: C_9  and  C_10
REMARK    4  A    between atoms: C_10  and  N_11
REMARK    5  A    between atoms: N_11  and  C_12
REMARK    6  A    between atoms: N_11  and  C_19
REMARK    7  A    between atoms: C_12  and  C_13
REMARK    8  A    between atoms: C_24  and  O_25
REMARK                            x       y       z     vdW  Elec       q    Type
REMARK                         _______ _______ _______ _____ _____    ______ ____
ROOT
ATOM      1  N   UNL     1       4.211   5.602  17.649  0.00  0.00    +0.000 NA
ENDROOT
BRANCH   1   2
ATOM      2  C   UNL     1       5.710   5.852  17.675  0.00  0.00    +0.000 C 
ATOM      3  C   UNL     1       6.026   7.295  17.182  0.00  0.00    +0.000 C 
ATOM      4  C   UNL     1       7.517   7.611  17.117  0.00  0.00    +0.000 C 
ATOM      5  C   UNL     1       8.198   7.410  18.461  0.00  0.00    +0.000 C 
ATOM      6  C   UNL     1       7.951   6.004  18.952  0.00  0.00    +0.000 C 
ATOM      7  C   UNL     1       6.455   5.682  19.057  0.00  0.00    +0.000 C 
BRANCH   7   8
ATOM      8  O   UNL     1       6.439   4.352  19.549  0.00  0.00    +0.000 OA
ATOM      9  H   UNL     1       6.690   3.781  18.799  0.00  0.00    +0.000 HD
ENDBRANCH   7   8
ENDBRANCH   1   2
BRANCH   1  10
ATOM     10  C   UNL     1       3.931   4.170  17.274  0.00  0.00    +0.000 C 
BRANCH  10  16
ATOM     11  C   UNL     1       2.906   2.354  18.809  0.00  0.00    +0.000 A 
ATOM     12  C   UNL     1       1.704   1.765  19.254  0.00  0.00    +0.000 A 
ATOM     13  C   UNL     1       0.463   2.295  18.906  0.00  0.00    +0.000 A 
ATOM     14  C   UNL     1       0.448   3.449  18.168  0.00  0.00    +0.000 A 
ATOM     15  N   UNL     1       1.572   4.056  17.740  0.00  0.00    +0.000 NA
ATOM     16  C   UNL     1       2.788   3.480  17.993  0.00  0.00    +0.000 A 
BRANCH  11  18
ATOM     17  O   UNL     1       4.849   2.255  20.160  0.00  0.00    +0.000 OA
ATOM     18  C   UNL     1       4.160   1.723  19.310  0.00  0.00    +0.000 C 
BRANCH  18  19
ATOM     19  O   UNL     1       4.548   0.567  18.727  0.00  0.00    +0.000 OA
ATOM     20  H   UNL     1       4.202  -0.237  19.167  0.00  0.00    +0.000 HD
ENDBRANCH  18  19
ENDBRANCH  11  18
ENDBRANCH  10  16
ENDBRANCH   1  10
BRANCH   1  21
ATOM     21  C   UNL     1       3.531   5.997  18.943  0.00  0.00    +0.000 C 
BRANCH  21  22
ATOM     22  C   UNL     1       2.600   7.208  18.952  0.00  0.00    +0.000 A 
ATOM     23  C   UNL     1       2.378   7.983  17.801  0.00  0.00    +0.000 A 
ATOM     24  C   UNL     1       1.715   9.213  17.872  0.00  0.00    +0.000 A 
ATOM     25  C   UNL     1       1.161   9.644  19.071  0.00  0.00    +0.000 A 
ATOM     26  C   UNL     1       1.214   8.809  20.175  0.00  0.00    +0.000 A 
ATOM     27  C   UNL     1       1.908   7.604  20.095  0.00  0.00    +0.000 A 
ENDBRANCH  21  22
ENDBRANCH   1  21
TORSDOF 8
ENDMDL
MODEL 7
REMARK VINA RESULT:      -7.8      2.425      5.575
REMARK  Name = 
REMARK  8 active torsions:
REMARK  status: ('A' for Active; 'I' for Inactive)
REMARK    1  A    between atoms: C_2  and  O_3
REMARK    2  A    between atoms: C_2  and  C_4
REMARK    3  A    between atoms: C_9  and  C_10
REMARK    4  A    between atoms: C_10  and  N_11
REMARK    5  A    between atoms: N_11  and  C_12
REMARK    6  A    between atoms: N_11  and  C_19
REMARK    7  A    between atoms: C_12  and  C_13
REMARK    8  A    between atoms: C_24  and  O_25
REMARK                            x       y       z     vdW  Elec       q    Type
REMARK                         _______ _______ _______ _____ _____    ______ ____
ROOT
ATOM      1  N   UNL     1       3.116   5.819  19.116  0.00  0.00    +0.000 NA
ENDROOT
BRANCH   1   2
ATOM      2  C   UNL     1       2.608   4.400  19.318  0.00  0.00    +0.000 C 
ATOM      3  C   UNL     1       1.774   4.307  20.629  0.00  0.00    +0.000 C 
ATOM      4  C   UNL     1       1.275   2.900  20.942  0.00  0.00    +0.000 C 
ATOM      5  C   UNL     1       0.440   2.329  19.808  0.00  0.00    +0.000 C 
ATOM      6  C   UNL     1       1.233   2.362  18.524  0.00  0.00    +0.000 C 
ATOM      7  C   UNL     1       1.713   3.777  18.177  0.00  0.00    +0.000 C 
BRANCH   7   8
ATOM      8  O   UNL     1       2.401   3.599  16.950  0.00  0.00    +0.000 OA
ATOM      9  H   UNL     1       3.208   4.144  17.009  0.00  0.00    +0.000 HD
ENDBRANCH   7   8
ENDBRANCH   1   2
BRANCH   1  10
ATOM     10  C   UNL     1       2.503   6.740  20.139  0.00  0.00    +0.000 C 
BRANCH  10  16
ATOM     11  C   UNL     1       1.132   8.923  20.379  0.00  0.00    +0.000 A 
ATOM     12  C   UNL     1       0.537   9.993  19.678  0.00  0.00    +0.000 A 
ATOM     13  C   UNL     1       0.732  10.163  18.309  0.00  0.00    +0.000 A 
ATOM     14  C   UNL     1       1.576   9.291  17.673  0.00  0.00    +0.000 A 
ATOM     15  N   UNL     1       2.181   8.269  18.307  0.00  0.00    +0.000 NA
ATOM     16  C   UNL     1       1.909   8.038  19.629  0.00  0.00    +0.000 A 
BRANCH  11  18
ATOM     17  O   UNL     1      -0.214   8.699  22.314  0.00  0.00    +0.000 OA
ATOM     18  C   UNL     1       0.893   8.899  21.850  0.00  0.00    +0.000 C 
BRANCH  18  19
ATOM     19  O   UNL     1       1.941   9.186  22.653  0.00  0.00    +0.000 OA
ATOM     20  H   UNL     1       2.743   9.478  22.172  0.00  0.00    +0.000 HD
ENDBRANCH  18  19
ENDBRANCH  11  18
ENDBRANCH  10  16
ENDBRANCH   1  10
BRANCH   1  21
ATOM     21  C   UNL     1       4.629   5.902  19.109  0.00  0.00    +0.000 C 
BRANCH  21  22
ATOM     22  C   UNL     1       5.380   5.634  17.805  0.00  0.00    +0.000 A 
ATOM     23  C   UNL     1       4.903   6.094  16.566  0.00  0.00    +0.000 A 
ATOM     24  C   UNL     1       5.467   5.652  15.364  0.00  0.00    +0.000 A 
ATOM     25  C   UNL     1       6.588   4.833  15.374  0.00  0.00    +0.000 A 
ATOM     26  C   UNL     1       7.179   4.516  16.586  0.00  0.00    +0.000 A 
ATOM     27  C   UNL     1       6.585   4.936  17.773  0.00  0.00    +0.000 A 
ENDBRANCH  21  22
ENDBRANCH   1  21
TORSDOF 8
ENDMDL
MODEL 8
REMARK VINA RESULT:      -7.8      1.221      1.613
REMARK  Name = 
REMARK  8 active torsions:
REMARK  status: ('A' for Active; 'I' for Inactive)
REMARK    1  A    between atoms: C_2  and  O_3
REMARK    2  A    between atoms: C_2  and  C_4
REMARK    3  A    between atoms: C_9  and  C_10
REMARK    4  A    between atoms: C_10  and  N_11
REMARK    5  A    between atoms: N_11  and  C_12
REMARK    6  A    between atoms: N_11  and  C_19
REMARK    7  A    between atoms: C_12  and  C_13
REMARK    8  A    between atoms: C_24  and  O_25
REMARK                            x       y       z     vdW  Elec       q    Type
REMARK                         _______ _______ _______ _____ _____    ______ ____
ROOT
ATOM      1  N   UNL     1       3.716   5.388  19.630  0.00  0.00    +0.000 NA
ENDROOT
BRANCH   1   2
ATOM      2  C   UNL     1       2.449   4.549  19.687  0.00  0.00    +0.000 C 
ATOM      3  C   UNL     1       2.100   4.001  18.272  0.00  0.00    +0.000 C 
ATOM      4  C   UNL     1       0.804   3.198  18.226  0.00  0.00    +0.000 C 
ATOM      5  C   UNL     1       0.828   2.027  19.195  0.00  0.00    +0.000 C 
ATOM      6  C   UNL     1       1.121   2.525  20.589  0.00  0.00    +0.000 C 
ATOM      7  C   UNL     1       2.439   3.306  20.660  0.00  0.00    +0.000 C 
BRANCH   7   8
ATOM      8  O   UNL     1       2.540   3.658  22.030  0.00  0.00    +0.000 OA
ATOM      9  H   UNL     1       2.867   4.577  22.052  0.00  0.00    +0.000 HD
ENDBRANCH   7   8
ENDBRANCH   1   2
BRANCH   1  10
ATOM     10  C   UNL     1       4.919   4.498  19.454  0.00  0.00    +0.000 C 
BRANCH  10  16
ATOM     11  C   UNL     1       6.822   5.379  17.936  0.00  0.00    +0.000 A 
ATOM     12  C   UNL     1       7.281   5.482  16.607  0.00  0.00    +0.000 A 
ATOM     13  C   UNL     1       6.630   4.834  15.560  0.00  0.00    +0.000 A 
ATOM     14  C   UNL     1       5.560   4.036  15.873  0.00  0.00    +0.000 A 
ATOM     15  N   UNL     1       5.101   3.893  17.131  0.00  0.00    +0.000 NA
ATOM     16  C   UNL     1       5.675   4.611  18.145  0.00  0.00    +0.000 A 
BRANCH  11  18
ATOM     17  O   UNL     1       8.235   7.110  18.721  0.00  0.00    +0.000 OA
ATOM     18  C   UNL     1       7.652   6.070  18.964  0.00  0.00    +0.000 C 
BRANCH  18  19
ATOM     19  O   UNL     1       7.796   5.458  20.159  0.00  0.00    +0.000 OA
ATOM     20  H   UNL     1       7.894   4.485  20.098  0.00  0.00    +0.000 HD
ENDBRANCH  18  19
ENDBRANCH  11  18
ENDBRANCH  10  16
ENDBRANCH   1  10
BRANCH   1  21
ATOM     21  C   UNL     1       3.651   6.474  18.576  0.00  0.00    +0.000 C 
BRANCH  21  22
ATOM     22  C   UNL     1       2.632   7.602  18.735  0.00  0.00    +0.000 A 
ATOM     23  C   UNL     1       2.327   8.481  17.682  0.00  0.00    +0.000 A 
ATOM     24  C   UNL     1       1.576   9.641  17.902  0.00  0.00    +0.000 A 
ATOM     25  C   UNL     1       1.018   9.890  19.149  0.00  0.00    +0.000 A 
ATOM     26  C   UNL     1       1.159   8.943  20.150  0.00  0.00    +0.000 A 
ATOM     27  C   UNL     1       1.938   7.812  19.924  0.00  0.00    +0.000 A 
ENDBRANCH  21  22
ENDBRANCH   1  21
TORSDOF 8
ENDMDL
MODEL 9
REMARK VINA RESULT:      -7.7      1.601      4.500
REMARK  Name = 
REMARK  8 active torsions:
REMARK  status: ('A' for Active; 'I' for Inactive)
REMARK    1  A    between atoms: C_2  and  O_3
REMARK    2  A    between atoms: C_2  and  C_4
REMARK    3  A    between atoms: C_9  and  C_10
REMARK    4  A    between atoms: C_10  and  N_11
REMARK    5  A    between atoms: N_11  and  C_12
REMARK    6  A    between atoms: N_11  and  C_19
REMARK    7  A    between atoms: C_12  and  C_13
REMARK    8  A    between atoms: C_24  and  O_25
REMARK                            x       y       z     vdW  Elec       q    Type
REMARK                         _______ _______ _______ _____ _____    ______ ____
ROOT
ATOM      1  N   UNL     1       3.290   6.737  18.199  0.00  0.00    +0.000 NA
ENDROOT
BRANCH   1   2
ATOM      2  C   UNL     1       2.668   7.978  18.820  0.00  0.00    +0.000 C 
ATOM      3  C   UNL     1       2.045   8.881  17.715  0.00  0.00    +0.000 C 
ATOM      4  C   UNL     1       1.451  10.181  18.245  0.00  0.00    +0.000 C 
ATOM      5  C   UNL     1       0.390   9.930  19.304  0.00  0.00    +0.000 C 
ATOM      6  C   UNL     1       0.970   9.092  20.417  0.00  0.00    +0.000 C 
ATOM      7  C   UNL     1       1.541   7.764  19.905  0.00  0.00    +0.000 C 
BRANCH   7   8
ATOM      8  O   UNL     1       2.003   7.127  21.085  0.00  0.00    +0.000 OA
ATOM      9  H   UNL     1       1.207   6.874  21.588  0.00  0.00    +0.000 HD
ENDBRANCH   7   8
ENDBRANCH   1   2
BRANCH   1  10
ATOM     10  C   UNL     1       4.564   7.101  17.481  0.00  0.00    +0.000 C 
BRANCH  10  16
ATOM     11  C   UNL     1       6.646   5.564  17.447  0.00  0.00    +0.000 A 
ATOM     12  C   UNL     1       7.344   4.584  16.709  0.00  0.00    +0.000 A 
ATOM     13  C   UNL     1       6.808   4.029  15.549  0.00  0.00    +0.000 A 
ATOM     14  C   UNL     1       5.547   4.420  15.180  0.00  0.00    +0.000 A 
ATOM     15  N   UNL     1       4.838   5.336  15.867  0.00  0.00    +0.000 NA
ATOM     16  C   UNL     1       5.404   5.958  16.947  0.00  0.00    +0.000 A 
BRANCH  11  18
ATOM     17  O   UNL     1       8.141   6.909  18.697  0.00  0.00    +0.000 OA
ATOM     18  C   UNL     1       7.308   6.022  18.701  0.00  0.00    +0.000 C 
BRANCH  18  19
ATOM     19  O   UNL     1       7.003   5.363  19.840  0.00  0.00    +0.000 OA
ATOM     20  H   UNL     1       6.622   5.933  20.540  0.00  0.00    +0.000 HD
ENDBRANCH  18  19
ENDBRANCH  11  18
ENDBRANCH  10  16
ENDBRANCH   1  10
BRANCH   1  21
ATOM     21  C   UNL     1       3.500   5.624  19.204  0.00  0.00    +0.000 C 
BRANCH  21  22
ATOM     22  C   UNL     1       2.865   4.259  18.943  0.00  0.00    +0.000 A 
ATOM     23  C   UNL     1       1.479   4.052  19.050  0.00  0.00    +0.000 A 
ATOM     24  C   UNL     1       0.936   2.762  19.037  0.00  0.00    +0.000 A 
ATOM     25  C   UNL     1       1.749   1.660  18.804  0.00  0.00    +0.000 A 
ATOM     26  C   UNL     1       3.090   1.862  18.518  0.00  0.00    +0.000 A 
ATOM     27  C   UNL     1       3.619   3.149  18.569  0.00  0.00    +0.000 A 
ENDBRANCH  21  22
ENDBRANCH   1  21
TORSDOF 8
ENDMDL
