MODEL 1
REMARK VINA RESULT:      -8.4      0.000      0.000
REMARK  Name = 
REMARK  7 active torsions:
REMARK  status: ('A' for Active; 'I' for Inactive)
REMARK    1  A    between atoms: C_2  and  C_3
REMARK    2  A    between atoms: C_3  and  C_4
REMARK    3  A    between atoms: C_4  and  C_5
REMARK    4  A    between atoms: C_5  and  N_6
REMARK    5  A    between atoms: N_15  and  C_16
REMARK    6  A    between atoms: C_16  and  C_17
REMARK    7  A    between atoms: C_17  and  C_18
REMARK                            x       y       z     vdW  Elec       q    Type
REMARK                         _______ _______ _______ _____ _____    ______ ____
ROOT
ATOM      1  C   UNL     1       7.476   5.822  18.556  0.00  0.00    +0.000 C 
ENDROOT
BRANCH   1   3
ATOM      2  O   UNL     1       7.407   7.557  16.877  0.00  0.00    +0.000 OA
ATOM      3  C   UNL     1       7.759   7.214  17.995  0.00  0.00    +0.000 C 
ATOM      4  N   UNL     1       8.432   8.056  18.863  0.00  0.00    +0.000 N 
ATOM      5  H   UNL     1       8.583   7.760  19.817  0.00  0.00    +0.000 HD
BRANCH   4   6
ATOM      6  C   UNL     1       8.786   9.421  18.469  0.00  0.00    +0.000 C 
BRANCH   6   7
ATOM      7  C   UNL     1       9.362  10.256  19.622  0.00  0.00    +0.000 C 
BRANCH   7   8
ATOM      8  C   UNL     1      10.400  11.266  19.173  0.00  0.00    +0.000 A 
ATOM      9  C   UNL     1      10.544  11.568  17.811  0.00  0.00    +0.000 A 
ATOM     10  C   UNL     1      11.507  12.484  17.377  0.00  0.00    +0.000 A 
ATOM     11  C   UNL     1      12.333  13.119  18.299  0.00  0.00    +0.000 A 
ATOM     12  C   UNL     1      12.196  12.836  19.657  0.00  0.00    +0.000 A 
ATOM     13  C   UNL     1      11.236  11.919  20.094  0.00  0.00    +0.000 A 
ENDBRANCH   7   8
ENDBRANCH   6   7
ENDBRANCH   4   6
ENDBRANCH   1   3
BRANCH   1  14
ATOM     14  C   UNL     1       7.565   4.727  17.484  0.00  0.00    +0.000 C 
BRANCH  14  15
ATOM     15  C   UNL     1       6.180   4.323  16.972  0.00  0.00    +0.000 C 
BRANCH  15  16
ATOM     16  N   UNL     1       5.310   3.873  18.033  0.00  0.00    +0.000 N 
ATOM     17  C   UNL     1       4.084   4.428  18.277  0.00  0.00    +0.000 C 
ATOM     18  O   UNL     1       3.630   5.351  17.603  0.00  0.00    +0.000 OA
ATOM     19  N   UNL     1       3.387   3.868  19.335  0.00  0.00    +0.000 N 
ATOM     20  C   UNL     1       2.045   4.299  19.641  0.00  0.00    +0.000 C 
ATOM     21  C   UNL     1       1.796   3.806  21.050  0.00  0.00    +0.000 C 
ATOM     22  C   UNL     1       2.686   2.581  21.178  0.00  0.00    +0.000 C 
ATOM     23  C   UNL     1       3.811   2.869  20.218  0.00  0.00    +0.000 C 
ATOM     24  O   UNL     1       4.890   2.295  20.220  0.00  0.00    +0.000 OA
ATOM     25  H   UNL     1       5.684   3.236  18.736  0.00  0.00    +0.000 HD
ENDBRANCH  15  16
ENDBRANCH  14  15
ENDBRANCH   1  14
TORSDOF 7
ENDMDL
MODEL 2
REMARK VINA RESULT:      -7.9      1.879      2.374
REMARK  Name = 
REMARK  7 active torsions:
REMARK  status: ('A' for Active; 'I' for Inactive)
REMARK    1  A    between atoms: C_2  and  C_3
REMARK    2  A    between atoms: C_3  and  C_4
REMARK    3  A    between atoms: C_4  and  C_5
REMARK    4  A    between atoms: C_5  and  N_6
REMARK    5  A    between atoms: N_15  and  C_16
REMARK    6  A    between atoms: C_16  and  C_17
REMARK    7  A    between atoms: C_17  and  C_18
REMARK                            x       y       z     vdW  Elec       q    Type
REMARK                         _______ _______ _______ _____ _____    ______ ____
ROOT
ATOM      1  C   UNL     1       5.877   5.717  16.971  0.00  0.00    +0.000 C 
ENDROOT
BRANCH   1   3
ATOM      2  O   UNL     1       7.747   5.705  18.501  0.00  0.00    +0.000 OA
ATOM      3  C   UNL     1       7.049   6.341  17.726  0.00  0.00    +0.000 C 
ATOM      4  N   UNL     1       7.261   7.680  17.447  0.00  0.00    +0.000 N 
ATOM      5  H   UNL     1       6.735   8.118  16.705  0.00  0.00    +0.000 HD
BRANCH   4   6
ATOM      6  C   UNL     1       8.341   8.424  18.098  0.00  0.00    +0.000 C 
BRANCH   6   7
ATOM      7  C   UNL     1       8.278   9.937  17.839  0.00  0.00    +0.000 C 
BRANCH   7   8
ATOM      8  C   UNL     1       9.371  10.714  18.547  0.00  0.00    +0.000 A 
ATOM      9  C   UNL     1      10.426  11.273  17.812  0.00  0.00    +0.000 A 
ATOM     10  C   UNL     1      11.451  11.978  18.448  0.00  0.00    +0.000 A 
ATOM     11  C   UNL     1      11.431  12.145  19.830  0.00  0.00    +0.000 A 
ATOM     12  C   UNL     1      10.384  11.604  20.574  0.00  0.00    +0.000 A 
ATOM     13  C   UNL     1       9.359  10.896  19.940  0.00  0.00    +0.000 A 
ENDBRANCH   7   8
ENDBRANCH   6   7
ENDBRANCH   4   6
ENDBRANCH   1   3
BRANCH   1  14
ATOM     14  C   UNL     1       4.933   6.772  16.376  0.00  0.00    +0.000 C 
BRANCH  14  15
ATOM     15  C   UNL     1       3.788   7.110  17.334  0.00  0.00    +0.000 C 
BRANCH  15  16
ATOM     16  N   UNL     1       3.037   5.941  17.729  0.00  0.00    +0.000 N 
ATOM     17  C   UNL     1       2.581   5.744  19.004  0.00  0.00    +0.000 C 
ATOM     18  O   UNL     1       2.776   6.555  19.907  0.00  0.00    +0.000 OA
ATOM     19  N   UNL     1       1.878   4.567  19.200  0.00  0.00    +0.000 N 
ATOM     20  C   UNL     1       1.267   4.280  20.474  0.00  0.00    +0.000 C 
ATOM     21  C   UNL     1       0.987   2.794  20.439  0.00  0.00    +0.000 C 
ATOM     22  C   UNL     1       0.807   2.484  18.962  0.00  0.00    +0.000 C 
ATOM     23  C   UNL     1       1.647   3.535  18.283  0.00  0.00    +0.000 C 
ATOM     24  O   UNL     1       2.024   3.480  17.122  0.00  0.00    +0.000 OA
ATOM     25  H   UNL     1       2.986   5.152  17.086  0.00  0.00    +0.000 HD
ENDBRANCH  15  16
ENDBRANCH  14  15
ENDBRANCH   1  14
TORSDOF 7
ENDMDL
MODEL 3
REMARK VINA RESULT:      -7.9      1.361      2.272
REMARK  Name = 
REMARK  7 active torsions:
REMARK  status: ('A' for Active; 'I' for Inactive)
REMARK    1  A    between atoms: C_2  and  C_3
REMARK    2  A    between atoms: C_3  and  C_4
REMARK    3  A    between atoms: C_4  and  C_5
REMARK    4  A    between atoms: C_5  and  N_6
REMARK    5  A    between atoms: N_15  and  C_16
REMARK    6  A    between atoms: C_16  and  C_17
REMARK    7  A    between atoms: C_17  and  C_18
REMARK                            x       y       z     vdW  Elec       q    Type
REMARK                         _______ _______ _______ _____ _____    ______ ____
ROOT
ATOM      1  C   UNL     1       5.350   6.350  16.728  0.00  0.00    +0.000 C 
ENDROOT
BRANCH   1   3
ATOM      2  O   UNL     1       7.033   6.151  18.449  0.00  0.00    +0.000 OA
ATOM      3  C   UNL     1       6.555   6.815  17.543  0.00  0.00    +0.000 C 
ATOM      4  N   UNL     1       7.068   8.042  17.158  0.00  0.00    +0.000 N 
ATOM      5  H   UNL     1       6.712   8.483  16.322  0.00  0.00    +0.000 HD
BRANCH   4   6
ATOM      6  C   UNL     1       8.218   8.629  17.848  0.00  0.00    +0.000 C 
BRANCH   6   7
ATOM      7  C   UNL     1       8.144  10.159  17.957  0.00  0.00    +0.000 C 
BRANCH   7   8
ATOM      8  C   UNL     1       9.371  10.776  18.599  0.00  0.00    +0.000 A 
ATOM      9  C   UNL     1       9.423  10.956  19.988  0.00  0.00    +0.000 A 
ATOM     10  C   UNL     1      10.539  11.538  20.596  0.00  0.00    +0.000 A 
ATOM     11  C   UNL     1      11.625  11.939  19.824  0.00  0.00    +0.000 A 
ATOM     12  C   UNL     1      11.593  11.759  18.442  0.00  0.00    +0.000 A 
ATOM     13  C   UNL     1      10.478  11.179  17.832  0.00  0.00    +0.000 A 
ENDBRANCH   7   8
ENDBRANCH   6   7
ENDBRANCH   4   6
ENDBRANCH   1   3
BRANCH   1  14
ATOM     14  C   UNL     1       5.662   5.113  15.872  0.00  0.00    +0.000 C 
BRANCH  14  15
ATOM     15  C   UNL     1       5.451   3.816  16.656  0.00  0.00    +0.000 C 
BRANCH  15  16
ATOM     16  N   UNL     1       4.263   3.855  17.476  0.00  0.00    +0.000 N 
ATOM     17  C   UNL     1       4.251   3.471  18.789  0.00  0.00    +0.000 C 
ATOM     18  O   UNL     1       5.258   3.067  19.368  0.00  0.00    +0.000 OA
ATOM     19  N   UNL     1       3.023   3.577  19.420  0.00  0.00    +0.000 N 
ATOM     20  C   UNL     1       2.893   3.290  20.828  0.00  0.00    +0.000 C 
ATOM     21  C   UNL     1       1.408   3.096  21.044  0.00  0.00    +0.000 C 
ATOM     22  C   UNL     1       0.761   3.944  19.961  0.00  0.00    +0.000 C 
ATOM     23  C   UNL     1       1.795   3.953  18.865  0.00  0.00    +0.000 C 
ATOM     24  O   UNL     1       1.574   4.264  17.704  0.00  0.00    +0.000 OA
ATOM     25  H   UNL     1       3.362   4.012  17.026  0.00  0.00    +0.000 HD
ENDBRANCH  15  16
ENDBRANCH  14  15
ENDBRANCH   1  14
TORSDOF 7
ENDMDL
MODEL 4
REMARK VINA RESULT:      -7.9      1.534      2.057
REMARK  Name = 
REMARK  7 active torsions:
REMARK  status: ('A' for Active; 'I' for Inactive)
REMARK    1  A    between atoms: C_2  and  C_3
REMARK    2  A    between atoms: C_3  and  C_4
REMARK    3  A    between atoms: C_4  and  C_5
REMARK    4  A    between atoms: C_5  and  N_6
REMARK    5  A    between atoms: N_15  and  C_16
REMARK    6  A    between atoms: C_16  and  C_17
REMARK    7  A    between atoms: C_17  and  C_18
REMARK                            x       y       z     vdW  Elec       q    Type
REMARK                         _______ _______ _______ _____ _____    ______ ____
ROOT
ATOM      1  C   UNL     1       5.407   6.313  16.352  0.00  0.00    +0.000 C 
ENDROOT
BRANCH   1   3
ATOM      2  O   UNL     1       6.637   6.230  18.429  0.00  0.00    +0.000 OA
ATOM      3  C   UNL     1       6.447   6.792  17.361  0.00  0.00    +0.000 C 
ATOM      4  N   UNL     1       7.166   7.905  16.958  0.00  0.00    +0.000 N 
ATOM      5  H   UNL     1       7.054   8.247  16.015  0.00  0.00    +0.000 HD
BRANCH   4   6
ATOM      6  C   UNL     1       8.195   8.491  17.819  0.00  0.00    +0.000 C 
BRANCH   6   7
ATOM      7  C   UNL     1       8.053  10.011  17.986  0.00  0.00    +0.000 C 
BRANCH   7   8
ATOM      8  C   UNL     1       9.270  10.663  18.613  0.00  0.00    +0.000 A 
ATOM      9  C   UNL     1      10.348  11.061  17.808  0.00  0.00    +0.000 A 
ATOM     10  C   UNL     1      11.485  11.649  18.370  0.00  0.00    +0.000 A 
ATOM     11  C   UNL     1      11.557  11.858  19.744  0.00  0.00    +0.000 A 
ATOM     12  C   UNL     1      10.490  11.477  20.556  0.00  0.00    +0.000 A 
ATOM     13  C   UNL     1       9.353  10.887  19.997  0.00  0.00    +0.000 A 
ENDBRANCH   7   8
ENDBRANCH   6   7
ENDBRANCH   4   6
ENDBRANCH   1   3
BRANCH   1  14
ATOM     14  C   UNL     1       5.844   5.035  15.619  0.00  0.00    +0.000 C 
BRANCH  14  15
ATOM     15  C   UNL     1       5.564   3.782  16.453  0.00  0.00    +0.000 C 
BRANCH  15  16
ATOM     16  N   UNL     1       4.647   4.037  17.539  0.00  0.00    +0.000 N 
ATOM     17  C   UNL     1       3.781   3.094  18.019  0.00  0.00    +0.000 C 
ATOM     18  O   UNL     1       3.724   1.954  17.560  0.00  0.00    +0.000 OA
ATOM     19  N   UNL     1       2.977   3.514  19.066  0.00  0.00    +0.000 N 
ATOM     20  C   UNL     1       2.083   2.592  19.722  0.00  0.00    +0.000 C 
ATOM     21  C   UNL     1       1.108   3.472  20.472  0.00  0.00    +0.000 C 
ATOM     22  C   UNL     1       1.896   4.739  20.761  0.00  0.00    +0.000 C 
ATOM     23  C   UNL     1       2.893   4.791  19.632  0.00  0.00    +0.000 C 
ATOM     24  O   UNL     1       3.523   5.786  19.307  0.00  0.00    +0.000 OA
ATOM     25  H   UNL     1       4.515   4.998  17.853  0.00  0.00    +0.000 HD
ENDBRANCH  15  16
ENDBRANCH  14  15
ENDBRANCH   1  14
TORSDOF 7
ENDMDL
MODEL 5
REMARK VINA RESULT:      -7.7      1.302      1.844
REMARK  Name = 
REMARK  7 active torsions:
REMARK  status: ('A' for Active; 'I' for Inactive)
REMARK    1  A    between atoms: C_2  and  C_3
REMARK    2  A    between atoms: C_3  and  C_4
REMARK    3  A    between atoms: C_4  and  C_5
REMARK    4  A    between atoms: C_5  and  N_6
REMARK    5  A    between atoms: N_15  and  C_16
REMARK    6  A    between atoms: C_16  and  C_17
REMARK    7  A    between atoms: C_17  and  C_18
REMARK                            x       y       z     vdW  Elec       q    Type
REMARK                         _______ _______ _______ _____ _____    ______ ____
ROOT
ATOM      1  C   UNL     1       5.699   5.634  17.525  0.00  0.00    +0.000 C 
ENDROOT
BRANCH   1   3
ATOM      2  O   UNL     1       7.867   5.587  18.589  0.00  0.00    +0.000 OA
ATOM      3  C   UNL     1       7.010   6.242  18.017  0.00  0.00    +0.000 C 
ATOM      4  N   UNL     1       7.152   7.592  17.745  0.00  0.00    +0.000 N 
ATOM      5  H   UNL     1       6.470   8.051  17.158  0.00  0.00    +0.000 HD
BRANCH   4   6
ATOM      6  C   UNL     1       8.351   8.323  18.160  0.00  0.00    +0.000 C 
BRANCH   6   7
ATOM      7  C   UNL     1       8.286   9.825  17.846  0.00  0.00    +0.000 C 
BRANCH   7   8
ATOM      8  C   UNL     1       9.360  10.634  18.547  0.00  0.00    +0.000 A 
ATOM      9  C   UNL     1       9.382  10.709  19.947  0.00  0.00    +0.000 A 
ATOM     10  C   UNL     1      10.354  11.462  20.611  0.00  0.00    +0.000 A 
ATOM     11  C   UNL     1      11.326  12.144  19.884  0.00  0.00    +0.000 A 
ATOM     12  C   UNL     1      11.323  12.072  18.492  0.00  0.00    +0.000 A 
ATOM     13  C   UNL     1      10.350  11.321  17.826  0.00  0.00    +0.000 A 
ENDBRANCH   7   8
ENDBRANCH   6   7
ENDBRANCH   4   6
ENDBRANCH   1   3
BRANCH   1  14
ATOM     14  C   UNL     1       5.868   4.856  16.211  0.00  0.00    +0.000 C 
BRANCH  14  15
ATOM     15  C   UNL     1       5.157   3.502  16.261  0.00  0.00    +0.000 C 
BRANCH  15  16
ATOM     16  N   UNL     1       4.526   3.258  17.537  0.00  0.00    +0.000 N 
ATOM     17  C   UNL     1       3.169   3.260  17.710  0.00  0.00    +0.000 C 
ATOM     18  O   UNL     1       2.386   3.466  16.784  0.00  0.00    +0.000 OA
ATOM     19  N   UNL     1       2.742   3.005  19.002  0.00  0.00    +0.000 N 
ATOM     20  C   UNL     1       1.335   2.890  19.302  0.00  0.00    +0.000 C 
ATOM     21  C   UNL     1       1.250   3.044  20.805  0.00  0.00    +0.000 C 
ATOM     22  C   UNL     1       2.595   2.546  21.307  0.00  0.00    +0.000 C 
ATOM     23  C   UNL     1       3.521   2.823  20.150  0.00  0.00    +0.000 C 
ATOM     24  O   UNL     1       4.740   2.854  20.228  0.00  0.00    +0.000 OA
ATOM     25  H   UNL     1       5.105   3.251  18.376  0.00  0.00    +0.000 HD
ENDBRANCH  15  16
ENDBRANCH  14  15
ENDBRANCH   1  14
TORSDOF 7
ENDMDL
MODEL 6
REMARK VINA RESULT:      -7.4      1.353      1.582
REMARK  Name = 
REMARK  7 active torsions:
REMARK  status: ('A' for Active; 'I' for Inactive)
REMARK    1  A    between atoms: C_2  and  C_3
REMARK    2  A    between atoms: C_3  and  C_4
REMARK    3  A    between atoms: C_4  and  C_5
REMARK    4  A    between atoms: C_5  and  N_6
REMARK    5  A    between atoms: N_15  and  C_16
REMARK    6  A    between atoms: C_16  and  C_17
REMARK    7  A    between atoms: C_17  and  C_18
REMARK                            x       y       z     vdW  Elec       q    Type
REMARK                         _______ _______ _______ _____ _____    ______ ____
ROOT
ATOM      1  C   UNL     1       7.302   5.664  16.297  0.00  0.00    +0.000 C 
ENDROOT
BRANCH   1   3
ATOM      2  O   UNL     1       6.951   6.504  18.534  0.00  0.00    +0.000 OA
ATOM      3  C   UNL     1       7.289   6.736  17.384  0.00  0.00    +0.000 C 
ATOM      4  N   UNL     1       7.708   7.986  16.961  0.00  0.00    +0.000 N 
ATOM      5  H   UNL     1       8.095   8.087  16.034  0.00  0.00    +0.000 HD
BRANCH   4   6
ATOM      6  C   UNL     1       7.744   9.122  17.884  0.00  0.00    +0.000 C 
BRANCH   6   7
ATOM      7  C   UNL     1       8.943   9.087  18.844  0.00  0.00    +0.000 C 
BRANCH   7   8
ATOM      8  C   UNL     1       9.462  10.464  19.208  0.00  0.00    +0.000 A 
ATOM      9  C   UNL     1       9.939  11.323  18.208  0.00  0.00    +0.000 A 
ATOM     10  C   UNL     1      10.437  12.590  18.526  0.00  0.00    +0.000 A 
ATOM     11  C   UNL     1      10.456  13.021  19.849  0.00  0.00    +0.000 A 
ATOM     12  C   UNL     1       9.977  12.182  20.854  0.00  0.00    +0.000 A 
ATOM     13  C   UNL     1       9.480  10.914  20.539  0.00  0.00    +0.000 A 
ENDBRANCH   7   8
ENDBRANCH   6   7
ENDBRANCH   4   6
ENDBRANCH   1   3
BRANCH   1  14
ATOM     14  C   UNL     1       6.861   4.290  16.822  0.00  0.00    +0.000 C 
BRANCH  14  15
ATOM     15  C   UNL     1       5.578   3.809  16.139  0.00  0.00    +0.000 C 
BRANCH  15  16
ATOM     16  N   UNL     1       4.563   3.415  17.089  0.00  0.00    +0.000 N 
ATOM     17  C   UNL     1       3.720   4.308  17.691  0.00  0.00    +0.000 C 
ATOM     18  O   UNL     1       3.763   5.516  17.461  0.00  0.00    +0.000 OA
ATOM     19  N   UNL     1       2.809   3.751  18.573  0.00  0.00    +0.000 N 
ATOM     20  C   UNL     1       1.805   4.570  19.206  0.00  0.00    +0.000 C 
ATOM     21  C   UNL     1       1.310   3.739  20.370  0.00  0.00    +0.000 C 
ATOM     22  C   UNL     1       1.535   2.304  19.924  0.00  0.00    +0.000 C 
ATOM     23  C   UNL     1       2.699   2.415  18.973  0.00  0.00    +0.000 C 
ATOM     24  O   UNL     1       3.394   1.477  18.613  0.00  0.00    +0.000 OA
ATOM     25  H   UNL     1       4.580   2.465  17.457  0.00  0.00    +0.000 HD
ENDBRANCH  15  16
ENDBRANCH  14  15
ENDBRANCH   1  14
TORSDOF 7
ENDMDL
MODEL 7
REMARK VINA RESULT:      -7.4      1.239      1.502
REMARK  Name = 
REMARK  7 active torsions:
REMARK  status: ('A' for Active; 'I' for Inactive)
REMARK    1  A    between atoms: C_2  and  C_3
REMARK    2  A    between atoms: C_3  and  C_4
REMARK    3  A    between atoms: C_4  and  C_5
REMARK    4  A    between atoms: C_5  and  N_6
REMARK    5  A    between atoms: N_15  and  C_16
REMARK    6  A    between atoms: C_16  and  C_17
REMARK    7  A    between atoms: C_17  and  C_18
REMARK                            x       y       z     vdW  Elec       q    Type
REMARK                         _______ _______ _______ _____ _____    ______ ____
ROOT
ATOM      1  C   UNL     1       8.127   6.285  18.621  0.00  0.00    +0.000 C 
ENDROOT
BRANCH   1   3
ATOM      2  O   UNL     1       7.405   8.015  17.098  0.00  0.00    +0.000 OA
ATOM      3  C   UNL     1       8.045   7.716  18.094  0.00  0.00    +0.000 C 
ATOM      4  N   UNL     1       8.743   8.644  18.848  0.00  0.00    +0.000 N 
ATOM      5  H   UNL     1       9.145   8.360  19.729  0.00  0.00    +0.000 HD
BRANCH   4   6
ATOM      6  C   UNL     1       8.769  10.058  18.467  0.00  0.00    +0.000 C 
BRANCH   6   7
ATOM      7  C   UNL     1       9.787  10.883  19.268  0.00  0.00    +0.000 C 
BRANCH   7   8
ATOM      8  C   UNL     1      10.334  12.071  18.502  0.00  0.00    +0.000 A 
ATOM      9  C   UNL     1       9.613  13.273  18.459  0.00  0.00    +0.000 A 
ATOM     10  C   UNL     1      10.093  14.374  17.744  0.00  0.00    +0.000 A 
ATOM     11  C   UNL     1      11.308  14.293  17.069  0.00  0.00    +0.000 A 
ATOM     12  C   UNL     1      12.041  13.109  17.110  0.00  0.00    +0.000 A 
ATOM     13  C   UNL     1      11.562  12.005  17.822  0.00  0.00    +0.000 A 
ENDBRANCH   7   8
ENDBRANCH   6   7
ENDBRANCH   4   6
ENDBRANCH   1   3
BRANCH   1  14
ATOM     14  C   UNL     1       6.754   5.731  19.031  0.00  0.00    +0.000 C 
BRANCH  14  15
ATOM     15  C   UNL     1       6.427   4.430  18.295  0.00  0.00    +0.000 C 
BRANCH  15  16
ATOM     16  N   UNL     1       5.198   3.828  18.758  0.00  0.00    +0.000 N 
ATOM     17  C   UNL     1       3.999   4.000  18.122  0.00  0.00    +0.000 C 
ATOM     18  O   UNL     1       3.883   4.678  17.103  0.00  0.00    +0.000 OA
ATOM     19  N   UNL     1       2.927   3.347  18.707  0.00  0.00    +0.000 N 
ATOM     20  C   UNL     1       1.625   3.372  18.087  0.00  0.00    +0.000 C 
ATOM     21  C   UNL     1       0.670   2.951  19.183  0.00  0.00    +0.000 C 
ATOM     22  C   UNL     1       1.513   2.073  20.093  0.00  0.00    +0.000 C 
ATOM     23  C   UNL     1       2.908   2.607  19.895  0.00  0.00    +0.000 C 
ATOM     24  O   UNL     1       3.848   2.393  20.646  0.00  0.00    +0.000 OA
ATOM     25  H   UNL     1       5.181   3.400  19.683  0.00  0.00    +0.000 HD
ENDBRANCH  15  16
ENDBRANCH  14  15
ENDBRANCH   1  14
TORSDOF 7
ENDMDL
MODEL 8
REMARK VINA RESULT:      -7.4      1.314      1.755
REMARK  Name = 
REMARK  7 active torsions:
REMARK  status: ('A' for Active; 'I' for Inactive)
REMARK    1  A    between atoms: C_2  and  C_3
REMARK    2  A    between atoms: C_3  and  C_4
REMARK    3  A    between atoms: C_4  and  C_5
REMARK    4  A    between atoms: C_5  and  N_6
REMARK    5  A    between atoms: N_15  and  C_16
REMARK    6  A    between atoms: C_16  and  C_17
REMARK    7  A    between atoms: C_17  and  C_18
REMARK                            x       y       z     vdW  Elec       q    Type
REMARK                         _______ _______ _______ _____ _____    ______ ____
ROOT
ATOM      1  C   UNL     1       7.831   5.816  18.242  0.00  0.00    +0.000 C 
ENDROOT
BRANCH   1   3
ATOM      2  O   UNL     1       6.990   7.726  17.026  0.00  0.00    +0.000 OA
ATOM      3  C   UNL     1       7.734   7.300  17.896  0.00  0.00    +0.000 C 
ATOM      4  N   UNL     1       8.547   8.120  18.659  0.00  0.00    +0.000 N 
ATOM      5  H   UNL     1       9.043   7.727  19.446  0.00  0.00    +0.000 HD
BRANCH   4   6
ATOM      6  C   UNL     1       8.574   9.568  18.442  0.00  0.00    +0.000 C 
BRANCH   6   7
ATOM      7  C   UNL     1       9.253  10.340  19.584  0.00  0.00    +0.000 C 
BRANCH   7   8
ATOM      8  C   UNL     1      10.330  11.295  19.106  0.00  0.00    +0.000 A 
ATOM      9  C   UNL     1      11.337  11.716  19.987  0.00  0.00    +0.000 A 
ATOM     10  C   UNL     1      12.328  12.609  19.569  0.00  0.00    +0.000 A 
ATOM     11  C   UNL     1      12.333  13.086  18.262  0.00  0.00    +0.000 A 
ATOM     12  C   UNL     1      11.344  12.670  17.372  0.00  0.00    +0.000 A 
ATOM     13  C   UNL     1      10.350  11.779  17.788  0.00  0.00    +0.000 A 
ENDBRANCH   7   8
ENDBRANCH   6   7
ENDBRANCH   4   6
ENDBRANCH   1   3
BRANCH   1  14
ATOM     14  C   UNL     1       6.478   5.221  18.662  0.00  0.00    +0.000 C 
BRANCH  14  15
ATOM     15  C   UNL     1       5.463   5.262  17.517  0.00  0.00    +0.000 C 
BRANCH  15  16
ATOM     16  N   UNL     1       4.248   4.548  17.833  0.00  0.00    +0.000 N 
ATOM     17  C   UNL     1       3.467   4.849  18.916  0.00  0.00    +0.000 C 
ATOM     18  O   UNL     1       3.744   5.757  19.698  0.00  0.00    +0.000 OA
ATOM     19  N   UNL     1       2.338   4.060  19.061  0.00  0.00    +0.000 N 
ATOM     20  C   UNL     1       1.384   4.331  20.109  0.00  0.00    +0.000 C 
ATOM     21  C   UNL     1       0.566   3.062  20.218  0.00  0.00    +0.000 C 
ATOM     22  C   UNL     1       0.631   2.457  18.826  0.00  0.00    +0.000 C 
ATOM     23  C   UNL     1       1.946   2.961  18.290  0.00  0.00    +0.000 C 
ATOM     24  O   UNL     1       2.532   2.486  17.329  0.00  0.00    +0.000 OA
ATOM     25  H   UNL     1       4.047   3.681  17.337  0.00  0.00    +0.000 HD
ENDBRANCH  15  16
ENDBRANCH  14  15
ENDBRANCH   1  14
TORSDOF 7
ENDMDL
MODEL 9
REMARK VINA RESULT:      -7.3      3.978      6.765
REMARK  Name = 
REMARK  7 active torsions:
REMARK  status: ('A' for Active; 'I' for Inactive)
REMARK    1  A    between atoms: C_2  and  C_3
REMARK    2  A    between atoms: C_3  and  C_4
REMARK    3  A    between atoms: C_4  and  C_5
REMARK    4  A    between atoms: C_5  and  N_6
REMARK    5  A    between atoms: N_15  and  C_16
REMARK    6  A    between atoms: C_16  and  C_17
REMARK    7  A    between atoms: C_17  and  C_18
REMARK                            x       y       z     vdW  Elec       q    Type
REMARK                         _______ _______ _______ _____ _____    ______ ____
ROOT
ATOM      1  C   UNL     1       1.981   3.161  19.640  0.00  0.00    +0.000 C 
ENDROOT
BRANCH   1   3
ATOM      2  O   UNL     1       1.490   3.826  17.370  0.00  0.00    +0.000 OA
ATOM      3  C   UNL     1       2.334   3.632  18.231  0.00  0.00    +0.000 C 
ATOM      4  N   UNL     1       3.687   3.837  18.018  0.00  0.00    +0.000 N 
ATOM      5  H   UNL     1       4.322   3.785  18.801  0.00  0.00    +0.000 HD
BRANCH   4   6
ATOM      6  C   UNL     1       4.186   4.281  16.715  0.00  0.00    +0.000 C 
BRANCH   6   7
ATOM      7  C   UNL     1       5.699   4.078  16.544  0.00  0.00    +0.000 C 
BRANCH   7   8
ATOM      8  C   UNL     1       6.531   5.144  17.229  0.00  0.00    +0.000 A 
ATOM      9  C   UNL     1       7.216   4.847  18.416  0.00  0.00    +0.000 A 
ATOM     10  C   UNL     1       7.974   5.822  19.071  0.00  0.00    +0.000 A 
ATOM     11  C   UNL     1       8.068   7.106  18.543  0.00  0.00    +0.000 A 
ATOM     12  C   UNL     1       7.401   7.415  17.359  0.00  0.00    +0.000 A 
ATOM     13  C   UNL     1       6.640   6.443  16.703  0.00  0.00    +0.000 A 
ENDBRANCH   7   8
ENDBRANCH   6   7
ENDBRANCH   4   6
ENDBRANCH   1   3
BRANCH   1  14
ATOM     14  C   UNL     1       1.232   4.232  20.447  0.00  0.00    +0.000 C 
BRANCH  14  15
ATOM     15  C   UNL     1       2.180   5.319  20.960  0.00  0.00    +0.000 C 
BRANCH  15  16
ATOM     16  N   UNL     1       2.114   6.525  20.167  0.00  0.00    +0.000 N 
ATOM     17  C   UNL     1       1.469   7.656  20.585  0.00  0.00    +0.000 C 
ATOM     18  O   UNL     1       0.900   7.729  21.673  0.00  0.00    +0.000 OA
ATOM     19  N   UNL     1       1.510   8.717  19.695  0.00  0.00    +0.000 N 
ATOM     20  C   UNL     1       0.946   9.996  20.051  0.00  0.00    +0.000 C 
ATOM     21  C   UNL     1       0.794  10.727  18.735  0.00  0.00    +0.000 C 
ATOM     22  C   UNL     1       1.880  10.135  17.853  0.00  0.00    +0.000 C 
ATOM     23  C   UNL     1       2.059   8.746  18.409  0.00  0.00    +0.000 C 
ATOM     24  O   UNL     1       2.614   7.829  17.822  0.00  0.00    +0.000 OA
ATOM     25  H   UNL     1       2.409   6.487  19.192  0.00  0.00    +0.000 HD
ENDBRANCH  15  16
ENDBRANCH  14  15
ENDBRANCH   1  14
TORSDOF 7
ENDMDL
