MODEL 1
REMARK VINA RESULT:      -8.1      0.000      0.000
REMARK  Name = 
REMARK  8 active torsions:
REMARK  status: ('A' for Active; 'I' for Inactive)
REMARK    1  A    between atoms: C_1  and  C_2
REMARK    2  A    between atoms: C_2  and  O_3
REMARK    3  A    between atoms: O_3  and  C_4
REMARK    4  A    between atoms: C_4  and  C_5
REMARK    5  A    between atoms: N_7  and  C_8
REMARK    6  A    between atoms: C_10  and  C_11
REMARK    7  A    between atoms: C_17  and  O_18
REMARK    8  A    between atoms: O_18  and  C_19
REMARK                            x       y       z     vdW  Elec       q    Type
REMARK                         _______ _______ _______ _____ _____    ______ ____
ROOT
ATOM      1  C   UNL     1       3.710   4.550  17.503  0.00  0.00    +0.000 A 
ATOM      2  C   UNL     1       4.364   4.136  16.332  0.00  0.00    +0.000 A 
ATOM      3  C   UNL     1       5.283   4.956  15.655  0.00  0.00    +0.000 A 
ATOM      4  C   UNL     1       5.521   6.244  16.139  0.00  0.00    +0.000 A 
ATOM      5  C   UNL     1       4.852   6.694  17.277  0.00  0.00    +0.000 A 
ATOM      6  C   UNL     1       3.943   5.864  17.953  0.00  0.00    +0.000 A 
ENDROOT
BRANCH   1   9
ATOM      7  C   UNL     1       1.468   3.582  18.078  0.00  0.00    +0.000 C 
ATOM      8  O   UNL     1       0.781   4.135  17.226  0.00  0.00    +0.000 OA
ATOM      9  N   UNL     1       2.848   3.668  18.204  0.00  0.00    +0.000 N 
ATOM     10  H   UNL     1       3.282   2.997  18.827  0.00  0.00    +0.000 HD
BRANCH   7  11
ATOM     11  C   UNL     1       0.813   2.696  19.142  0.00  0.00    +0.000 C 
BRANCH  11  12
ATOM     12  O   UNL     1       1.705   2.154  20.107  0.00  0.00    +0.000 OA
BRANCH  12  14
ATOM     13  C   UNL     1       2.221   3.972  21.582  0.00  0.00    +0.000 C 
ATOM     14  C   UNL     1       1.462   2.668  21.420  0.00  0.00    +0.000 C 
ENDBRANCH  12  14
ENDBRANCH  11  12
ENDBRANCH   7  11
ENDBRANCH   1   9
BRANCH   3  15
ATOM     15  C   UNL     1       6.029   4.441  14.447  0.00  0.00    +0.000 C 
ATOM     16  F   UNL     1       6.722   3.291  14.674  0.00  0.00    +0.000 F 
ATOM     17  F   UNL     1       5.201   4.175  13.400  0.00  0.00    +0.000 F 
ATOM     18  F   UNL     1       6.940   5.340  13.982  0.00  0.00    +0.000 F 
ENDBRANCH   3  15
BRANCH   6  19
ATOM     19  O   UNL     1       3.525   6.383  19.158  0.00  0.00    +0.000 OA
BRANCH  19  20
ATOM     20  C   UNL     1       2.582   7.375  19.247  0.00  0.00    +0.000 A 
ATOM     21  C   UNL     1       2.381   8.068  18.046  0.00  0.00    +0.000 A 
ATOM     22  C   UNL     1       1.500   9.146  17.986  0.00  0.00    +0.000 A 
ATOM     23  C   UNL     1       0.805   9.529  19.129  0.00  0.00    +0.000 A 
ATOM     24  C   UNL     1       0.971   8.808  20.313  0.00  0.00    +0.000 A 
ATOM     25 BR   UNL     1      -0.005   9.320  21.849  0.00  0.00    +0.000 Br
ATOM     26  C   UNL     1       1.845   7.719  20.379  0.00  0.00    +0.000 A 
ENDBRANCH  19  20
ENDBRANCH   6  19
TORSDOF 7
ENDMDL
MODEL 2
REMARK VINA RESULT:      -7.8      4.411      6.191
REMARK  Name = 
REMARK  8 active torsions:
REMARK  status: ('A' for Active; 'I' for Inactive)
REMARK    1  A    between atoms: C_1  and  C_2
REMARK    2  A    between atoms: C_2  and  O_3
REMARK    3  A    between atoms: O_3  and  C_4
REMARK    4  A    between atoms: C_4  and  C_5
REMARK    5  A    between atoms: N_7  and  C_8
REMARK    6  A    between atoms: C_10  and  C_11
REMARK    7  A    between atoms: C_17  and  O_18
REMARK    8  A    between atoms: O_18  and  C_19
REMARK                            x       y       z     vdW  Elec       q    Type
REMARK                         _______ _______ _______ _____ _____    ______ ____
ROOT
ATOM      1  C   UNL     1       2.287   6.783  19.798  0.00  0.00    +0.000 A 
ATOM      2  C   UNL     1       1.696   7.893  20.423  0.00  0.00    +0.000 A 
ATOM      3  C   UNL     1       1.321   9.044  19.711  0.00  0.00    +0.000 A 
ATOM      4  C   UNL     1       1.585   9.106  18.340  0.00  0.00    +0.000 A 
ATOM      5  C   UNL     1       2.211   8.034  17.704  0.00  0.00    +0.000 A 
ATOM      6  C   UNL     1       2.573   6.882  18.422  0.00  0.00    +0.000 A 
ENDROOT
BRANCH   1   9
ATOM      7  C   UNL     1       1.747   4.515  20.724  0.00  0.00    +0.000 C 
ATOM      8  O   UNL     1       0.680   4.310  20.156  0.00  0.00    +0.000 OA
ATOM      9  N   UNL     1       2.583   5.607  20.533  0.00  0.00    +0.000 N 
ATOM     10  H   UNL     1       3.515   5.529  20.923  0.00  0.00    +0.000 HD
BRANCH   7  11
ATOM     11  C   UNL     1       2.274   3.517  21.759  0.00  0.00    +0.000 C 
BRANCH  11  12
ATOM     12  O   UNL     1       2.716   2.275  21.228  0.00  0.00    +0.000 OA
BRANCH  12  14
ATOM     13  C   UNL     1       3.715   2.016  19.065  0.00  0.00    +0.000 C 
ATOM     14  C   UNL     1       3.950   2.399  20.514  0.00  0.00    +0.000 C 
ENDBRANCH  12  14
ENDBRANCH  11  12
ENDBRANCH   7  11
ENDBRANCH   1   9
BRANCH   3  15
ATOM     15  C   UNL     1       0.608  10.181  20.405  0.00  0.00    +0.000 C 
ATOM     16  F   UNL     1       0.653  10.113  21.765  0.00  0.00    +0.000 F 
ATOM     17  F   UNL     1       1.128  11.396  20.076  0.00  0.00    +0.000 F 
ATOM     18  F   UNL     1      -0.712  10.239  20.077  0.00  0.00    +0.000 F 
ENDBRANCH   3  15
BRANCH   6  19
ATOM     19  O   UNL     1       2.994   5.848  17.616  0.00  0.00    +0.000 OA
BRANCH  19  20
ATOM     20  C   UNL     1       4.317   5.522  17.465  0.00  0.00    +0.000 A 
ATOM     21  C   UNL     1       4.588   4.798  16.298  0.00  0.00    +0.000 A 
ATOM     22  C   UNL     1       5.875   4.337  16.029  0.00  0.00    +0.000 A 
ATOM     23  C   UNL     1       6.904   4.611  16.926  0.00  0.00    +0.000 A 
ATOM     24  C   UNL     1       6.642   5.374  18.065  0.00  0.00    +0.000 A 
ATOM     25 BR   UNL     1       8.056   5.766  19.257  0.00  0.00    +0.000 Br
ATOM     26  C   UNL     1       5.355   5.848  18.336  0.00  0.00    +0.000 A 
ENDBRANCH  19  20
ENDBRANCH   6  19
TORSDOF 7
ENDMDL
MODEL 3
REMARK VINA RESULT:      -7.6      4.571      6.318
REMARK  Name = 
REMARK  8 active torsions:
REMARK  status: ('A' for Active; 'I' for Inactive)
REMARK    1  A    between atoms: C_1  and  C_2
REMARK    2  A    between atoms: C_2  and  O_3
REMARK    3  A    between atoms: O_3  and  C_4
REMARK    4  A    between atoms: C_4  and  C_5
REMARK    5  A    between atoms: N_7  and  C_8
REMARK    6  A    between atoms: C_10  and  C_11
REMARK    7  A    between atoms: C_17  and  O_18
REMARK    8  A    between atoms: O_18  and  C_19
REMARK                            x       y       z     vdW  Elec       q    Type
REMARK                         _______ _______ _______ _____ _____    ______ ____
ROOT
ATOM      1  C   UNL     1       2.323   6.693  19.862  0.00  0.00    +0.000 A 
ATOM      2  C   UNL     1       1.726   7.823  20.446  0.00  0.00    +0.000 A 
ATOM      3  C   UNL     1       1.410   8.973  19.702  0.00  0.00    +0.000 A 
ATOM      4  C   UNL     1       1.740   9.011  18.346  0.00  0.00    +0.000 A 
ATOM      5  C   UNL     1       2.372   7.919  17.753  0.00  0.00    +0.000 A 
ATOM      6  C   UNL     1       2.675   6.769  18.501  0.00  0.00    +0.000 A 
ENDROOT
BRANCH   1   9
ATOM      7  C   UNL     1       1.723   4.417  20.728  0.00  0.00    +0.000 C 
ATOM      8  O   UNL     1       0.723   4.197  20.053  0.00  0.00    +0.000 OA
ATOM      9  N   UNL     1       2.557   5.521  20.625  0.00  0.00    +0.000 N 
ATOM     10  H   UNL     1       3.446   5.456  21.109  0.00  0.00    +0.000 HD
BRANCH   7  11
ATOM     11  C   UNL     1       2.154   3.425  21.813  0.00  0.00    +0.000 C 
BRANCH  11  12
ATOM     12  O   UNL     1       2.797   2.251  21.335  0.00  0.00    +0.000 OA
BRANCH  12  14
ATOM     13  C   UNL     1       3.654   2.016  19.109  0.00  0.00    +0.000 C 
ATOM     14  C   UNL     1       3.923   2.550  20.503  0.00  0.00    +0.000 C 
ENDBRANCH  12  14
ENDBRANCH  11  12
ENDBRANCH   7  11
ENDBRANCH   1   9
BRANCH   3  15
ATOM     15  C   UNL     1       0.691  10.133  20.349  0.00  0.00    +0.000 C 
ATOM     16  F   UNL     1      -0.661   9.977  20.417  0.00  0.00    +0.000 F 
ATOM     17  F   UNL     1       1.104  10.353  21.627  0.00  0.00    +0.000 F 
ATOM     18  F   UNL     1       0.897  11.303  19.684  0.00  0.00    +0.000 F 
ENDBRANCH   3  15
BRANCH   6  19
ATOM     19  O   UNL     1       3.111   5.716  17.727  0.00  0.00    +0.000 OA
BRANCH  19  20
ATOM     20  C   UNL     1       4.433   5.532  17.410  0.00  0.00    +0.000 A 
ATOM     21  C   UNL     1       5.296   5.645  18.507  0.00  0.00    +0.000 A 
ATOM     22  C   UNL     1       6.675   5.546  18.340  0.00  0.00    +0.000 A 
ATOM     23  C   UNL     1       7.199   5.320  17.070  0.00  0.00    +0.000 A 
ATOM     24  C   UNL     1       6.334   5.160  15.985  0.00  0.00    +0.000 A 
ATOM     25 BR   UNL     1       7.059   4.822  14.272  0.00  0.00    +0.000 Br
ATOM     26  C   UNL     1       4.949   5.249  16.146  0.00  0.00    +0.000 A 
ENDBRANCH  19  20
ENDBRANCH   6  19
TORSDOF 7
ENDMDL
MODEL 4
REMARK VINA RESULT:      -7.6      1.710      2.422
REMARK  Name = 
REMARK  8 active torsions:
REMARK  status: ('A' for Active; 'I' for Inactive)
REMARK    1  A    between atoms: C_1  and  C_2
REMARK    2  A    between atoms: C_2  and  O_3
REMARK    3  A    between atoms: O_3  and  C_4
REMARK    4  A    between atoms: C_4  and  C_5
REMARK    5  A    between atoms: N_7  and  C_8
REMARK    6  A    between atoms: C_10  and  C_11
REMARK    7  A    between atoms: C_17  and  O_18
REMARK    8  A    between atoms: O_18  and  C_19
REMARK                            x       y       z     vdW  Elec       q    Type
REMARK                         _______ _______ _______ _____ _____    ______ ____
ROOT
ATOM      1  C   UNL     1       4.961   3.775  16.336  0.00  0.00    +0.000 A 
ATOM      2  C   UNL     1       5.186   3.327  15.024  0.00  0.00    +0.000 A 
ATOM      3  C   UNL     1       5.777   4.143  14.044  0.00  0.00    +0.000 A 
ATOM      4  C   UNL     1       6.112   5.458  14.374  0.00  0.00    +0.000 A 
ATOM      5  C   UNL     1       5.859   5.939  15.658  0.00  0.00    +0.000 A 
ATOM      6  C   UNL     1       5.277   5.114  16.634  0.00  0.00    +0.000 A 
ENDROOT
BRANCH   1   9
ATOM      7  C   UNL     1       3.096   2.744  17.661  0.00  0.00    +0.000 C 
ATOM      8  O   UNL     1       2.135   3.210  17.059  0.00  0.00    +0.000 OA
ATOM      9  N   UNL     1       4.433   2.901  17.320  0.00  0.00    +0.000 N 
ATOM     10  H   UNL     1       5.089   2.291  17.795  0.00  0.00    +0.000 HD
BRANCH   7  11
ATOM     11  C   UNL     1       2.883   1.898  18.920  0.00  0.00    +0.000 C 
BRANCH  11  12
ATOM     12  O   UNL     1       1.539   1.829  19.378  0.00  0.00    +0.000 OA
BRANCH  12  14
ATOM     13  C   UNL     1       2.461   2.608  21.449  0.00  0.00    +0.000 C 
ATOM     14  C   UNL     1       1.297   2.707  20.482  0.00  0.00    +0.000 C 
ENDBRANCH  12  14
ENDBRANCH  11  12
ENDBRANCH   7  11
ENDBRANCH   1   9
BRANCH   3  15
ATOM     15  C   UNL     1       6.081   3.597  12.669  0.00  0.00    +0.000 C 
ATOM     16  F   UNL     1       5.025   3.644  11.809  0.00  0.00    +0.000 F 
ATOM     17  F   UNL     1       7.091   4.273  12.054  0.00  0.00    +0.000 F 
ATOM     18  F   UNL     1       6.473   2.294  12.707  0.00  0.00    +0.000 F 
ENDBRANCH   3  15
BRANCH   6  19
ATOM     19  O   UNL     1       5.280   5.675  17.892  0.00  0.00    +0.000 OA
BRANCH  19  20
ATOM     20  C   UNL     1       4.175   6.282  18.432  0.00  0.00    +0.000 A 
ATOM     21  C   UNL     1       3.694   5.651  19.585  0.00  0.00    +0.000 A 
ATOM     22  C   UNL     1       2.540   6.109  20.218  0.00  0.00    +0.000 A 
ATOM     23  C   UNL     1       1.868   7.214  19.703  0.00  0.00    +0.000 A 
ATOM     24  C   UNL     1       2.376   7.871  18.581  0.00  0.00    +0.000 A 
ATOM     25 BR   UNL     1       1.469   9.390  17.913  0.00  0.00    +0.000 Br
ATOM     26  C   UNL     1       3.537   7.423  17.947  0.00  0.00    +0.000 A 
ENDBRANCH  19  20
ENDBRANCH   6  19
TORSDOF 7
ENDMDL
MODEL 5
REMARK VINA RESULT:      -7.6      4.511      6.259
REMARK  Name = 
REMARK  8 active torsions:
REMARK  status: ('A' for Active; 'I' for Inactive)
REMARK    1  A    between atoms: C_1  and  C_2
REMARK    2  A    between atoms: C_2  and  O_3
REMARK    3  A    between atoms: O_3  and  C_4
REMARK    4  A    between atoms: C_4  and  C_5
REMARK    5  A    between atoms: N_7  and  C_8
REMARK    6  A    between atoms: C_10  and  C_11
REMARK    7  A    between atoms: C_17  and  O_18
REMARK    8  A    between atoms: O_18  and  C_19
REMARK                            x       y       z     vdW  Elec       q    Type
REMARK                         _______ _______ _______ _____ _____    ______ ____
ROOT
ATOM      1  C   UNL     1       2.209   6.968  19.827  0.00  0.00    +0.000 A 
ATOM      2  C   UNL     1       1.538   8.006  20.494  0.00  0.00    +0.000 A 
ATOM      3  C   UNL     1       1.109   9.169  19.833  0.00  0.00    +0.000 A 
ATOM      4  C   UNL     1       1.398   9.318  18.474  0.00  0.00    +0.000 A 
ATOM      5  C   UNL     1       2.100   8.321  17.799  0.00  0.00    +0.000 A 
ATOM      6  C   UNL     1       2.517   7.156  18.465  0.00  0.00    +0.000 A 
ENDROOT
BRANCH   1   9
ATOM      7  C   UNL     1       1.747   4.669  20.718  0.00  0.00    +0.000 C 
ATOM      8  O   UNL     1       0.647   4.470  20.212  0.00  0.00    +0.000 OA
ATOM      9  N   UNL     1       2.560   5.774  20.508  0.00  0.00    +0.000 N 
ATOM     10  H   UNL     1       3.515   5.694  20.835  0.00  0.00    +0.000 HD
BRANCH   7  11
ATOM     11  C   UNL     1       2.346   3.647  21.689  0.00  0.00    +0.000 C 
BRANCH  11  12
ATOM     12  O   UNL     1       2.689   2.395  21.109  0.00  0.00    +0.000 OA
BRANCH  12  14
ATOM     13  C   UNL     1       4.200   2.633  19.264  0.00  0.00    +0.000 C 
ATOM     14  C   UNL     1       4.070   2.326  20.744  0.00  0.00    +0.000 C 
ENDBRANCH  12  14
ENDBRANCH  11  12
ENDBRANCH   7  11
ENDBRANCH   1   9
BRANCH   3  15
ATOM     15  C   UNL     1       0.315  10.223  20.568  0.00  0.00    +0.000 C 
ATOM     16  F   UNL     1      -0.861  10.550  19.964  0.00  0.00    +0.000 F 
ATOM     17  F   UNL     1      -0.010   9.839  21.833  0.00  0.00    +0.000 F 
ATOM     18  F   UNL     1       1.004  11.390  20.698  0.00  0.00    +0.000 F 
ENDBRANCH   3  15
BRANCH   6  19
ATOM     19  O   UNL     1       3.016   6.193  17.617  0.00  0.00    +0.000 OA
BRANCH  19  20
ATOM     20  C   UNL     1       4.341   6.132  17.268  0.00  0.00    +0.000 A 
ATOM     21  C   UNL     1       4.666   5.015  16.489  0.00  0.00    +0.000 A 
ATOM     22  C   UNL     1       5.984   4.775  16.105  0.00  0.00    +0.000 A 
ATOM     23  C   UNL     1       6.984   5.664  16.490  0.00  0.00    +0.000 A 
ATOM     24  C   UNL     1       6.650   6.802  17.227  0.00  0.00    +0.000 A 
ATOM     25 BR   UNL     1       8.015   8.016  17.714  0.00  0.00    +0.000 Br
ATOM     26  C   UNL     1       5.330   7.054  17.607  0.00  0.00    +0.000 A 
ENDBRANCH  19  20
ENDBRANCH   6  19
TORSDOF 7
ENDMDL
MODEL 6
REMARK VINA RESULT:      -7.5      4.802      7.777
REMARK  Name = 
REMARK  8 active torsions:
REMARK  status: ('A' for Active; 'I' for Inactive)
REMARK    1  A    between atoms: C_1  and  C_2
REMARK    2  A    between atoms: C_2  and  O_3
REMARK    3  A    between atoms: O_3  and  C_4
REMARK    4  A    between atoms: C_4  and  C_5
REMARK    5  A    between atoms: N_7  and  C_8
REMARK    6  A    between atoms: C_10  and  C_11
REMARK    7  A    between atoms: C_17  and  O_18
REMARK    8  A    between atoms: O_18  and  C_19
REMARK                            x       y       z     vdW  Elec       q    Type
REMARK                         _______ _______ _______ _____ _____    ______ ____
ROOT
ATOM      1  C   UNL     1       5.335   5.968  17.404  0.00  0.00    +0.000 A 
ATOM      2  C   UNL     1       4.206   6.044  18.236  0.00  0.00    +0.000 A 
ATOM      3  C   UNL     1       3.374   4.937  18.475  0.00  0.00    +0.000 A 
ATOM      4  C   UNL     1       3.655   3.730  17.830  0.00  0.00    +0.000 A 
ATOM      5  C   UNL     1       4.746   3.641  16.966  0.00  0.00    +0.000 A 
ATOM      6  C   UNL     1       5.578   4.750  16.740  0.00  0.00    +0.000 A 
ENDROOT
BRANCH   1   9
ATOM      7  C   UNL     1       7.392   7.311  17.913  0.00  0.00    +0.000 C 
ATOM      8  O   UNL     1       7.987   6.512  18.628  0.00  0.00    +0.000 OA
ATOM      9  N   UNL     1       6.196   7.083  17.246  0.00  0.00    +0.000 N 
ATOM     10  H   UNL     1       5.943   7.765  16.540  0.00  0.00    +0.000 HD
BRANCH   7  11
ATOM     11  C   UNL     1       7.959   8.716  17.688  0.00  0.00    +0.000 C 
BRANCH  11  12
ATOM     12  O   UNL     1       8.814   9.193  18.719  0.00  0.00    +0.000 OA
BRANCH  12  14
ATOM     13  C   UNL     1       9.667  11.128  19.846  0.00  0.00    +0.000 C 
ATOM     14  C   UNL     1       9.190  10.559  18.523  0.00  0.00    +0.000 C 
ENDBRANCH  12  14
ENDBRANCH  11  12
ENDBRANCH   7  11
ENDBRANCH   1   9
BRANCH   3  15
ATOM     15  C   UNL     1       2.219   5.037  19.444  0.00  0.00    +0.000 C 
ATOM     16  F   UNL     1       1.098   4.378  19.038  0.00  0.00    +0.000 F 
ATOM     17  F   UNL     1       2.525   4.530  20.669  0.00  0.00    +0.000 F 
ATOM     18  F   UNL     1       1.837   6.326  19.658  0.00  0.00    +0.000 F 
ENDBRANCH   3  15
BRANCH   6  19
ATOM     19  O   UNL     1       6.714   4.441  16.025  0.00  0.00    +0.000 OA
BRANCH  19  20
ATOM     20  C   UNL     1       6.727   4.372  14.656  0.00  0.00    +0.000 A 
ATOM     21  C   UNL     1       7.774   5.091  14.067  0.00  0.00    +0.000 A 
ATOM     22  C   UNL     1       7.890   5.173  12.681  0.00  0.00    +0.000 A 
ATOM     23  C   UNL     1       6.962   4.520  11.875  0.00  0.00    +0.000 A 
ATOM     24  C   UNL     1       5.947   3.763  12.464  0.00  0.00    +0.000 A 
ATOM     25 BR   UNL     1       4.713   2.856  11.355  0.00  0.00    +0.000 Br
ATOM     26  C   UNL     1       5.830   3.670  13.853  0.00  0.00    +0.000 A 
ENDBRANCH  19  20
ENDBRANCH   6  19
TORSDOF 7
ENDMDL
MODEL 7
REMARK VINA RESULT:      -7.5      3.082      5.056
REMARK  Name = 
REMARK  8 active torsions:
REMARK  status: ('A' for Active; 'I' for Inactive)
REMARK    1  A    between atoms: C_1  and  C_2
REMARK    2  A    between atoms: C_2  and  O_3
REMARK    3  A    between atoms: O_3  and  C_4
REMARK    4  A    between atoms: C_4  and  C_5
REMARK    5  A    between atoms: N_7  and  C_8
REMARK    6  A    between atoms: C_10  and  C_11
REMARK    7  A    between atoms: C_17  and  O_18
REMARK    8  A    between atoms: O_18  and  C_19
REMARK                            x       y       z     vdW  Elec       q    Type
REMARK                         _______ _______ _______ _____ _____    ______ ____
ROOT
ATOM      1  C   UNL     1       4.352   5.435  18.204  0.00  0.00    +0.000 A 
ATOM      2  C   UNL     1       4.170   4.042  18.210  0.00  0.00    +0.000 A 
ATOM      3  C   UNL     1       2.907   3.452  18.387  0.00  0.00    +0.000 A 
ATOM      4  C   UNL     1       1.801   4.276  18.608  0.00  0.00    +0.000 A 
ATOM      5  C   UNL     1       1.964   5.661  18.650  0.00  0.00    +0.000 A 
ATOM      6  C   UNL     1       3.228   6.243  18.462  0.00  0.00    +0.000 A 
ENDROOT
BRANCH   1   9
ATOM      7  C   UNL     1       6.745   5.936  18.768  0.00  0.00    +0.000 C 
ATOM      8  O   UNL     1       6.867   5.247  19.775  0.00  0.00    +0.000 OA
ATOM      9  N   UNL     1       5.627   5.998  17.946  0.00  0.00    +0.000 N 
ATOM     10  H   UNL     1       5.758   6.455  17.050  0.00  0.00    +0.000 HD
BRANCH   7  11
ATOM     11  C   UNL     1       7.890   6.844  18.310  0.00  0.00    +0.000 C 
BRANCH  11  12
ATOM     12  O   UNL     1       7.571   7.724  17.241  0.00  0.00    +0.000 OA
BRANCH  12  14
ATOM     13  C   UNL     1       8.772   9.418  18.436  0.00  0.00    +0.000 C 
ATOM     14  C   UNL     1       7.510   9.090  17.661  0.00  0.00    +0.000 C 
ENDBRANCH  12  14
ENDBRANCH  11  12
ENDBRANCH   7  11
ENDBRANCH   1   9
BRANCH   3  15
ATOM     15  C   UNL     1       2.739   1.953  18.300  0.00  0.00    +0.000 C 
ATOM     16  F   UNL     1       2.437   1.502  17.051  0.00  0.00    +0.000 F 
ATOM     17  F   UNL     1       3.864   1.283  18.675  0.00  0.00    +0.000 F 
ATOM     18  F   UNL     1       1.746   1.497  19.112  0.00  0.00    +0.000 F 
ENDBRANCH   3  15
BRANCH   6  19
ATOM     19  O   UNL     1       3.182   7.614  18.334  0.00  0.00    +0.000 OA
BRANCH  19  20
ATOM     20  C   UNL     1       2.131   8.363  18.798  0.00  0.00    +0.000 A 
ATOM     21  C   UNL     1       1.498   9.120  17.805  0.00  0.00    +0.000 A 
ATOM     22  C   UNL     1       0.452   9.982  18.126  0.00  0.00    +0.000 A 
ATOM     23  C   UNL     1       0.024  10.080  19.447  0.00  0.00    +0.000 A 
ATOM     24  C   UNL     1       0.625   9.289  20.428  0.00  0.00    +0.000 A 
ATOM     25 BR   UNL     1       0.011   9.410  22.212  0.00  0.00    +0.000 Br
ATOM     26  C   UNL     1       1.668   8.416  20.112  0.00  0.00    +0.000 A 
ENDBRANCH  19  20
ENDBRANCH   6  19
TORSDOF 7
ENDMDL
MODEL 8
REMARK VINA RESULT:      -7.5      2.914      4.979
REMARK  Name = 
REMARK  8 active torsions:
REMARK  status: ('A' for Active; 'I' for Inactive)
REMARK    1  A    between atoms: C_1  and  C_2
REMARK    2  A    between atoms: C_2  and  O_3
REMARK    3  A    between atoms: O_3  and  C_4
REMARK    4  A    between atoms: C_4  and  C_5
REMARK    5  A    between atoms: N_7  and  C_8
REMARK    6  A    between atoms: C_10  and  C_11
REMARK    7  A    between atoms: C_17  and  O_18
REMARK    8  A    between atoms: O_18  and  C_19
REMARK                            x       y       z     vdW  Elec       q    Type
REMARK                         _______ _______ _______ _____ _____    ______ ____
ROOT
ATOM      1  C   UNL     1       3.544   5.263  19.268  0.00  0.00    +0.000 A 
ATOM      2  C   UNL     1       3.199   3.960  18.873  0.00  0.00    +0.000 A 
ATOM      3  C   UNL     1       1.950   3.391  19.173  0.00  0.00    +0.000 A 
ATOM      4  C   UNL     1       1.035   4.131  19.927  0.00  0.00    +0.000 A 
ATOM      5  C   UNL     1       1.371   5.411  20.367  0.00  0.00    +0.000 A 
ATOM      6  C   UNL     1       2.618   5.976  20.054  0.00  0.00    +0.000 A 
ENDROOT
BRANCH   1   9
ATOM      7  C   UNL     1       5.118   6.324  17.627  0.00  0.00    +0.000 C 
ATOM      8  O   UNL     1       4.349   6.496  16.687  0.00  0.00    +0.000 OA
ATOM      9  N   UNL     1       4.783   5.834  18.882  0.00  0.00    +0.000 N 
ATOM     10  H   UNL     1       5.486   5.943  19.605  0.00  0.00    +0.000 HD
BRANCH   7  11
ATOM     11  C   UNL     1       6.606   6.654  17.477  0.00  0.00    +0.000 C 
BRANCH  11  12
ATOM     12  O   UNL     1       7.226   6.125  16.313  0.00  0.00    +0.000 OA
BRANCH  12  14
ATOM     13  C   UNL     1       6.598   4.309  14.881  0.00  0.00    +0.000 C 
ATOM     14  C   UNL     1       7.130   4.699  16.247  0.00  0.00    +0.000 C 
ENDBRANCH  12  14
ENDBRANCH  11  12
ENDBRANCH   7  11
ENDBRANCH   1   9
BRANCH   3  15
ATOM     15  C   UNL     1       1.585   2.020  18.657  0.00  0.00    +0.000 C 
ATOM     16  F   UNL     1       2.201   1.687  17.488  0.00  0.00    +0.000 F 
ATOM     17  F   UNL     1       1.904   1.032  19.539  0.00  0.00    +0.000 F 
ATOM     18  F   UNL     1       0.250   1.895  18.424  0.00  0.00    +0.000 F 
ENDBRANCH   3  15
BRANCH   6  19
ATOM     19  O   UNL     1       2.711   7.309  20.389  0.00  0.00    +0.000 OA
BRANCH  19  20
ATOM     20  C   UNL     1       1.886   8.264  19.853  0.00  0.00    +0.000 A 
ATOM     21  C   UNL     1       1.980   8.369  18.460  0.00  0.00    +0.000 A 
ATOM     22  C   UNL     1       1.252   9.336  17.769  0.00  0.00    +0.000 A 
ATOM     23  C   UNL     1       0.413  10.195  18.471  0.00  0.00    +0.000 A 
ATOM     24  C   UNL     1       0.283  10.057  19.855  0.00  0.00    +0.000 A 
ATOM     25 BR   UNL     1      -0.886  11.211  20.791  0.00  0.00    +0.000 Br
ATOM     26  C   UNL     1       1.003   9.084  20.553  0.00  0.00    +0.000 A 
ENDBRANCH  19  20
ENDBRANCH   6  19
TORSDOF 7
ENDMDL
MODEL 9
REMARK VINA RESULT:      -7.4      3.050      5.089
REMARK  Name = 
REMARK  8 active torsions:
REMARK  status: ('A' for Active; 'I' for Inactive)
REMARK    1  A    between atoms: C_1  and  C_2
REMARK    2  A    between atoms: C_2  and  O_3
REMARK    3  A    between atoms: O_3  and  C_4
REMARK    4  A    between atoms: C_4  and  C_5
REMARK    5  A    between atoms: N_7  and  C_8
REMARK    6  A    between atoms: C_10  and  C_11
REMARK    7  A    between atoms: C_17  and  O_18
REMARK    8  A    between atoms: O_18  and  C_19
REMARK                            x       y       z     vdW  Elec       q    Type
REMARK                         _______ _______ _______ _____ _____    ______ ____
ROOT
ATOM      1  C   UNL     1       4.370   5.669  18.319  0.00  0.00    +0.000 A 
ATOM      2  C   UNL     1       4.350   4.271  18.455  0.00  0.00    +0.000 A 
ATOM      3  C   UNL     1       3.155   3.549  18.616  0.00  0.00    +0.000 A 
ATOM      4  C   UNL     1       1.949   4.249  18.687  0.00  0.00    +0.000 A 
ATOM      5  C   UNL     1       1.946   5.641  18.597  0.00  0.00    +0.000 A 
ATOM      6  C   UNL     1       3.145   6.354  18.426  0.00  0.00    +0.000 A 
ENDROOT
BRANCH   1   9
ATOM      7  C   UNL     1       6.148   6.648  16.845  0.00  0.00    +0.000 C 
ATOM      8  O   UNL     1       5.611   6.505  15.752  0.00  0.00    +0.000 OA
ATOM      9  N   UNL     1       5.586   6.357  18.081  0.00  0.00    +0.000 N 
ATOM     10  H   UNL     1       6.078   6.719  18.890  0.00  0.00    +0.000 HD
BRANCH   7  11
ATOM     11  C   UNL     1       7.577   7.192  16.937  0.00  0.00    +0.000 C 
BRANCH  11  12
ATOM     12  O   UNL     1       7.886   7.870  18.148  0.00  0.00    +0.000 OA
BRANCH  12  14
ATOM     13  C   UNL     1       9.107   9.747  19.002  0.00  0.00    +0.000 C 
ATOM     14  C   UNL     1       8.138   9.263  17.940  0.00  0.00    +0.000 C 
ENDBRANCH  12  14
ENDBRANCH  11  12
ENDBRANCH   7  11
ENDBRANCH   1   9
BRANCH   3  15
ATOM     15  C   UNL     1       3.169   2.040  18.672  0.00  0.00    +0.000 C 
ATOM     16  F   UNL     1       3.269   1.442  17.452  0.00  0.00    +0.000 F 
ATOM     17  F   UNL     1       4.210   1.558  19.407  0.00  0.00    +0.000 F 
ATOM     18  F   UNL     1       2.042   1.535  19.245  0.00  0.00    +0.000 F 
ENDBRANCH   3  15
BRANCH   6  19
ATOM     19  O   UNL     1       2.949   7.690  18.157  0.00  0.00    +0.000 OA
BRANCH  19  20
ATOM     20  C   UNL     1       1.964   8.428  18.763  0.00  0.00    +0.000 A 
ATOM     21  C   UNL     1       1.243   9.239  17.878  0.00  0.00    +0.000 A 
ATOM     22  C   UNL     1       0.250  10.096  18.346  0.00  0.00    +0.000 A 
ATOM     23  C   UNL     1      -0.036  10.136  19.708  0.00  0.00    +0.000 A 
ATOM     24  C   UNL     1       0.651   9.292  20.584  0.00  0.00    +0.000 A 
ATOM     25 BR   UNL     1       0.228   9.335  22.426  0.00  0.00    +0.000 Br
ATOM     26  C   UNL     1       1.642   8.423  20.119  0.00  0.00    +0.000 A 
ENDBRANCH  19  20
ENDBRANCH   6  19
TORSDOF 7
ENDMDL
