MODEL 1
REMARK VINA RESULT:      -8.1      0.000      0.000
REMARK  Name = 
REMARK  12 active torsions:
REMARK  status: ('A' for Active; 'I' for Inactive)
REMARK    1  A    between atoms: C_1  and  C_2
REMARK    2  A    between atoms: C_2  and  O_3
REMARK    3  A    between atoms: O_3  and  C_4
REMARK    4  A    between atoms: C_4  and  C_6
REMARK    5  A    between atoms: C_7  and  C_8
REMARK    6  A    between atoms: C_10  and  C_11
REMARK    7  A    between atoms: C_11  and  C_12
REMARK    8  A    between atoms: C_12  and  C_13
REMARK    9  A    between atoms: N_15  and  C_16
REMARK   10  A    between atoms: C_16  and  C_17
REMARK   11  A    between atoms: C_21  and  C_22
REMARK   12  A    between atoms: C_24  and  C_25
REMARK                            x       y       z     vdW  Elec       q    Type
REMARK                         _______ _______ _______ _____ _____    ______ ____
ROOT
ATOM      1  C   UNL     1       7.554   5.271  17.868  0.00  0.00    +0.000 C 
ENDROOT
BRANCH   1   6
ATOM      2  C   UNL     1       4.015   4.016  18.106  0.00  0.00    +0.000 A 
ATOM      3  C   UNL     1       4.690   3.338  19.119  0.00  0.00    +0.000 A 
ATOM      4  C   UNL     1       4.262   2.273  20.069  0.00  0.00    +0.000 C 
ATOM      5  N   UNL     1       5.992   3.779  19.131  0.00  0.00    +0.000 N 
ATOM      6  C   UNL     1       6.192   4.712  18.147  0.00  0.00    +0.000 A 
ATOM      7  C   UNL     1       4.980   4.909  17.502  0.00  0.00    +0.000 A 
ATOM      8  C   UNL     1       4.743   5.824  16.346  0.00  0.00    +0.000 C 
ATOM      9  H   UNL     1       6.713   3.418  19.742  0.00  0.00    +0.000 HD
BRANCH   2  10
ATOM     10  C   UNL     1       2.622   3.776  17.702  0.00  0.00    +0.000 C 
ATOM     11  O   UNL     1       2.290   3.122  16.720  0.00  0.00    +0.000 OA
BRANCH  10  12
ATOM     12  O   UNL     1       1.736   4.458  18.484  0.00  0.00    +0.000 OA
BRANCH  12  14
ATOM     13  C   UNL     1       1.268   4.088  20.798  0.00  0.00    +0.000 C 
ATOM     14  C   UNL     1       0.948   3.662  19.375  0.00  0.00    +0.000 C 
ENDBRANCH  12  14
ENDBRANCH  10  12
ENDBRANCH   2  10
ENDBRANCH   1   6
BRANCH   1  15
ATOM     15  C   UNL     1       7.898   6.478  18.739  0.00  0.00    +0.000 C 
BRANCH  15  16
ATOM     16  C   UNL     1       7.906   7.748  17.907  0.00  0.00    +0.000 C 
ATOM     17  O   UNL     1       7.365   7.834  16.813  0.00  0.00    +0.000 OA
ATOM     18  N   UNL     1       8.561   8.803  18.506  0.00  0.00    +0.000 N 
ATOM     19  H   UNL     1       9.025   8.671  19.392  0.00  0.00    +0.000 HD
BRANCH  18  20
ATOM     20  C   UNL     1       8.619  10.112  17.890  0.00  0.00    +0.000 C 
BRANCH  20  21
ATOM     21  C   UNL     1       9.369  11.099  18.746  0.00  0.00    +0.000 A 
ATOM     22  C   UNL     1       9.528  10.861  20.119  0.00  0.00    +0.000 A 
ATOM     23  C   UNL     1      10.240  11.760  20.914  0.00  0.00    +0.000 A 
ATOM     24  C   UNL     1      10.791  12.909  20.351  0.00  0.00    +0.000 A 
ATOM     25  C   UNL     1      10.634  13.174  18.986  0.00  0.00    +0.000 A 
ATOM     26  C   UNL     1      11.229  14.405  18.368  0.00  0.00    +0.000 C 
ATOM     27  C   UNL     1       9.919  12.265  18.191  0.00  0.00    +0.000 A 
ENDBRANCH  20  21
ENDBRANCH  18  20
ENDBRANCH  15  16
ENDBRANCH   1  15
TORSDOF 8
ENDMDL
MODEL 2
REMARK VINA RESULT:      -8.1      4.505      8.348
REMARK  Name = 
REMARK  12 active torsions:
REMARK  status: ('A' for Active; 'I' for Inactive)
REMARK    1  A    between atoms: C_1  and  C_2
REMARK    2  A    between atoms: C_2  and  O_3
REMARK    3  A    between atoms: O_3  and  C_4
REMARK    4  A    between atoms: C_4  and  C_6
REMARK    5  A    between atoms: C_7  and  C_8
REMARK    6  A    between atoms: C_10  and  C_11
REMARK    7  A    between atoms: C_11  and  C_12
REMARK    8  A    between atoms: C_12  and  C_13
REMARK    9  A    between atoms: N_15  and  C_16
REMARK   10  A    between atoms: C_16  and  C_17
REMARK   11  A    between atoms: C_21  and  C_22
REMARK   12  A    between atoms: C_24  and  C_25
REMARK                            x       y       z     vdW  Elec       q    Type
REMARK                         _______ _______ _______ _____ _____    ______ ____
ROOT
ATOM      1  C   UNL     1       7.098   5.316  17.025  0.00  0.00    +0.000 C 
ENDROOT
BRANCH   1   6
ATOM      2  C   UNL     1       6.533   4.025  13.536  0.00  0.00    +0.000 A 
ATOM      3  C   UNL     1       7.468   5.046  13.379  0.00  0.00    +0.000 A 
ATOM      4  C   UNL     1       8.095   5.653  12.170  0.00  0.00    +0.000 C 
ATOM      5  N   UNL     1       7.768   5.544  14.624  0.00  0.00    +0.000 N 
ATOM      6  C   UNL     1       7.046   4.891  15.589  0.00  0.00    +0.000 A 
ATOM      7  C   UNL     1       6.284   3.919  14.957  0.00  0.00    +0.000 A 
ATOM      8  C   UNL     1       5.326   2.987  15.624  0.00  0.00    +0.000 C 
ATOM      9  H   UNL     1       8.388   6.325  14.794  0.00  0.00    +0.000 HD
BRANCH   2  10
ATOM     10  C   UNL     1       5.883   3.289  12.442  0.00  0.00    +0.000 C 
ATOM     11  O   UNL     1       6.434   2.431  11.763  0.00  0.00    +0.000 OA
BRANCH  10  12
ATOM     12  O   UNL     1       4.622   3.748  12.193  0.00  0.00    +0.000 OA
BRANCH  12  14
ATOM     13  C   UNL     1       3.334   4.025  10.199  0.00  0.00    +0.000 C 
ATOM     14  C   UNL     1       3.878   3.025  11.206  0.00  0.00    +0.000 C 
ENDBRANCH  12  14
ENDBRANCH  10  12
ENDBRANCH   2  10
ENDBRANCH   1   6
BRANCH   1  15
ATOM     15  C   UNL     1       6.525   6.712  17.259  0.00  0.00    +0.000 C 
BRANCH  15  16
ATOM     16  C   UNL     1       5.017   6.704  17.080  0.00  0.00    +0.000 C 
ATOM     17  O   UNL     1       4.466   7.031  16.038  0.00  0.00    +0.000 OA
ATOM     18  N   UNL     1       4.326   6.273  18.192  0.00  0.00    +0.000 N 
ATOM     19  H   UNL     1       4.824   6.051  19.041  0.00  0.00    +0.000 HD
BRANCH  18  20
ATOM     20  C   UNL     1       2.885   6.140  18.189  0.00  0.00    +0.000 C 
BRANCH  20  21
ATOM     21  C   UNL     1       2.452   4.742  18.550  0.00  0.00    +0.000 A 
ATOM     22  C   UNL     1       2.377   3.751  17.561  0.00  0.00    +0.000 A 
ATOM     23  C   UNL     1       1.998   2.450  17.891  0.00  0.00    +0.000 A 
ATOM     24  C   UNL     1       1.680   2.126  19.209  0.00  0.00    +0.000 A 
ATOM     25  C   UNL     1       1.735   3.101  20.210  0.00  0.00    +0.000 A 
ATOM     26  C   UNL     1       1.401   2.762  21.633  0.00  0.00    +0.000 C 
ATOM     27  C   UNL     1       2.119   4.408  19.872  0.00  0.00    +0.000 A 
ENDBRANCH  20  21
ENDBRANCH  18  20
ENDBRANCH  15  16
ENDBRANCH   1  15
TORSDOF 8
ENDMDL
MODEL 3
REMARK VINA RESULT:      -7.8      1.337      1.885
REMARK  Name = 
REMARK  12 active torsions:
REMARK  status: ('A' for Active; 'I' for Inactive)
REMARK    1  A    between atoms: C_1  and  C_2
REMARK    2  A    between atoms: C_2  and  O_3
REMARK    3  A    between atoms: O_3  and  C_4
REMARK    4  A    between atoms: C_4  and  C_6
REMARK    5  A    between atoms: C_7  and  C_8
REMARK    6  A    between atoms: C_10  and  C_11
REMARK    7  A    between atoms: C_11  and  C_12
REMARK    8  A    between atoms: C_12  and  C_13
REMARK    9  A    between atoms: N_15  and  C_16
REMARK   10  A    between atoms: C_16  and  C_17
REMARK   11  A    between atoms: C_21  and  C_22
REMARK   12  A    between atoms: C_24  and  C_25
REMARK                            x       y       z     vdW  Elec       q    Type
REMARK                         _______ _______ _______ _____ _____    ______ ____
ROOT
ATOM      1  C   UNL     1       6.905   5.039  17.956  0.00  0.00    +0.000 C 
ENDROOT
BRANCH   1   6
ATOM      2  C   UNL     1       3.144   4.983  18.060  0.00  0.00    +0.000 A 
ATOM      3  C   UNL     1       3.469   6.338  18.061  0.00  0.00    +0.000 A 
ATOM      4  C   UNL     1       2.635   7.567  18.178  0.00  0.00    +0.000 C 
ATOM      5  N   UNL     1       4.836   6.447  17.976  0.00  0.00    +0.000 N 
ATOM      6  C   UNL     1       5.416   5.206  17.935  0.00  0.00    +0.000 A 
ATOM      7  C   UNL     1       4.397   4.266  17.958  0.00  0.00    +0.000 A 
ATOM      8  C   UNL     1       4.574   2.783  17.955  0.00  0.00    +0.000 C 
ATOM      9  H   UNL     1       5.343   7.323  18.002  0.00  0.00    +0.000 HD
BRANCH   2  10
ATOM     10  C   UNL     1       1.791   4.431  18.224  0.00  0.00    +0.000 C 
ATOM     11  O   UNL     1       1.072   4.075  17.299  0.00  0.00    +0.000 OA
BRANCH  10  12
ATOM     12  O   UNL     1       1.380   4.462  19.526  0.00  0.00    +0.000 OA
BRANCH  12  14
ATOM     13  C   UNL     1       1.308   2.915  21.346  0.00  0.00    +0.000 C 
ATOM     14  C   UNL     1       2.208   3.759  20.458  0.00  0.00    +0.000 C 
ENDBRANCH  12  14
ENDBRANCH  10  12
ENDBRANCH   2  10
ENDBRANCH   1   6
BRANCH   1  15
ATOM     15  C   UNL     1       7.623   6.149  18.722  0.00  0.00    +0.000 C 
BRANCH  15  16
ATOM     16  C   UNL     1       7.793   7.376  17.842  0.00  0.00    +0.000 C 
ATOM     17  O   UNL     1       7.496   7.393  16.655  0.00  0.00    +0.000 OA
ATOM     18  N   UNL     1       8.293   8.474  18.508  0.00  0.00    +0.000 N 
ATOM     19  H   UNL     1       8.560   8.399  19.478  0.00  0.00    +0.000 HD
BRANCH  18  20
ATOM     20  C   UNL     1       8.465   9.751  17.848  0.00  0.00    +0.000 C 
BRANCH  20  21
ATOM     21  C   UNL     1       9.417  10.645  18.601  0.00  0.00    +0.000 A 
ATOM     22  C   UNL     1       9.364  10.708  20.000  0.00  0.00    +0.000 A 
ATOM     23  C   UNL     1      10.255  11.517  20.706  0.00  0.00    +0.000 A 
ATOM     24  C   UNL     1      11.201  12.280  20.022  0.00  0.00    +0.000 A 
ATOM     25  C   UNL     1      11.263  12.243  18.625  0.00  0.00    +0.000 A 
ATOM     26  C   UNL     1      12.281  13.055  17.880  0.00  0.00    +0.000 C 
ATOM     27  C   UNL     1      10.366  11.426  17.921  0.00  0.00    +0.000 A 
ENDBRANCH  20  21
ENDBRANCH  18  20
ENDBRANCH  15  16
ENDBRANCH   1  15
TORSDOF 8
ENDMDL
MODEL 4
REMARK VINA RESULT:      -7.8      0.939      1.743
REMARK  Name = 
REMARK  12 active torsions:
REMARK  status: ('A' for Active; 'I' for Inactive)
REMARK    1  A    between atoms: C_1  and  C_2
REMARK    2  A    between atoms: C_2  and  O_3
REMARK    3  A    between atoms: O_3  and  C_4
REMARK    4  A    between atoms: C_4  and  C_6
REMARK    5  A    between atoms: C_7  and  C_8
REMARK    6  A    between atoms: C_10  and  C_11
REMARK    7  A    between atoms: C_11  and  C_12
REMARK    8  A    between atoms: C_12  and  C_13
REMARK    9  A    between atoms: N_15  and  C_16
REMARK   10  A    between atoms: C_16  and  C_17
REMARK   11  A    between atoms: C_21  and  C_22
REMARK   12  A    between atoms: C_24  and  C_25
REMARK                            x       y       z     vdW  Elec       q    Type
REMARK                         _______ _______ _______ _____ _____    ______ ____
ROOT
ATOM      1  C   UNL     1       7.480   5.564  17.853  0.00  0.00    +0.000 C 
ENDROOT
BRANCH   1   6
ATOM      2  C   UNL     1       3.913   4.477  18.358  0.00  0.00    +0.000 A 
ATOM      3  C   UNL     1       4.665   3.515  19.031  0.00  0.00    +0.000 A 
ATOM      4  C   UNL     1       4.285   2.256  19.730  0.00  0.00    +0.000 C 
ATOM      5  N   UNL     1       5.990   3.868  18.934  0.00  0.00    +0.000 N 
ATOM      6  C   UNL     1       6.128   5.021  18.206  0.00  0.00    +0.000 A 
ATOM      7  C   UNL     1       4.858   5.449  17.851  0.00  0.00    +0.000 A 
ATOM      8  C   UNL     1       4.537   6.654  17.029  0.00  0.00    +0.000 C 
ATOM      9  H   UNL     1       6.757   3.317  19.298  0.00  0.00    +0.000 HD
BRANCH   2  10
ATOM     10  C   UNL     1       2.458   4.428  18.149  0.00  0.00    +0.000 C 
ATOM     11  O   UNL     1       1.902   3.716  17.322  0.00  0.00    +0.000 OA
BRANCH  10  12
ATOM     12  O   UNL     1       1.800   5.352  18.909  0.00  0.00    +0.000 OA
BRANCH  12  14
ATOM     13  C   UNL     1       0.986   3.892  20.616  0.00  0.00    +0.000 C 
ATOM     14  C   UNL     1       1.822   5.127  20.322  0.00  0.00    +0.000 C 
ENDBRANCH  12  14
ENDBRANCH  10  12
ENDBRANCH   2  10
ENDBRANCH   1   6
BRANCH   1  15
ATOM     15  C   UNL     1       7.971   6.633  18.827  0.00  0.00    +0.000 C 
BRANCH  15  16
ATOM     16  C   UNL     1       8.140   7.963  18.113  0.00  0.00    +0.000 C 
ATOM     17  O   UNL     1       7.625   8.212  17.032  0.00  0.00    +0.000 OA
ATOM     18  N   UNL     1       8.913   8.872  18.804  0.00  0.00    +0.000 N 
ATOM     19  H   UNL     1       9.349   8.605  19.674  0.00  0.00    +0.000 HD
BRANCH  18  20
ATOM     20  C   UNL     1       9.135  10.214  18.310  0.00  0.00    +0.000 C 
BRANCH  20  21
ATOM     21  C   UNL     1       9.418  11.182  19.430  0.00  0.00    +0.000 A 
ATOM     22  C   UNL     1      10.265  12.277  19.214  0.00  0.00    +0.000 A 
ATOM     23  C   UNL     1      10.516  13.190  20.240  0.00  0.00    +0.000 A 
ATOM     24  C   UNL     1       9.933  13.013  21.493  0.00  0.00    +0.000 A 
ATOM     25  C   UNL     1       9.094  11.919  21.734  0.00  0.00    +0.000 A 
ATOM     26  C   UNL     1       8.456  11.722  23.078  0.00  0.00    +0.000 C 
ATOM     27  C   UNL     1       8.844  11.006  20.699  0.00  0.00    +0.000 A 
ENDBRANCH  20  21
ENDBRANCH  18  20
ENDBRANCH  15  16
ENDBRANCH   1  15
TORSDOF 8
ENDMDL
MODEL 5
REMARK VINA RESULT:      -7.4      1.289      2.029
REMARK  Name = 
REMARK  12 active torsions:
REMARK  status: ('A' for Active; 'I' for Inactive)
REMARK    1  A    between atoms: C_1  and  C_2
REMARK    2  A    between atoms: C_2  and  O_3
REMARK    3  A    between atoms: O_3  and  C_4
REMARK    4  A    between atoms: C_4  and  C_6
REMARK    5  A    between atoms: C_7  and  C_8
REMARK    6  A    between atoms: C_10  and  C_11
REMARK    7  A    between atoms: C_11  and  C_12
REMARK    8  A    between atoms: C_12  and  C_13
REMARK    9  A    between atoms: N_15  and  C_16
REMARK   10  A    between atoms: C_16  and  C_17
REMARK   11  A    between atoms: C_21  and  C_22
REMARK   12  A    between atoms: C_24  and  C_25
REMARK                            x       y       z     vdW  Elec       q    Type
REMARK                         _______ _______ _______ _____ _____    ______ ____
ROOT
ATOM      1  C   UNL     1       7.964   4.858  18.345  0.00  0.00    +0.000 C 
ENDROOT
BRANCH   1   6
ATOM      2  C   UNL     1       4.436   4.323  17.153  0.00  0.00    +0.000 A 
ATOM      3  C   UNL     1       5.197   4.329  15.986  0.00  0.00    +0.000 A 
ATOM      4  C   UNL     1       4.822   4.257  14.546  0.00  0.00    +0.000 C 
ATOM      5  N   UNL     1       6.517   4.472  16.340  0.00  0.00    +0.000 N 
ATOM      6  C   UNL     1       6.640   4.578  17.701  0.00  0.00    +0.000 A 
ATOM      7  C   UNL     1       5.371   4.463  18.248  0.00  0.00    +0.000 A 
ATOM      8  C   UNL     1       5.033   4.546  19.700  0.00  0.00    +0.000 C 
ATOM      9  H   UNL     1       7.281   4.552  15.682  0.00  0.00    +0.000 HD
BRANCH   2  10
ATOM     10  C   UNL     1       2.967   4.277  17.212  0.00  0.00    +0.000 C 
ATOM     11  O   UNL     1       2.260   5.211  17.570  0.00  0.00    +0.000 OA
BRANCH  10  12
ATOM     12  O   UNL     1       2.482   3.033  16.928  0.00  0.00    +0.000 OA
BRANCH  12  14
ATOM     13  C   UNL     1       1.336   2.155  18.833  0.00  0.00    +0.000 C 
ATOM     14  C   UNL     1       2.590   2.066  17.979  0.00  0.00    +0.000 C 
ENDBRANCH  12  14
ENDBRANCH  10  12
ENDBRANCH   2  10
ENDBRANCH   1   6
BRANCH   1  15
ATOM     15  C   UNL     1       7.979   6.159  19.146  0.00  0.00    +0.000 C 
BRANCH  15  16
ATOM     16  C   UNL     1       8.008   7.356  18.212  0.00  0.00    +0.000 C 
ATOM     17  O   UNL     1       7.578   7.321  17.067  0.00  0.00    +0.000 OA
ATOM     18  N   UNL     1       8.546   8.492  18.778  0.00  0.00    +0.000 N 
ATOM     19  H   UNL     1       8.924   8.460  19.714  0.00  0.00    +0.000 HD
BRANCH  18  20
ATOM     20  C   UNL     1       8.600   9.748  18.061  0.00  0.00    +0.000 C 
BRANCH  20  21
ATOM     21  C   UNL     1       9.538  10.727  18.719  0.00  0.00    +0.000 A 
ATOM     22  C   UNL     1       9.539  10.870  20.113  0.00  0.00    +0.000 A 
ATOM     23  C   UNL     1      10.419  11.760  20.732  0.00  0.00    +0.000 A 
ATOM     24  C   UNL     1      11.298  12.522  19.965  0.00  0.00    +0.000 A 
ATOM     25  C   UNL     1      11.304  12.406  18.571  0.00  0.00    +0.000 A 
ATOM     26  C   UNL     1      12.251  13.218  17.737  0.00  0.00    +0.000 C 
ATOM     27  C   UNL     1      10.419  11.509  17.955  0.00  0.00    +0.000 A 
ENDBRANCH  20  21
ENDBRANCH  18  20
ENDBRANCH  15  16
ENDBRANCH   1  15
TORSDOF 8
ENDMDL
MODEL 6
REMARK VINA RESULT:      -7.3      5.400      7.773
REMARK  Name = 
REMARK  12 active torsions:
REMARK  status: ('A' for Active; 'I' for Inactive)
REMARK    1  A    between atoms: C_1  and  C_2
REMARK    2  A    between atoms: C_2  and  O_3
REMARK    3  A    between atoms: O_3  and  C_4
REMARK    4  A    between atoms: C_4  and  C_6
REMARK    5  A    between atoms: C_7  and  C_8
REMARK    6  A    between atoms: C_10  and  C_11
REMARK    7  A    between atoms: C_11  and  C_12
REMARK    8  A    between atoms: C_12  and  C_13
REMARK    9  A    between atoms: N_15  and  C_16
REMARK   10  A    between atoms: C_16  and  C_17
REMARK   11  A    between atoms: C_21  and  C_22
REMARK   12  A    between atoms: C_24  and  C_25
REMARK                            x       y       z     vdW  Elec       q    Type
REMARK                         _______ _______ _______ _____ _____    ______ ____
ROOT
ATOM      1  C   UNL     1       2.278   5.626  20.802  0.00  0.00    +0.000 C 
ENDROOT
BRANCH   1   6
ATOM      2  C   UNL     1       1.259   9.042  19.597  0.00  0.00    +0.000 A 
ATOM      3  C   UNL     1       0.728   8.957  20.884  0.00  0.00    +0.000 A 
ATOM      4  C   UNL     1      -0.139   9.878  21.671  0.00  0.00    +0.000 C 
ATOM      5  N   UNL     1       1.100   7.747  21.417  0.00  0.00    +0.000 N 
ATOM      6  C   UNL     1       1.842   7.031  20.515  0.00  0.00    +0.000 A 
ATOM      7  C   UNL     1       1.988   7.812  19.378  0.00  0.00    +0.000 A 
ATOM      8  C   UNL     1       2.705   7.415  18.130  0.00  0.00    +0.000 C 
ATOM      9  H   UNL     1       0.811   7.409  22.327  0.00  0.00    +0.000 HD
BRANCH   2  10
ATOM     10  C   UNL     1       1.023  10.141  18.649  0.00  0.00    +0.000 C 
ATOM     11  O   UNL     1       1.647  11.195  18.643  0.00  0.00    +0.000 OA
BRANCH  10  12
ATOM     12  O   UNL     1      -0.051   9.899  17.841  0.00  0.00    +0.000 OA
BRANCH  12  14
ATOM     13  C   UNL     1      -2.436   9.865  17.698  0.00  0.00    +0.000 C 
ATOM     14  C   UNL     1      -1.220  10.680  18.107  0.00  0.00    +0.000 C 
ENDBRANCH  12  14
ENDBRANCH  10  12
ENDBRANCH   2  10
ENDBRANCH   1   6
BRANCH   1  15
ATOM     15  C   UNL     1       1.271   4.577  20.335  0.00  0.00    +0.000 C 
BRANCH  15  16
ATOM     16  C   UNL     1       1.922   3.617  19.355  0.00  0.00    +0.000 C 
ATOM     17  O   UNL     1       1.867   2.401  19.475  0.00  0.00    +0.000 OA
ATOM     18  N   UNL     1       2.563   4.240  18.306  0.00  0.00    +0.000 N 
ATOM     19  H   UNL     1       2.614   5.248  18.272  0.00  0.00    +0.000 HD
BRANCH  18  20
ATOM     20  C   UNL     1       3.189   3.487  17.240  0.00  0.00    +0.000 C 
BRANCH  20  21
ATOM     21  C   UNL     1       4.600   3.948  16.983  0.00  0.00    +0.000 A 
ATOM     22  C   UNL     1       5.454   4.231  18.058  0.00  0.00    +0.000 A 
ATOM     23  C   UNL     1       6.768   4.638  17.829  0.00  0.00    +0.000 A 
ATOM     24  C   UNL     1       7.241   4.778  16.525  0.00  0.00    +0.000 A 
ATOM     25  C   UNL     1       6.403   4.514  15.437  0.00  0.00    +0.000 A 
ATOM     26  C   UNL     1       6.904   4.655  14.029  0.00  0.00    +0.000 C 
ATOM     27  C   UNL     1       5.083   4.103  15.674  0.00  0.00    +0.000 A 
ENDBRANCH  20  21
ENDBRANCH  18  20
ENDBRANCH  15  16
ENDBRANCH   1  15
TORSDOF 8
ENDMDL
MODEL 7
REMARK VINA RESULT:      -7.3      3.071      9.832
REMARK  Name = 
REMARK  12 active torsions:
REMARK  status: ('A' for Active; 'I' for Inactive)
REMARK    1  A    between atoms: C_1  and  C_2
REMARK    2  A    between atoms: C_2  and  O_3
REMARK    3  A    between atoms: O_3  and  C_4
REMARK    4  A    between atoms: C_4  and  C_6
REMARK    5  A    between atoms: C_7  and  C_8
REMARK    6  A    between atoms: C_10  and  C_11
REMARK    7  A    between atoms: C_11  and  C_12
REMARK    8  A    between atoms: C_12  and  C_13
REMARK    9  A    between atoms: N_15  and  C_16
REMARK   10  A    between atoms: C_16  and  C_17
REMARK   11  A    between atoms: C_21  and  C_22
REMARK   12  A    between atoms: C_24  and  C_25
REMARK                            x       y       z     vdW  Elec       q    Type
REMARK                         _______ _______ _______ _____ _____    ______ ____
ROOT
ATOM      1  C   UNL     1       8.954   9.586  18.967  0.00  0.00    +0.000 C 
ENDROOT
BRANCH   1   6
ATOM      2  C   UNL     1      10.272  13.107  19.125  0.00  0.00    +0.000 A 
ATOM      3  C   UNL     1      10.600  12.673  17.842  0.00  0.00    +0.000 A 
ATOM      4  C   UNL     1      11.374  13.308  16.738  0.00  0.00    +0.000 C 
ATOM      5  N   UNL     1      10.107  11.401  17.685  0.00  0.00    +0.000 N 
ATOM      6  C   UNL     1       9.482  10.983  18.830  0.00  0.00    +0.000 A 
ATOM      7  C   UNL     1       9.538  12.025  19.744  0.00  0.00    +0.000 A 
ATOM      8  C   UNL     1       9.001  11.997  21.137  0.00  0.00    +0.000 C 
ATOM      9  H   UNL     1      10.243  10.832  16.859  0.00  0.00    +0.000 HD
BRANCH   2  10
ATOM     10  C   UNL     1      10.690  14.382  19.726  0.00  0.00    +0.000 C 
ATOM     11  O   UNL     1      11.462  14.481  20.672  0.00  0.00    +0.000 OA
BRANCH  10  12
ATOM     12  O   UNL     1      10.031  15.446  19.180  0.00  0.00    +0.000 OA
BRANCH  12  14
ATOM     13  C   UNL     1       8.028  15.760  17.914  0.00  0.00    +0.000 C 
ATOM     14  C   UNL     1       8.603  15.411  19.277  0.00  0.00    +0.000 C 
ENDBRANCH  12  14
ENDBRANCH  10  12
ENDBRANCH   2  10
ENDBRANCH   1   6
BRANCH   1  15
ATOM     15  C   UNL     1       8.172   9.118  17.741  0.00  0.00    +0.000 C 
BRANCH  15  16
ATOM     16  C   UNL     1       7.812   7.648  17.871  0.00  0.00    +0.000 C 
ATOM     17  O   UNL     1       8.207   6.942  18.789  0.00  0.00    +0.000 OA
ATOM     18  N   UNL     1       6.983   7.186  16.871  0.00  0.00    +0.000 N 
ATOM     19  H   UNL     1       6.716   7.798  16.114  0.00  0.00    +0.000 HD
BRANCH  18  20
ATOM     20  C   UNL     1       6.484   5.828  16.863  0.00  0.00    +0.000 C 
BRANCH  20  21
ATOM     21  C   UNL     1       5.034   5.762  17.269  0.00  0.00    +0.000 A 
ATOM     22  C   UNL     1       4.410   4.521  17.450  0.00  0.00    +0.000 A 
ATOM     23  C   UNL     1       3.074   4.451  17.847  0.00  0.00    +0.000 A 
ATOM     24  C   UNL     1       2.345   5.620  18.057  0.00  0.00    +0.000 A 
ATOM     25  C   UNL     1       2.944   6.871  17.870  0.00  0.00    +0.000 A 
ATOM     26  C   UNL     1       2.169   8.136  18.100  0.00  0.00    +0.000 C 
ATOM     27  C   UNL     1       4.287   6.934  17.473  0.00  0.00    +0.000 A 
ENDBRANCH  20  21
ENDBRANCH  18  20
ENDBRANCH  15  16
ENDBRANCH   1  15
TORSDOF 8
ENDMDL
MODEL 8
REMARK VINA RESULT:      -7.2      3.672      7.304
REMARK  Name = 
REMARK  12 active torsions:
REMARK  status: ('A' for Active; 'I' for Inactive)
REMARK    1  A    between atoms: C_1  and  C_2
REMARK    2  A    between atoms: C_2  and  O_3
REMARK    3  A    between atoms: O_3  and  C_4
REMARK    4  A    between atoms: C_4  and  C_6
REMARK    5  A    between atoms: C_7  and  C_8
REMARK    6  A    between atoms: C_10  and  C_11
REMARK    7  A    between atoms: C_11  and  C_12
REMARK    8  A    between atoms: C_12  and  C_13
REMARK    9  A    between atoms: N_15  and  C_16
REMARK   10  A    between atoms: C_16  and  C_17
REMARK   11  A    between atoms: C_21  and  C_22
REMARK   12  A    between atoms: C_24  and  C_25
REMARK                            x       y       z     vdW  Elec       q    Type
REMARK                         _______ _______ _______ _____ _____    ______ ____
ROOT
ATOM      1  C   UNL     1       2.647   3.179  17.706  0.00  0.00    +0.000 C 
ENDROOT
BRANCH   1   6
ATOM      2  C   UNL     1       6.115   4.456  17.000  0.00  0.00    +0.000 A 
ATOM      3  C   UNL     1       5.561   4.247  15.738  0.00  0.00    +0.000 A 
ATOM      4  C   UNL     1       6.127   4.360  14.365  0.00  0.00    +0.000 C 
ATOM      5  N   UNL     1       4.266   3.822  15.909  0.00  0.00    +0.000 N 
ATOM      6  C   UNL     1       3.961   3.730  17.242  0.00  0.00    +0.000 A 
ATOM      7  C   UNL     1       5.076   4.142  17.957  0.00  0.00    +0.000 A 
ATOM      8  C   UNL     1       5.197   4.179  19.444  0.00  0.00    +0.000 C 
ATOM      9  H   UNL     1       3.647   3.554  15.154  0.00  0.00    +0.000 HD
BRANCH   2  10
ATOM     10  C   UNL     1       7.512   4.832  17.265  0.00  0.00    +0.000 C 
ATOM     11  O   UNL     1       8.358   4.072  17.719  0.00  0.00    +0.000 OA
BRANCH  10  12
ATOM     12  O   UNL     1       7.734   6.162  17.052  0.00  0.00    +0.000 OA
BRANCH  12  14
ATOM     13  C   UNL     1       8.006   8.420  17.787  0.00  0.00    +0.000 C 
ATOM     14  C   UNL     1       7.805   6.979  18.226  0.00  0.00    +0.000 C 
ENDBRANCH  12  14
ENDBRANCH  10  12
ENDBRANCH   2  10
ENDBRANCH   1   6
BRANCH   1  15
ATOM     15  C   UNL     1       1.550   4.238  17.795  0.00  0.00    +0.000 C 
BRANCH  15  16
ATOM     16  C   UNL     1       1.984   5.377  18.702  0.00  0.00    +0.000 C 
ATOM     17  O   UNL     1       2.098   5.259  19.914  0.00  0.00    +0.000 OA
ATOM     18  N   UNL     1       2.256   6.550  18.032  0.00  0.00    +0.000 N 
ATOM     19  H   UNL     1       2.109   6.609  17.035  0.00  0.00    +0.000 HD
BRANCH  18  20
ATOM     20  C   UNL     1       2.741   7.726  18.722  0.00  0.00    +0.000 C 
BRANCH  20  21
ATOM     21  C   UNL     1       1.613   8.542  19.298  0.00  0.00    +0.000 A 
ATOM     22  C   UNL     1       1.305   8.451  20.663  0.00  0.00    +0.000 A 
ATOM     23  C   UNL     1       0.275   9.218  21.208  0.00  0.00    +0.000 A 
ATOM     24  C   UNL     1      -0.465  10.076  20.396  0.00  0.00    +0.000 A 
ATOM     25  C   UNL     1      -0.184  10.173  19.029  0.00  0.00    +0.000 A 
ATOM     26  C   UNL     1      -0.970  11.098  18.147  0.00  0.00    +0.000 C 
ATOM     27  C   UNL     1       0.854   9.400  18.487  0.00  0.00    +0.000 A 
ENDBRANCH  20  21
ENDBRANCH  18  20
ENDBRANCH  15  16
ENDBRANCH   1  15
TORSDOF 8
ENDMDL
MODEL 9
REMARK VINA RESULT:      -7.2      2.867      9.557
REMARK  Name = 
REMARK  12 active torsions:
REMARK  status: ('A' for Active; 'I' for Inactive)
REMARK    1  A    between atoms: C_1  and  C_2
REMARK    2  A    between atoms: C_2  and  O_3
REMARK    3  A    between atoms: O_3  and  C_4
REMARK    4  A    between atoms: C_4  and  C_6
REMARK    5  A    between atoms: C_7  and  C_8
REMARK    6  A    between atoms: C_10  and  C_11
REMARK    7  A    between atoms: C_11  and  C_12
REMARK    8  A    between atoms: C_12  and  C_13
REMARK    9  A    between atoms: N_15  and  C_16
REMARK   10  A    between atoms: C_16  and  C_17
REMARK   11  A    between atoms: C_21  and  C_22
REMARK   12  A    between atoms: C_24  and  C_25
REMARK                            x       y       z     vdW  Elec       q    Type
REMARK                         _______ _______ _______ _____ _____    ______ ____
ROOT
ATOM      1  C   UNL     1       8.143   9.508  17.760  0.00  0.00    +0.000 C 
ENDROOT
BRANCH   1   6
ATOM      2  C   UNL     1       9.892  12.753  18.514  0.00  0.00    +0.000 A 
ATOM      3  C   UNL     1      10.697  11.781  19.107  0.00  0.00    +0.000 A 
ATOM      4  C   UNL     1      11.921  11.874  19.952  0.00  0.00    +0.000 C 
ATOM      5  N   UNL     1      10.148  10.551  18.834  0.00  0.00    +0.000 N 
ATOM      6  C   UNL     1       9.002  10.689  18.096  0.00  0.00    +0.000 A 
ATOM      7  C   UNL     1       8.820  12.042  17.852  0.00  0.00    +0.000 A 
ATOM      8  C   UNL     1       7.680  12.651  17.104  0.00  0.00    +0.000 C 
ATOM      9  H   UNL     1      10.510   9.673  19.184  0.00  0.00    +0.000 HD
BRANCH   2  10
ATOM     10  C   UNL     1      10.079  14.206  18.639  0.00  0.00    +0.000 C 
ATOM     11  O   UNL     1      10.632  14.907  17.801  0.00  0.00    +0.000 OA
BRANCH  10  12
ATOM     12  O   UNL     1       9.662  14.673  19.852  0.00  0.00    +0.000 OA
BRANCH  12  14
ATOM     13  C   UNL     1       7.383  14.618  20.570  0.00  0.00    +0.000 C 
ATOM     14  C   UNL     1       8.446  15.428  19.845  0.00  0.00    +0.000 C 
ENDBRANCH  12  14
ENDBRANCH  10  12
ENDBRANCH   2  10
ENDBRANCH   1   6
BRANCH   1  15
ATOM     15  C   UNL     1       8.399   8.303  18.664  0.00  0.00    +0.000 C 
BRANCH  15  16
ATOM     16  C   UNL     1       7.744   7.060  18.088  0.00  0.00    +0.000 C 
ATOM     17  O   UNL     1       7.939   5.936  18.531  0.00  0.00    +0.000 OA
ATOM     18  N   UNL     1       6.894   7.315  17.033  0.00  0.00    +0.000 N 
ATOM     19  H   UNL     1       6.797   8.255  16.678  0.00  0.00    +0.000 HD
BRANCH  18  20
ATOM     20  C   UNL     1       6.134   6.261  16.396  0.00  0.00    +0.000 C 
BRANCH  20  21
ATOM     21  C   UNL     1       4.779   6.087  17.032  0.00  0.00    +0.000 A 
ATOM     22  C   UNL     1       4.098   7.197  17.550  0.00  0.00    +0.000 A 
ATOM     23  C   UNL     1       2.834   7.048  18.123  0.00  0.00    +0.000 A 
ATOM     24  C   UNL     1       2.242   5.788  18.193  0.00  0.00    +0.000 A 
ATOM     25  C   UNL     1       2.909   4.664  17.695  0.00  0.00    +0.000 A 
ATOM     26  C   UNL     1       2.277   3.304  17.760  0.00  0.00    +0.000 C 
ATOM     27  C   UNL     1       4.178   4.821  17.119  0.00  0.00    +0.000 A 
ENDBRANCH  20  21
ENDBRANCH  18  20
ENDBRANCH  15  16
ENDBRANCH   1  15
TORSDOF 8
ENDMDL
