MODEL 1
REMARK VINA RESULT:      -7.3      0.000      0.000
REMARK  Name = 
REMARK  5 active torsions:
REMARK  status: ('A' for Active; 'I' for Inactive)
REMARK    1  A    between atoms: C_1  and  C_2
REMARK    2  A    between atoms: C_2  and  N_3
REMARK    3  A    between atoms: C_4  and  C_6
REMARK    4  A    between atoms: C_7  and  C_8
REMARK    5  A    between atoms: C_9  and  C_10
REMARK                            x       y       z     vdW  Elec       q    Type
REMARK                         _______ _______ _______ _____ _____    ______ ____
ROOT
ATOM      1  C   UNL     1       8.171   9.165  17.909  0.00  0.00    +0.000 C 
ATOM      2  C   UNL     1       8.988   9.363  18.961  0.00  0.00    +0.000 C 
ENDROOT
BRANCH   2   3
ATOM      3  C   UNL     1       9.509  10.685  19.354  0.00  0.00    +0.000 A 
ATOM      4  C   UNL     1       9.528  11.093  20.707  0.00  0.00    +0.000 A 
ATOM      5  C   UNL     1      10.032  12.342  21.085  0.00  0.00    +0.000 A 
ATOM      6  C   UNL     1      10.518  13.163  20.093  0.00  0.00    +0.000 A 
ATOM      7  C   UNL     1      10.528  12.772  18.776  0.00  0.00    +0.000 A 
ATOM      8  C   UNL     1      10.045  11.539  18.375  0.00  0.00    +0.000 A 
ATOM      9  O   UNL     1      11.052  13.729  17.961  0.00  0.00    +0.000 OA
ATOM     10  C   UNL     1      11.305  14.786  18.910  0.00  0.00    +0.000 C 
ATOM     11  O   UNL     1      11.029  14.408  20.274  0.00  0.00    +0.000 OA
ENDBRANCH   2   3
BRANCH   1  13
ATOM     12  C   UNL     1       7.845   6.750  18.258  0.00  0.00    +0.000 C 
ATOM     13  C   UNL     1       7.644   7.868  17.538  0.00  0.00    +0.000 C 
BRANCH  12  15
ATOM     14  N   UNL     1       7.233   5.318  16.431  0.00  0.00    +0.000 N 
ATOM     15  C   UNL     1       7.269   5.460  17.796  0.00  0.00    +0.000 C 
ATOM     16  O   UNL     1       6.861   4.608  18.581  0.00  0.00    +0.000 OA
ATOM     17  H   UNL     1       7.587   6.048  15.826  0.00  0.00    +0.000 HD
BRANCH  14  19
ATOM     18  C   UNL     1       5.828   4.403  14.611  0.00  0.00    +0.000 C 
ATOM     19  C   UNL     1       6.690   4.113  15.829  0.00  0.00    +0.000 C 
ENDBRANCH  14  19
ENDBRANCH  12  15
ENDBRANCH   1  13
TORSDOF 4
ENDMDL
MODEL 2
REMARK VINA RESULT:      -7.3      1.121      1.162
REMARK  Name = 
REMARK  5 active torsions:
REMARK  status: ('A' for Active; 'I' for Inactive)
REMARK    1  A    between atoms: C_1  and  C_2
REMARK    2  A    between atoms: C_2  and  N_3
REMARK    3  A    between atoms: C_4  and  C_6
REMARK    4  A    between atoms: C_7  and  C_8
REMARK    5  A    between atoms: C_9  and  C_10
REMARK                            x       y       z     vdW  Elec       q    Type
REMARK                         _______ _______ _______ _____ _____    ______ ____
ROOT
ATOM      1  C   UNL     1       8.208   9.044  17.850  0.00  0.00    +0.000 C 
ATOM      2  C   UNL     1       8.963   9.391  18.909  0.00  0.00    +0.000 C 
ENDROOT
BRANCH   2   3
ATOM      3  C   UNL     1       9.535  10.737  19.099  0.00  0.00    +0.000 A 
ATOM      4  C   UNL     1       9.851  11.224  20.387  0.00  0.00    +0.000 A 
ATOM      5  C   UNL     1      10.404  12.496  20.570  0.00  0.00    +0.000 A 
ATOM      6  C   UNL     1      10.639  13.259  19.449  0.00  0.00    +0.000 A 
ATOM      7  C   UNL     1      10.360  12.791  18.187  0.00  0.00    +0.000 A 
ATOM      8  C   UNL     1       9.822  11.534  17.977  0.00  0.00    +0.000 A 
ATOM      9  O   UNL     1      10.669  13.700  17.223  0.00  0.00    +0.000 OA
ATOM     10  C   UNL     1      11.110  14.813  18.028  0.00  0.00    +0.000 C 
ATOM     11  O   UNL     1      11.156  14.516  19.439  0.00  0.00    +0.000 OA
ENDBRANCH   2   3
BRANCH   1  13
ATOM     12  C   UNL     1       7.875   6.693  18.501  0.00  0.00    +0.000 C 
ATOM     13  C   UNL     1       7.630   7.727  17.676  0.00  0.00    +0.000 C 
BRANCH  12  15
ATOM     14  N   UNL     1       5.868   5.395  18.280  0.00  0.00    +0.000 N 
ATOM     15  C   UNL     1       7.240   5.374  18.241  0.00  0.00    +0.000 C 
ATOM     16  O   UNL     1       7.901   4.363  18.018  0.00  0.00    +0.000 OA
ATOM     17  H   UNL     1       5.368   6.255  18.462  0.00  0.00    +0.000 HD
BRANCH  14  19
ATOM     18  C   UNL     1       4.565   4.082  16.637  0.00  0.00    +0.000 C 
ATOM     19  C   UNL     1       5.106   4.179  18.053  0.00  0.00    +0.000 C 
ENDBRANCH  14  19
ENDBRANCH  12  15
ENDBRANCH   1  13
TORSDOF 4
ENDMDL
MODEL 3
REMARK VINA RESULT:      -7.1      2.705      8.667
REMARK  Name = 
REMARK  5 active torsions:
REMARK  status: ('A' for Active; 'I' for Inactive)
REMARK    1  A    between atoms: C_1  and  C_2
REMARK    2  A    between atoms: C_2  and  N_3
REMARK    3  A    between atoms: C_4  and  C_6
REMARK    4  A    between atoms: C_7  and  C_8
REMARK    5  A    between atoms: C_9  and  C_10
REMARK                            x       y       z     vdW  Elec       q    Type
REMARK                         _______ _______ _______ _____ _____    ______ ____
ROOT
ATOM      1  C   UNL     1       7.647   8.764  17.808  0.00  0.00    +0.000 C 
ATOM      2  C   UNL     1       7.813   7.429  17.865  0.00  0.00    +0.000 C 
ENDROOT
BRANCH   2   3
ATOM      3  C   UNL     1       6.706   6.462  17.739  0.00  0.00    +0.000 A 
ATOM      4  C   UNL     1       5.805   6.517  16.651  0.00  0.00    +0.000 A 
ATOM      5  C   UNL     1       4.761   5.595  16.522  0.00  0.00    +0.000 A 
ATOM      6  C   UNL     1       4.644   4.622  17.489  0.00  0.00    +0.000 A 
ATOM      7  C   UNL     1       5.526   4.540  18.539  0.00  0.00    +0.000 A 
ATOM      8  C   UNL     1       6.572   5.433  18.686  0.00  0.00    +0.000 A 
ATOM      9  O   UNL     1       5.232   3.507  19.376  0.00  0.00    +0.000 OA
ATOM     10  C   UNL     1       4.028   2.996  18.766  0.00  0.00    +0.000 C 
ATOM     11  O   UNL     1       3.687   3.658  17.531  0.00  0.00    +0.000 OA
ENDBRANCH   2   3
BRANCH   1  13
ATOM     12  C   UNL     1       9.142  10.256  19.073  0.00  0.00    +0.000 C 
ATOM     13  C   UNL     1       8.739   9.711  17.911  0.00  0.00    +0.000 C 
BRANCH  12  15
ATOM     14  N   UNL     1      10.663  11.640  17.834  0.00  0.00    +0.000 N 
ATOM     15  C   UNL     1      10.270  11.225  19.082  0.00  0.00    +0.000 C 
ATOM     16  O   UNL     1      10.795  11.606  20.124  0.00  0.00    +0.000 OA
ATOM     17  H   UNL     1      10.194  11.300  17.004  0.00  0.00    +0.000 HD
BRANCH  14  19
ATOM     18  C   UNL     1      11.488  13.631  16.618  0.00  0.00    +0.000 C 
ATOM     19  C   UNL     1      11.760  12.580  17.682  0.00  0.00    +0.000 C 
ENDBRANCH  14  19
ENDBRANCH  12  15
ENDBRANCH   1  13
TORSDOF 4
ENDMDL
MODEL 4
REMARK VINA RESULT:      -6.9      1.308      1.965
REMARK  Name = 
REMARK  5 active torsions:
REMARK  status: ('A' for Active; 'I' for Inactive)
REMARK    1  A    between atoms: C_1  and  C_2
REMARK    2  A    between atoms: C_2  and  N_3
REMARK    3  A    between atoms: C_4  and  C_6
REMARK    4  A    between atoms: C_7  and  C_8
REMARK    5  A    between atoms: C_9  and  C_10
REMARK                            x       y       z     vdW  Elec       q    Type
REMARK                         _______ _______ _______ _____ _____    ______ ____
ROOT
ATOM      1  C   UNL     1       8.045   9.107  17.850  0.00  0.00    +0.000 C 
ATOM      2  C   UNL     1       9.013   9.386  18.744  0.00  0.00    +0.000 C 
ENDROOT
BRANCH   2   3
ATOM      3  C   UNL     1       9.523  10.745  18.999  0.00  0.00    +0.000 A 
ATOM      4  C   UNL     1      10.138  11.502  17.976  0.00  0.00    +0.000 A 
ATOM      5  C   UNL     1      10.613  12.797  18.211  0.00  0.00    +0.000 A 
ATOM      6  C   UNL     1      10.454  13.316  19.476  0.00  0.00    +0.000 A 
ATOM      7  C   UNL     1       9.838  12.603  20.476  0.00  0.00    +0.000 A 
ATOM      8  C   UNL     1       9.351  11.325  20.268  0.00  0.00    +0.000 A 
ATOM      9  O   UNL     1       9.783  13.300  21.643  0.00  0.00    +0.000 OA
ATOM     10  C   UNL     1      10.494  14.501  21.279  0.00  0.00    +0.000 C 
ATOM     11  O   UNL     1      10.865  14.545  19.885  0.00  0.00    +0.000 OA
ENDBRANCH   2   3
BRANCH   1  13
ATOM     12  C   UNL     1       7.825   6.717  18.395  0.00  0.00    +0.000 C 
ATOM     13  C   UNL     1       7.531   7.773  17.617  0.00  0.00    +0.000 C 
BRANCH  12  15
ATOM     14  N   UNL     1       5.930   5.242  18.413  0.00  0.00    +0.000 N 
ATOM     15  C   UNL     1       7.255   5.381  18.076  0.00  0.00    +0.000 C 
ATOM     16  O   UNL     1       7.924   4.491  17.559  0.00  0.00    +0.000 OA
ATOM     17  H   UNL     1       5.420   6.008  18.832  0.00  0.00    +0.000 HD
BRANCH  14  19
ATOM     18  C   UNL     1       4.458   3.996  16.864  0.00  0.00    +0.000 C 
ATOM     19  C   UNL     1       5.236   3.990  18.169  0.00  0.00    +0.000 C 
ENDBRANCH  14  19
ENDBRANCH  12  15
ENDBRANCH   1  13
TORSDOF 4
ENDMDL
MODEL 5
REMARK VINA RESULT:      -6.8      2.660      8.962
REMARK  Name = 
REMARK  5 active torsions:
REMARK  status: ('A' for Active; 'I' for Inactive)
REMARK    1  A    between atoms: C_1  and  C_2
REMARK    2  A    between atoms: C_2  and  N_3
REMARK    3  A    between atoms: C_4  and  C_6
REMARK    4  A    between atoms: C_7  and  C_8
REMARK    5  A    between atoms: C_9  and  C_10
REMARK                            x       y       z     vdW  Elec       q    Type
REMARK                         _______ _______ _______ _____ _____    ______ ____
ROOT
ATOM      1  C   UNL     1       7.496   8.392  17.927  0.00  0.00    +0.000 C 
ATOM      2  C   UNL     1       7.655   7.207  17.308  0.00  0.00    +0.000 C 
ENDROOT
BRANCH   2   3
ATOM      3  C   UNL     1       6.654   6.126  17.345  0.00  0.00    +0.000 A 
ATOM      4  C   UNL     1       5.892   5.792  16.202  0.00  0.00    +0.000 A 
ATOM      5  C   UNL     1       4.949   4.759  16.230  0.00  0.00    +0.000 A 
ATOM      6  C   UNL     1       4.792   4.069  17.411  0.00  0.00    +0.000 A 
ATOM      7  C   UNL     1       5.541   4.365  18.524  0.00  0.00    +0.000 A 
ATOM      8  C   UNL     1       6.486   5.375  18.521  0.00  0.00    +0.000 A 
ATOM      9  O   UNL     1       5.230   3.563  19.579  0.00  0.00    +0.000 OA
ATOM     10  C   UNL     1       4.156   2.779  19.019  0.00  0.00    +0.000 C 
ATOM     11  O   UNL     1       3.918   3.050  17.622  0.00  0.00    +0.000 OA
ENDBRANCH   2   3
BRANCH   1  13
ATOM     12  C   UNL     1       9.075   9.975  18.960  0.00  0.00    +0.000 C 
ATOM     13  C   UNL     1       8.473   9.462  17.872  0.00  0.00    +0.000 C 
BRANCH  12  15
ATOM     14  N   UNL     1      10.551  11.559  19.996  0.00  0.00    +0.000 N 
ATOM     15  C   UNL     1      10.062  11.076  18.807  0.00  0.00    +0.000 C 
ATOM     16  O   UNL     1      10.397  11.507  17.707  0.00  0.00    +0.000 OA
ATOM     17  H   UNL     1      10.248  11.167  20.878  0.00  0.00    +0.000 HD
BRANCH  14  19
ATOM     18  C   UNL     1      10.888  13.988  20.329  0.00  0.00    +0.000 C 
ATOM     19  C   UNL     1      11.518  12.643  20.008  0.00  0.00    +0.000 C 
ENDBRANCH  14  19
ENDBRANCH  12  15
ENDBRANCH   1  13
TORSDOF 4
ENDMDL
MODEL 6
REMARK VINA RESULT:      -6.7      2.594      8.357
REMARK  Name = 
REMARK  5 active torsions:
REMARK  status: ('A' for Active; 'I' for Inactive)
REMARK    1  A    between atoms: C_1  and  C_2
REMARK    2  A    between atoms: C_2  and  N_3
REMARK    3  A    between atoms: C_4  and  C_6
REMARK    4  A    between atoms: C_7  and  C_8
REMARK    5  A    between atoms: C_9  and  C_10
REMARK                            x       y       z     vdW  Elec       q    Type
REMARK                         _______ _______ _______ _____ _____    ______ ____
ROOT
ATOM      1  C   UNL     1       8.960   9.615  18.935  0.00  0.00    +0.000 C 
ATOM      2  C   UNL     1       8.352   9.070  17.864  0.00  0.00    +0.000 C 
ENDROOT
BRANCH   2   3
ATOM      3  C   UNL     1       7.684   7.755  17.885  0.00  0.00    +0.000 A 
ATOM      4  C   UNL     1       8.137   6.717  18.730  0.00  0.00    +0.000 A 
ATOM      5  C   UNL     1       7.498   5.472  18.761  0.00  0.00    +0.000 A 
ATOM      6  C   UNL     1       6.405   5.294  17.943  0.00  0.00    +0.000 A 
ATOM      7  C   UNL     1       5.938   6.301  17.134  0.00  0.00    +0.000 A 
ATOM      8  C   UNL     1       6.545   7.543  17.091  0.00  0.00    +0.000 A 
ATOM      9  O   UNL     1       4.850   5.916  16.412  0.00  0.00    +0.000 OA
ATOM     10  C   UNL     1       4.731   4.535  16.813  0.00  0.00    +0.000 C 
ATOM     11  O   UNL     1       5.675   4.152  17.834  0.00  0.00    +0.000 OA
ENDBRANCH   2   3
BRANCH   1  13
ATOM     12  C   UNL     1      10.310  11.380  17.875  0.00  0.00    +0.000 C 
ATOM     13  C   UNL     1       9.597  10.916  18.917  0.00  0.00    +0.000 C 
BRANCH  12  15
ATOM     14  N   UNL     1      10.500  13.599  16.979  0.00  0.00    +0.000 N 
ATOM     15  C   UNL     1      10.934  12.728  17.948  0.00  0.00    +0.000 C 
ATOM     16  O   UNL     1      11.765  13.018  18.804  0.00  0.00    +0.000 OA
ATOM     17  H   UNL     1       9.808  13.314  16.299  0.00  0.00    +0.000 HD
BRANCH  14  19
ATOM     18  C   UNL     1      10.132  15.961  17.619  0.00  0.00    +0.000 C 
ATOM     19  C   UNL     1      11.025  14.952  16.917  0.00  0.00    +0.000 C 
ENDBRANCH  14  19
ENDBRANCH  12  15
ENDBRANCH   1  13
TORSDOF 4
ENDMDL
MODEL 7
REMARK VINA RESULT:      -6.7      1.759      1.847
REMARK  Name = 
REMARK  5 active torsions:
REMARK  status: ('A' for Active; 'I' for Inactive)
REMARK    1  A    between atoms: C_1  and  C_2
REMARK    2  A    between atoms: C_2  and  N_3
REMARK    3  A    between atoms: C_4  and  C_6
REMARK    4  A    between atoms: C_7  and  C_8
REMARK    5  A    between atoms: C_9  and  C_10
REMARK                            x       y       z     vdW  Elec       q    Type
REMARK                         _______ _______ _______ _____ _____    ______ ____
ROOT
ATOM      1  C   UNL     1       8.256   8.195  18.259  0.00  0.00    +0.000 C 
ATOM      2  C   UNL     1       8.245   9.479  17.851  0.00  0.00    +0.000 C 
ENDROOT
BRANCH   2   3
ATOM      3  C   UNL     1       8.970  10.561  18.541  0.00  0.00    +0.000 A 
ATOM      4  C   UNL     1       9.447  10.399  19.861  0.00  0.00    +0.000 A 
ATOM      5  C   UNL     1      10.145  11.421  20.514  0.00  0.00    +0.000 A 
ATOM      6  C   UNL     1      10.361  12.591  19.824  0.00  0.00    +0.000 A 
ATOM      7  C   UNL     1       9.926  12.756  18.531  0.00  0.00    +0.000 A 
ATOM      8  C   UNL     1       9.241  11.760  17.858  0.00  0.00    +0.000 A 
ATOM      9  O   UNL     1      10.244  13.983  18.035  0.00  0.00    +0.000 OA
ATOM     10  C   UNL     1      10.869  14.589  19.186  0.00  0.00    +0.000 C 
ATOM     11  O   UNL     1      11.006  13.687  20.304  0.00  0.00    +0.000 OA
ENDBRANCH   2   3
BRANCH   1  13
ATOM     12  C   UNL     1       6.292   7.233  17.128  0.00  0.00    +0.000 C 
ATOM     13  C   UNL     1       7.559   7.130  17.567  0.00  0.00    +0.000 C 
BRANCH  12  15
ATOM     14  N   UNL     1       5.062   5.176  17.274  0.00  0.00    +0.000 N 
ATOM     15  C   UNL     1       5.656   6.084  16.431  0.00  0.00    +0.000 C 
ATOM     16  O   UNL     1       5.673   5.970  15.209  0.00  0.00    +0.000 OA
ATOM     17  H   UNL     1       5.069   5.318  18.276  0.00  0.00    +0.000 HD
BRANCH  14  19
ATOM     18  C   UNL     1       3.218   3.556  17.579  0.00  0.00    +0.000 C 
ATOM     19  C   UNL     1       4.405   3.996  16.740  0.00  0.00    +0.000 C 
ENDBRANCH  14  19
ENDBRANCH  12  15
ENDBRANCH   1  13
TORSDOF 4
ENDMDL
MODEL 8
REMARK VINA RESULT:      -6.7      2.739      8.679
REMARK  Name = 
REMARK  5 active torsions:
REMARK  status: ('A' for Active; 'I' for Inactive)
REMARK    1  A    between atoms: C_1  and  C_2
REMARK    2  A    between atoms: C_2  and  N_3
REMARK    3  A    between atoms: C_4  and  C_6
REMARK    4  A    between atoms: C_7  and  C_8
REMARK    5  A    between atoms: C_9  and  C_10
REMARK                            x       y       z     vdW  Elec       q    Type
REMARK                         _______ _______ _______ _____ _____    ______ ____
ROOT
ATOM      1  C   UNL     1       7.447   8.589  17.753  0.00  0.00    +0.000 C 
ATOM      2  C   UNL     1       7.711   7.334  17.342  0.00  0.00    +0.000 C 
ENDROOT
BRANCH   2   3
ATOM      3  C   UNL     1       6.681   6.290  17.192  0.00  0.00    +0.000 A 
ATOM      4  C   UNL     1       6.960   5.075  16.526  0.00  0.00    +0.000 A 
ATOM      5  C   UNL     1       5.988   4.077  16.392  0.00  0.00    +0.000 A 
ATOM      6  C   UNL     1       4.748   4.315  16.938  0.00  0.00    +0.000 A 
ATOM      7  C   UNL     1       4.467   5.481  17.609  0.00  0.00    +0.000 A 
ATOM      8  C   UNL     1       5.411   6.479  17.764  0.00  0.00    +0.000 A 
ATOM      9  O   UNL     1       3.187   5.511  18.070  0.00  0.00    +0.000 OA
ATOM     10  C   UNL     1       2.680   4.263  17.554  0.00  0.00    +0.000 C 
ATOM     11  O   UNL     1       3.685   3.468  16.891  0.00  0.00    +0.000 OA
ENDBRANCH   2   3
BRANCH   1  13
ATOM     12  C   UNL     1       9.058   9.932  19.042  0.00  0.00    +0.000 C 
ATOM     13  C   UNL     1       8.458   9.619  17.880  0.00  0.00    +0.000 C 
BRANCH  12  15
ATOM     14  N   UNL     1      10.534  11.395  17.839  0.00  0.00    +0.000 N 
ATOM     15  C   UNL     1      10.083  11.009  19.078  0.00  0.00    +0.000 C 
ATOM     16  O   UNL     1      10.482  11.496  20.131  0.00  0.00    +0.000 OA
ATOM     17  H   UNL     1      10.169  10.967  16.999  0.00  0.00    +0.000 HD
BRANCH  14  19
ATOM     18  C   UNL     1      10.972  13.747  17.210  0.00  0.00    +0.000 C 
ATOM     19  C   UNL     1      11.543  12.432  17.714  0.00  0.00    +0.000 C 
ENDBRANCH  14  19
ENDBRANCH  12  15
ENDBRANCH   1  13
TORSDOF 4
ENDMDL
MODEL 9
REMARK VINA RESULT:      -6.6      1.973      2.484
REMARK  Name = 
REMARK  5 active torsions:
REMARK  status: ('A' for Active; 'I' for Inactive)
REMARK    1  A    between atoms: C_1  and  C_2
REMARK    2  A    between atoms: C_2  and  N_3
REMARK    3  A    between atoms: C_4  and  C_6
REMARK    4  A    between atoms: C_7  and  C_8
REMARK    5  A    between atoms: C_9  and  C_10
REMARK                            x       y       z     vdW  Elec       q    Type
REMARK                         _______ _______ _______ _____ _____    ______ ____
ROOT
ATOM      1  C   UNL     1       8.385   9.276  17.827  0.00  0.00    +0.000 C 
ATOM      2  C   UNL     1       9.159  10.039  18.622  0.00  0.00    +0.000 C 
ENDROOT
BRANCH   2   3
ATOM      3  C   UNL     1       9.584  11.409  18.278  0.00  0.00    +0.000 A 
ATOM      4  C   UNL     1      10.875  11.669  17.765  0.00  0.00    +0.000 A 
ATOM      5  C   UNL     1      11.276  12.966  17.427  0.00  0.00    +0.000 A 
ATOM      6  C   UNL     1      10.367  13.984  17.603  0.00  0.00    +0.000 A 
ATOM      7  C   UNL     1       9.100  13.745  18.078  0.00  0.00    +0.000 A 
ATOM      8  C   UNL     1       8.674  12.472  18.411  0.00  0.00    +0.000 A 
ATOM      9  O   UNL     1       8.364  14.886  18.174  0.00  0.00    +0.000 OA
ATOM     10  C   UNL     1       9.336  15.872  17.769  0.00  0.00    +0.000 C 
ATOM     11  O   UNL     1      10.589  15.299  17.342  0.00  0.00    +0.000 OA
ENDBRANCH   2   3
BRANCH   1  13
ATOM     12  C   UNL     1       7.556   7.025  17.273  0.00  0.00    +0.000 C 
ATOM     13  C   UNL     1       7.952   7.938  18.177  0.00  0.00    +0.000 C 
BRANCH  12  15
ATOM     14  N   UNL     1       5.964   5.678  18.462  0.00  0.00    +0.000 N 
ATOM     15  C   UNL     1       7.123   5.677  17.725  0.00  0.00    +0.000 C 
ATOM     16  O   UNL     1       7.759   4.662  17.457  0.00  0.00    +0.000 OA
ATOM     17  H   UNL     1       5.472   6.542  18.652  0.00  0.00    +0.000 HD
BRANCH  14  19
ATOM     18  C   UNL     1       3.903   4.451  19.069  0.00  0.00    +0.000 C 
ATOM     19  C   UNL     1       5.420   4.436  18.981  0.00  0.00    +0.000 C 
ENDBRANCH  14  19
ENDBRANCH  12  15
ENDBRANCH   1  13
TORSDOF 4
ENDMDL
