MODEL 1
REMARK VINA RESULT:      -9.5      0.000      0.000
REMARK  Name = 
REMARK  4 active torsions:
REMARK  status: ('A' for Active; 'I' for Inactive)
REMARK    1  A    between atoms: C_1  and  C_2
REMARK    2  A    between atoms: N_4  and  C_5
REMARK    3  A    between atoms: C_9  and  C_10
REMARK    4  A    between atoms: C_13  and  C_14
REMARK                            x       y       z     vdW  Elec       q    Type
REMARK                         _______ _______ _______ _____ _____    ______ ____
ROOT
ATOM      1  C   UNL     1       2.231   6.548  19.686  0.00  0.00    +0.000 A 
ATOM      2  C   UNL     1       3.095   5.960  18.831  0.00  0.00    +0.000 A 
ATOM      3  N   UNL     1       3.546   4.676  19.090  0.00  0.00    +0.000 N 
ATOM      4  C   UNL     1       4.475   3.847  18.478  0.00  0.00    +0.000 A 
ATOM      5  C   UNL     1       4.394   2.675  19.225  0.00  0.00    +0.000 A 
ATOM      6  N   UNL     1       3.510   2.777  20.270  0.00  0.00    +0.000 NA
ATOM      7  C   UNL     1       3.040   3.995  20.166  0.00  0.00    +0.000 A 
ATOM      8  C   UNL     1       2.087   4.658  21.012  0.00  0.00    +0.000 A 
ATOM      9  N   UNL     1       1.698   5.886  20.793  0.00  0.00    +0.000 NA
ENDROOT
BRANCH   4  10
ATOM     10  C   UNL     1       5.326   4.169  17.325  0.00  0.00    +0.000 A 
ATOM     11  C   UNL     1       6.582   4.768  17.528  0.00  0.00    +0.000 A 
ATOM     12  C   UNL     1       7.406   5.098  16.446  0.00  0.00    +0.000 A 
ATOM     13  C   UNL     1       6.988   4.821  15.151  0.00  0.00    +0.000 A 
ATOM     14  F   UNL     1       7.798   5.132  14.128  0.00  0.00    +0.000 F 
ATOM     15  C   UNL     1       5.746   4.238  14.926  0.00  0.00    +0.000 A 
ATOM     16 CL   UNL     1       5.219   3.878  13.326  0.00  0.00    +0.000 Cl
ATOM     17  C   UNL     1       4.910   3.936  16.004  0.00  0.00    +0.000 A 
ENDBRANCH   4  10
BRANCH   1  22
ATOM     18  C   UNL     1       0.537   9.936  20.086  0.00  0.00    +0.000 A 
ATOM     19  C   UNL     1       0.975  10.587  18.933  0.00  0.00    +0.000 A 
ATOM     20  C   UNL     1       1.837   9.951  18.043  0.00  0.00    +0.000 A 
ATOM     21  C   UNL     1       2.258   8.648  18.295  0.00  0.00    +0.000 A 
ATOM     22  C   UNL     1       1.817   7.954  19.436  0.00  0.00    +0.000 A 
ATOM     23  C   UNL     1       0.984   8.630  20.346  0.00  0.00    +0.000 A 
BRANCH  18  27
ATOM     24  C   UNL     1      -1.366  11.161  23.104  0.00  0.00    +0.000 C 
ATOM     25  C   UNL     1      -0.217  10.495  22.397  0.00  0.00    +0.000 C 
ATOM     26  O   UNL     1       0.698   9.989  23.039  0.00  0.00    +0.000 OA
ATOM     27  N   UNL     1      -0.338  10.538  21.017  0.00  0.00    +0.000 N 
ATOM     28  H   UNL     1      -1.063  11.133  20.634  0.00  0.00    +0.000 HD
ENDBRANCH  18  27
ENDBRANCH   1  22
TORSDOF 3
ENDMDL
MODEL 2
REMARK VINA RESULT:      -8.7      4.372      6.435
REMARK  Name = 
REMARK  4 active torsions:
REMARK  status: ('A' for Active; 'I' for Inactive)
REMARK    1  A    between atoms: C_1  and  C_2
REMARK    2  A    between atoms: N_4  and  C_5
REMARK    3  A    between atoms: C_9  and  C_10
REMARK    4  A    between atoms: C_13  and  C_14
REMARK                            x       y       z     vdW  Elec       q    Type
REMARK                         _______ _______ _______ _____ _____    ______ ____
ROOT
ATOM      1  C   UNL     1      -1.410  10.551  19.361  0.00  0.00    +0.000 A 
ATOM      2  C   UNL     1      -0.574   9.496  19.466  0.00  0.00    +0.000 A 
ATOM      3  N   UNL     1       0.266   9.397  20.563  0.00  0.00    +0.000 N 
ATOM      4  C   UNL     1       1.274   8.513  20.918  0.00  0.00    +0.000 A 
ATOM      5  C   UNL     1       1.665   8.966  22.176  0.00  0.00    +0.000 A 
ATOM      6  N   UNL     1       0.983  10.092  22.564  0.00  0.00    +0.000 NA
ATOM      7  C   UNL     1       0.171  10.328  21.564  0.00  0.00    +0.000 A 
ATOM      8  C   UNL     1      -0.772  11.401  21.415  0.00  0.00    +0.000 A 
ATOM      9  N   UNL     1      -1.530  11.520  20.358  0.00  0.00    +0.000 NA
ENDROOT
BRANCH   4  10
ATOM     10  C   UNL     1       1.785   7.385  20.126  0.00  0.00    +0.000 A 
ATOM     11  C   UNL     1       2.374   7.622  18.872  0.00  0.00    +0.000 A 
ATOM     12  C   UNL     1       2.855   6.564  18.092  0.00  0.00    +0.000 A 
ATOM     13  C   UNL     1       2.762   5.261  18.562  0.00  0.00    +0.000 A 
ATOM     14  F   UNL     1       3.241   4.263  17.805  0.00  0.00    +0.000 F 
ATOM     15  C   UNL     1       2.173   5.003  19.795  0.00  0.00    +0.000 A 
ATOM     16 CL   UNL     1       2.060   3.393  20.397  0.00  0.00    +0.000 Cl
ATOM     17  C   UNL     1       1.666   6.056  20.561  0.00  0.00    +0.000 A 
ENDBRANCH   4  10
BRANCH   1  22
ATOM     18  C   UNL     1      -4.198  11.625  16.999  0.00  0.00    +0.000 A 
ATOM     19  C   UNL     1      -3.877  10.887  15.860  0.00  0.00    +0.000 A 
ATOM     20  C   UNL     1      -2.750  10.069  15.839  0.00  0.00    +0.000 A 
ATOM     21  C   UNL     1      -1.941   9.973  16.967  0.00  0.00    +0.000 A 
ATOM     22  C   UNL     1      -2.248  10.686  18.140  0.00  0.00    +0.000 A 
ATOM     23  C   UNL     1      -3.364  11.541  18.125  0.00  0.00    +0.000 A 
BRANCH  18  27
ATOM     24  C   UNL     1      -7.585  13.225  17.445  0.00  0.00    +0.000 C 
ATOM     25  C   UNL     1      -6.562  12.133  17.610  0.00  0.00    +0.000 C 
ATOM     26  O   UNL     1      -6.857  11.086  18.176  0.00  0.00    +0.000 OA
ATOM     27  N   UNL     1      -5.331  12.466  17.069  0.00  0.00    +0.000 N 
ATOM     28  H   UNL     1      -5.195  13.428  16.782  0.00  0.00    +0.000 HD
ENDBRANCH  18  27
ENDBRANCH   1  22
TORSDOF 3
ENDMDL
MODEL 3
REMARK VINA RESULT:      -8.5      1.113      1.397
REMARK  Name = 
REMARK  4 active torsions:
REMARK  status: ('A' for Active; 'I' for Inactive)
REMARK    1  A    between atoms: C_1  and  C_2
REMARK    2  A    between atoms: N_4  and  C_5
REMARK    3  A    between atoms: C_9  and  C_10
REMARK    4  A    between atoms: C_13  and  C_14
REMARK                            x       y       z     vdW  Elec       q    Type
REMARK                         _______ _______ _______ _____ _____    ______ ____
ROOT
ATOM      1  C   UNL     1       2.006   6.707  19.804  0.00  0.00    +0.000 A 
ATOM      2  C   UNL     1       2.904   6.139  18.970  0.00  0.00    +0.000 A 
ATOM      3  N   UNL     1       3.334   4.844  19.210  0.00  0.00    +0.000 N 
ATOM      4  C   UNL     1       4.285   4.028  18.615  0.00  0.00    +0.000 A 
ATOM      5  C   UNL     1       4.162   2.833  19.319  0.00  0.00    +0.000 A 
ATOM      6  N   UNL     1       3.232   2.909  20.326  0.00  0.00    +0.000 NA
ATOM      7  C   UNL     1       2.775   4.134  20.239  0.00  0.00    +0.000 A 
ATOM      8  C   UNL     1       1.789   4.778  21.061  0.00  0.00    +0.000 A 
ATOM      9  N   UNL     1       1.419   6.015  20.864  0.00  0.00    +0.000 NA
ENDROOT
BRANCH   4  10
ATOM     10  C   UNL     1       5.190   4.378  17.512  0.00  0.00    +0.000 A 
ATOM     11  C   UNL     1       5.237   3.571  16.362  0.00  0.00    +0.000 A 
ATOM     12  C   UNL     1       6.101   3.874  15.304  0.00  0.00    +0.000 A 
ATOM     13  C   UNL     1       6.919   4.994  15.379  0.00  0.00    +0.000 A 
ATOM     14  F   UNL     1       7.730   5.275  14.350  0.00  0.00    +0.000 F 
ATOM     15  C   UNL     1       6.897   5.801  16.512  0.00  0.00    +0.000 A 
ATOM     16 CL   UNL     1       7.897   7.200  16.616  0.00  0.00    +0.000 Cl
ATOM     17  C   UNL     1       6.056   5.481  17.582  0.00  0.00    +0.000 A 
ENDBRANCH   4  10
BRANCH   1  22
ATOM     18  C   UNL     1       0.333  10.100  20.246  0.00  0.00    +0.000 A 
ATOM     19  C   UNL     1       0.812  10.777  19.124  0.00  0.00    +0.000 A 
ATOM     20  C   UNL     1       1.694  10.156  18.243  0.00  0.00    +0.000 A 
ATOM     21  C   UNL     1       2.095   8.843  18.472  0.00  0.00    +0.000 A 
ATOM     22  C   UNL     1       1.614   8.124  19.580  0.00  0.00    +0.000 A 
ATOM     23  C   UNL     1       0.760   8.784  20.483  0.00  0.00    +0.000 A 
BRANCH  18  27
ATOM     24  C   UNL     1      -1.646  11.266  23.237  0.00  0.00    +0.000 C 
ATOM     25  C   UNL     1      -0.483  10.607  22.547  0.00  0.00    +0.000 C 
ATOM     26  O   UNL     1       0.409  10.077  23.202  0.00  0.00    +0.000 OA
ATOM     27  N   UNL     1      -0.563  10.687  21.166  0.00  0.00    +0.000 N 
ATOM     28  H   UNL     1      -1.272  11.297  20.777  0.00  0.00    +0.000 HD
ENDBRANCH  18  27
ENDBRANCH   1  22
TORSDOF 3
ENDMDL
MODEL 4
REMARK VINA RESULT:      -8.4      4.221      6.388
REMARK  Name = 
REMARK  4 active torsions:
REMARK  status: ('A' for Active; 'I' for Inactive)
REMARK    1  A    between atoms: C_1  and  C_2
REMARK    2  A    between atoms: N_4  and  C_5
REMARK    3  A    between atoms: C_9  and  C_10
REMARK    4  A    between atoms: C_13  and  C_14
REMARK                            x       y       z     vdW  Elec       q    Type
REMARK                         _______ _______ _______ _____ _____    ______ ____
ROOT
ATOM      1  C   UNL     1      -1.421  10.553  19.435  0.00  0.00    +0.000 A 
ATOM      2  C   UNL     1      -0.596   9.492  19.571  0.00  0.00    +0.000 A 
ATOM      3  N   UNL     1       0.220   9.402  20.687  0.00  0.00    +0.000 N 
ATOM      4  C   UNL     1       1.214   8.515  21.075  0.00  0.00    +0.000 A 
ATOM      5  C   UNL     1       1.582   8.981  22.334  0.00  0.00    +0.000 A 
ATOM      6  N   UNL     1       0.901  10.118  22.693  0.00  0.00    +0.000 NA
ATOM      7  C   UNL     1       0.112  10.347  21.673  0.00  0.00    +0.000 A 
ATOM      8  C   UNL     1      -0.819  11.425  21.491  0.00  0.00    +0.000 A 
ATOM      9  N   UNL     1      -1.555  11.535  20.417  0.00  0.00    +0.000 NA
ENDROOT
BRANCH   4  10
ATOM     10  C   UNL     1       1.732   7.373  20.309  0.00  0.00    +0.000 A 
ATOM     11  C   UNL     1       1.436   6.062  20.720  0.00  0.00    +0.000 A 
ATOM     12  C   UNL     1       1.929   4.958  20.017  0.00  0.00    +0.000 A 
ATOM     13  C   UNL     1       2.714   5.152  18.888  0.00  0.00    +0.000 A 
ATOM     14  F   UNL     1       3.166   4.081  18.220  0.00  0.00    +0.000 F 
ATOM     15  C   UNL     1       3.029   6.440  18.469  0.00  0.00    +0.000 A 
ATOM     16 CL   UNL     1       3.992   6.698  17.064  0.00  0.00    +0.000 Cl
ATOM     17  C   UNL     1       2.561   7.543  19.188  0.00  0.00    +0.000 A 
ENDBRANCH   4  10
BRANCH   1  22
ATOM     18  C   UNL     1      -4.157  11.608  17.004  0.00  0.00    +0.000 A 
ATOM     19  C   UNL     1      -3.811  10.860  15.878  0.00  0.00    +0.000 A 
ATOM     20  C   UNL     1      -2.685  10.042  15.889  0.00  0.00    +0.000 A 
ATOM     21  C   UNL     1      -1.900   9.955  17.035  0.00  0.00    +0.000 A 
ATOM     22  C   UNL     1      -2.233  10.677  18.195  0.00  0.00    +0.000 A 
ATOM     23  C   UNL     1      -3.348  11.533  18.149  0.00  0.00    +0.000 A 
BRANCH  18  27
ATOM     24  C   UNL     1      -7.550  13.214  17.372  0.00  0.00    +0.000 C 
ATOM     25  C   UNL     1      -6.530  12.126  17.570  0.00  0.00    +0.000 C 
ATOM     26  O   UNL     1      -6.834  11.088  18.149  0.00  0.00    +0.000 OA
ATOM     27  N   UNL     1      -5.290  12.450  17.042  0.00  0.00    +0.000 N 
ATOM     28  H   UNL     1      -5.150  13.407  16.742  0.00  0.00    +0.000 HD
ENDBRANCH  18  27
ENDBRANCH   1  22
TORSDOF 3
ENDMDL
MODEL 5
REMARK VINA RESULT:      -8.4      4.147      8.101
REMARK  Name = 
REMARK  4 active torsions:
REMARK  status: ('A' for Active; 'I' for Inactive)
REMARK    1  A    between atoms: C_1  and  C_2
REMARK    2  A    between atoms: N_4  and  C_5
REMARK    3  A    between atoms: C_9  and  C_10
REMARK    4  A    between atoms: C_13  and  C_14
REMARK                            x       y       z     vdW  Elec       q    Type
REMARK                         _______ _______ _______ _____ _____    ______ ____
ROOT
ATOM      1  C   UNL     1       4.306   3.910  17.546  0.00  0.00    +0.000 A 
ATOM      2  C   UNL     1       3.672   4.845  18.286  0.00  0.00    +0.000 A 
ATOM      3  N   UNL     1       2.758   4.449  19.249  0.00  0.00    +0.000 N 
ATOM      4  C   UNL     1       1.898   5.139  20.091  0.00  0.00    +0.000 A 
ATOM      5  C   UNL     1       1.306   4.125  20.839  0.00  0.00    +0.000 A 
ATOM      6  N   UNL     1       1.727   2.876  20.457  0.00  0.00    +0.000 NA
ATOM      7  C   UNL     1       2.579   3.113  19.491  0.00  0.00    +0.000 A 
ATOM      8  C   UNL     1       3.319   2.167  18.703  0.00  0.00    +0.000 A 
ATOM      9  N   UNL     1       4.145   2.541  17.762  0.00  0.00    +0.000 NA
ENDROOT
BRANCH   4  10
ATOM     10  C   UNL     1       1.686   6.592  20.145  0.00  0.00    +0.000 A 
ATOM     11  C   UNL     1       1.195   7.183  21.322  0.00  0.00    +0.000 A 
ATOM     12  C   UNL     1       0.970   8.563  21.395  0.00  0.00    +0.000 A 
ATOM     13  C   UNL     1       1.245   9.366  20.297  0.00  0.00    +0.000 A 
ATOM     14  F   UNL     1       1.035  10.688  20.391  0.00  0.00    +0.000 F 
ATOM     15  C   UNL     1       1.721   8.802  19.119  0.00  0.00    +0.000 A 
ATOM     16 CL   UNL     1       2.078   9.787  17.751  0.00  0.00    +0.000 Cl
ATOM     17  C   UNL     1       1.918   7.420  19.036  0.00  0.00    +0.000 A 
ENDBRANCH   4  10
BRANCH   1  22
ATOM     18  C   UNL     1       6.306   3.952  14.304  0.00  0.00    +0.000 A 
ATOM     19  C   UNL     1       7.013   5.146  14.447  0.00  0.00    +0.000 A 
ATOM     20  C   UNL     1       6.826   5.951  15.567  0.00  0.00    +0.000 A 
ATOM     21  C   UNL     1       5.937   5.560  16.564  0.00  0.00    +0.000 A 
ATOM     22  C   UNL     1       5.225   4.351  16.463  0.00  0.00    +0.000 A 
ATOM     23  C   UNL     1       5.393   3.575  15.302  0.00  0.00    +0.000 A 
BRANCH  18  27
ATOM     24  C   UNL     1       5.988   1.900  11.155  0.00  0.00    +0.000 C 
ATOM     25  C   UNL     1       5.565   2.955  12.141  0.00  0.00    +0.000 C 
ATOM     26  O   UNL     1       4.525   3.582  11.972  0.00  0.00    +0.000 OA
ATOM     27  N   UNL     1       6.462   3.101  13.188  0.00  0.00    +0.000 N 
ATOM     28  H   UNL     1       7.355   2.629  13.103  0.00  0.00    +0.000 HD
ENDBRANCH  18  27
ENDBRANCH   1  22
TORSDOF 3
ENDMDL
MODEL 6
REMARK VINA RESULT:      -8.3      4.447      8.271
REMARK  Name = 
REMARK  4 active torsions:
REMARK  status: ('A' for Active; 'I' for Inactive)
REMARK    1  A    between atoms: C_1  and  C_2
REMARK    2  A    between atoms: N_4  and  C_5
REMARK    3  A    between atoms: C_9  and  C_10
REMARK    4  A    between atoms: C_13  and  C_14
REMARK                            x       y       z     vdW  Elec       q    Type
REMARK                         _______ _______ _______ _____ _____    ______ ____
ROOT
ATOM      1  C   UNL     1       4.353   3.946  17.549  0.00  0.00    +0.000 A 
ATOM      2  C   UNL     1       3.704   4.896  18.256  0.00  0.00    +0.000 A 
ATOM      3  N   UNL     1       2.790   4.520  19.226  0.00  0.00    +0.000 N 
ATOM      4  C   UNL     1       1.917   5.226  20.042  0.00  0.00    +0.000 A 
ATOM      5  C   UNL     1       1.333   4.229  20.819  0.00  0.00    +0.000 A 
ATOM      6  N   UNL     1       1.770   2.973  20.478  0.00  0.00    +0.000 NA
ATOM      7  C   UNL     1       2.625   3.190  19.509  0.00  0.00    +0.000 A 
ATOM      8  C   UNL     1       3.380   2.229  18.754  0.00  0.00    +0.000 A 
ATOM      9  N   UNL     1       4.207   2.583  17.807  0.00  0.00    +0.000 NA
ENDROOT
BRANCH   4  10
ATOM     10  C   UNL     1       1.688   6.677  20.050  0.00  0.00    +0.000 A 
ATOM     11  C   UNL     1       2.007   7.441  18.914  0.00  0.00    +0.000 A 
ATOM     12  C   UNL     1       1.812   8.827  18.901  0.00  0.00    +0.000 A 
ATOM     13  C   UNL     1       1.285   9.461  20.018  0.00  0.00    +0.000 A 
ATOM     14  F   UNL     1       1.093  10.788  19.981  0.00  0.00    +0.000 F 
ATOM     15  C   UNL     1       0.972   8.726  21.157  0.00  0.00    +0.000 A 
ATOM     16 CL   UNL     1       0.307   9.496  22.547  0.00  0.00    +0.000 Cl
ATOM     17  C   UNL     1       1.195   7.346  21.181  0.00  0.00    +0.000 A 
ENDBRANCH   4  10
BRANCH   1  22
ATOM     18  C   UNL     1       6.328   3.935  14.292  0.00  0.00    +0.000 A 
ATOM     19  C   UNL     1       7.062   5.114  14.425  0.00  0.00    +0.000 A 
ATOM     20  C   UNL     1       6.901   5.927  15.544  0.00  0.00    +0.000 A 
ATOM     21  C   UNL     1       6.011   5.558  16.548  0.00  0.00    +0.000 A 
ATOM     22  C   UNL     1       5.273   4.364  16.457  0.00  0.00    +0.000 A 
ATOM     23  C   UNL     1       5.415   3.580  15.298  0.00  0.00    +0.000 A 
BRANCH  18  27
ATOM     24  C   UNL     1       5.939   1.870  11.159  0.00  0.00    +0.000 C 
ATOM     25  C   UNL     1       5.542   2.934  12.147  0.00  0.00    +0.000 C 
ATOM     26  O   UNL     1       4.505   3.570  11.992  0.00  0.00    +0.000 OA
ATOM     27  N   UNL     1       6.458   3.077  13.177  0.00  0.00    +0.000 N 
ATOM     28  H   UNL     1       7.345   2.597  13.079  0.00  0.00    +0.000 HD
ENDBRANCH  18  27
ENDBRANCH   1  22
TORSDOF 3
ENDMDL
MODEL 7
REMARK VINA RESULT:      -8.2      4.981      9.152
REMARK  Name = 
REMARK  4 active torsions:
REMARK  status: ('A' for Active; 'I' for Inactive)
REMARK    1  A    between atoms: C_1  and  C_2
REMARK    2  A    between atoms: N_4  and  C_5
REMARK    3  A    between atoms: C_9  and  C_10
REMARK    4  A    between atoms: C_13  and  C_14
REMARK                            x       y       z     vdW  Elec       q    Type
REMARK                         _______ _______ _______ _____ _____    ______ ____
ROOT
ATOM      1  C   UNL     1       0.507   9.904  21.175  0.00  0.00    +0.000 A 
ATOM      2  C   UNL     1       0.691  11.211  20.893  0.00  0.00    +0.000 A 
ATOM      3  N   UNL     1       0.018  12.170  21.633  0.00  0.00    +0.000 N 
ATOM      4  C   UNL     1      -0.079  13.552  21.543  0.00  0.00    +0.000 A 
ATOM      5  C   UNL     1      -0.875  13.884  22.636  0.00  0.00    +0.000 A 
ATOM      6  N   UNL     1      -1.295  12.781  23.336  0.00  0.00    +0.000 NA
ATOM      7  C   UNL     1      -0.755  11.776  22.692  0.00  0.00    +0.000 A 
ATOM      8  C   UNL     1      -0.873  10.372  22.971  0.00  0.00    +0.000 A 
ATOM      9  N   UNL     1      -0.276   9.466  22.244  0.00  0.00    +0.000 NA
ENDROOT
BRANCH   4  10
ATOM     10  C   UNL     1       0.523  14.419  20.522  0.00  0.00    +0.000 A 
ATOM     11  C   UNL     1       1.913  14.399  20.319  0.00  0.00    +0.000 A 
ATOM     12  C   UNL     1       2.513  15.226  19.362  0.00  0.00    +0.000 A 
ATOM     13  C   UNL     1       1.728  16.073  18.591  0.00  0.00    +0.000 A 
ATOM     14  F   UNL     1       2.320  16.848  17.671  0.00  0.00    +0.000 F 
ATOM     15  C   UNL     1       0.352  16.117  18.782  0.00  0.00    +0.000 A 
ATOM     16 CL   UNL     1      -0.638  17.154  17.826  0.00  0.00    +0.000 Cl
ATOM     17  C   UNL     1      -0.245  15.313  19.758  0.00  0.00    +0.000 A 
ENDBRANCH   4  10
BRANCH   1  22
ATOM     18  C   UNL     1       2.196   6.676  20.064  0.00  0.00    +0.000 A 
ATOM     19  C   UNL     1       2.498   6.980  18.737  0.00  0.00    +0.000 A 
ATOM     20  C   UNL     1       2.134   8.208  18.190  0.00  0.00    +0.000 A 
ATOM     21  C   UNL     1       1.474   9.149  18.975  0.00  0.00    +0.000 A 
ATOM     22  C   UNL     1       1.174   8.884  20.323  0.00  0.00    +0.000 A 
ATOM     23  C   UNL     1       1.509   7.621  20.843  0.00  0.00    +0.000 A 
BRANCH  18  27
ATOM     24  C   UNL     1       2.381   3.201  21.521  0.00  0.00    +0.000 C 
ATOM     25  C   UNL     1       1.745   4.317  20.736  0.00  0.00    +0.000 C 
ATOM     26  O   UNL     1       0.633   4.171  20.239  0.00  0.00    +0.000 OA
ATOM     27  N   UNL     1       2.546   5.445  20.663  0.00  0.00    +0.000 N 
ATOM     28  H   UNL     1       3.503   5.356  20.982  0.00  0.00    +0.000 HD
ENDBRANCH  18  27
ENDBRANCH   1  22
TORSDOF 3
ENDMDL
MODEL 8
REMARK VINA RESULT:      -8.1      4.419      8.281
REMARK  Name = 
REMARK  4 active torsions:
REMARK  status: ('A' for Active; 'I' for Inactive)
REMARK    1  A    between atoms: C_1  and  C_2
REMARK    2  A    between atoms: N_4  and  C_5
REMARK    3  A    between atoms: C_9  and  C_10
REMARK    4  A    between atoms: C_13  and  C_14
REMARK                            x       y       z     vdW  Elec       q    Type
REMARK                         _______ _______ _______ _____ _____    ______ ____
ROOT
ATOM      1  C   UNL     1       4.627   4.574  18.024  0.00  0.00    +0.000 A 
ATOM      2  C   UNL     1       3.923   5.656  18.421  0.00  0.00    +0.000 A 
ATOM      3  N   UNL     1       3.024   5.539  19.469  0.00  0.00    +0.000 N 
ATOM      4  C   UNL     1       2.110   6.409  20.045  0.00  0.00    +0.000 A 
ATOM      5  C   UNL     1       1.575   5.660  21.090  0.00  0.00    +0.000 A 
ATOM      6  N   UNL     1       2.081   4.385  21.135  0.00  0.00    +0.000 NA
ATOM      7  C   UNL     1       2.929   4.347  20.138  0.00  0.00    +0.000 A 
ATOM      8  C   UNL     1       3.739   3.246  19.697  0.00  0.00    +0.000 A 
ATOM      9  N   UNL     1       4.553   3.344  18.679  0.00  0.00    +0.000 NA
ENDROOT
BRANCH   4  10
ATOM     10  C   UNL     1       1.803   7.782  19.622  0.00  0.00    +0.000 A 
ATOM     11  C   UNL     1       2.156   8.211  18.330  0.00  0.00    +0.000 A 
ATOM     12  C   UNL     1       1.888   9.517  17.907  0.00  0.00    +0.000 A 
ATOM     13  C   UNL     1       1.254  10.405  18.766  0.00  0.00    +0.000 A 
ATOM     14  F   UNL     1       0.994  11.649  18.337  0.00  0.00    +0.000 F 
ATOM     15  C   UNL     1       0.906  10.006  20.052  0.00  0.00    +0.000 A 
ATOM     16 CL   UNL     1       0.109  11.092  21.126  0.00  0.00    +0.000 Cl
ATOM     17  C   UNL     1       1.200   8.710  20.485  0.00  0.00    +0.000 A 
ENDBRANCH   4  10
BRANCH   1  22
ATOM     18  C   UNL     1       6.229   3.949  14.625  0.00  0.00    +0.000 A 
ATOM     19  C   UNL     1       7.276   4.871  14.655  0.00  0.00    +0.000 A 
ATOM     20  C   UNL     1       7.449   5.713  15.750  0.00  0.00    +0.000 A 
ATOM     21  C   UNL     1       6.581   5.629  16.835  0.00  0.00    +0.000 A 
ATOM     22  C   UNL     1       5.530   4.695  16.848  0.00  0.00    +0.000 A 
ATOM     23  C   UNL     1       5.343   3.886  15.713  0.00  0.00    +0.000 A 
BRANCH  18  27
ATOM     24  C   UNL     1       5.971   2.191  11.298  0.00  0.00    +0.000 C 
ATOM     25  C   UNL     1       6.445   3.268  12.236  0.00  0.00    +0.000 C 
ATOM     26  O   UNL     1       7.139   4.191  11.822  0.00  0.00    +0.000 OA
ATOM     27  N   UNL     1       6.013   3.073  13.538  0.00  0.00    +0.000 N 
ATOM     28  H   UNL     1       5.587   2.181  13.757  0.00  0.00    +0.000 HD
ENDBRANCH  18  27
ENDBRANCH   1  22
TORSDOF 3
ENDMDL
MODEL 9
REMARK VINA RESULT:      -8.0      4.778      9.075
REMARK  Name = 
REMARK  4 active torsions:
REMARK  status: ('A' for Active; 'I' for Inactive)
REMARK    1  A    between atoms: C_1  and  C_2
REMARK    2  A    between atoms: N_4  and  C_5
REMARK    3  A    between atoms: C_9  and  C_10
REMARK    4  A    between atoms: C_13  and  C_14
REMARK                            x       y       z     vdW  Elec       q    Type
REMARK                         _______ _______ _______ _____ _____    ______ ____
ROOT
ATOM      1  C   UNL     1       0.526   9.660  21.175  0.00  0.00    +0.000 A 
ATOM      2  C   UNL     1       0.627  10.984  20.930  0.00  0.00    +0.000 A 
ATOM      3  N   UNL     1      -0.083  11.879  21.712  0.00  0.00    +0.000 N 
ATOM      4  C   UNL     1      -0.262  13.255  21.668  0.00  0.00    +0.000 A 
ATOM      5  C   UNL     1      -1.052  13.508  22.787  0.00  0.00    +0.000 A 
ATOM      6  N   UNL     1      -1.391  12.361  23.461  0.00  0.00    +0.000 NA
ATOM      7  C   UNL     1      -0.809  11.409  22.775  0.00  0.00    +0.000 A 
ATOM      8  C   UNL     1      -0.839   9.993  23.012  0.00  0.00    +0.000 A 
ATOM      9  N   UNL     1      -0.206   9.145  22.246  0.00  0.00    +0.000 NA
ENDROOT
BRANCH   4  10
ATOM     10  C   UNL     1       0.265  14.186  20.661  0.00  0.00    +0.000 A 
ATOM     11  C   UNL     1      -0.595  14.726  19.690  0.00  0.00    +0.000 A 
ATOM     12  C   UNL     1      -0.116  15.604  18.712  0.00  0.00    +0.000 A 
ATOM     13  C   UNL     1       1.227  15.959  18.700  0.00  0.00    +0.000 A 
ATOM     14  F   UNL     1       1.664  16.812  17.763  0.00  0.00    +0.000 F 
ATOM     15  C   UNL     1       2.098  15.428  19.645  0.00  0.00    +0.000 A 
ATOM     16 CL   UNL     1       3.764  15.868  19.652  0.00  0.00    +0.000 Cl
ATOM     17  C   UNL     1       1.625  14.528  20.604  0.00  0.00    +0.000 A 
ENDBRANCH   4  10
BRANCH   1  22
ATOM     18  C   UNL     1       2.312   6.541  19.912  0.00  0.00    +0.000 A 
ATOM     19  C   UNL     1       2.629   6.929  18.610  0.00  0.00    +0.000 A 
ATOM     20  C   UNL     1       2.245   8.178  18.128  0.00  0.00    +0.000 A 
ATOM     21  C   UNL     1       1.548   9.056  18.953  0.00  0.00    +0.000 A 
ATOM     22  C   UNL     1       1.232   8.707  20.278  0.00  0.00    +0.000 A 
ATOM     23  C   UNL     1       1.589   7.424  20.731  0.00  0.00    +0.000 A 
BRANCH  18  27
ATOM     24  C   UNL     1       2.524   3.054  21.333  0.00  0.00    +0.000 C 
ATOM     25  C   UNL     1       1.834   4.213  20.668  0.00  0.00    +0.000 C 
ATOM     26  O   UNL     1       0.643   4.144  20.379  0.00  0.00    +0.000 OA
ATOM     27  N   UNL     1       2.681   5.287  20.447  0.00  0.00    +0.000 N 
ATOM     28  H   UNL     1       3.672   5.133  20.590  0.00  0.00    +0.000 HD
ENDBRANCH  18  27
ENDBRANCH   1  22
TORSDOF 3
ENDMDL
