MODEL 1
REMARK VINA RESULT:      -7.9      0.000      0.000
REMARK  Name = 
REMARK  7 active torsions:
REMARK  status: ('A' for Active; 'I' for Inactive)
REMARK    1  A    between atoms: C_1  and  C_2
REMARK    2  A    between atoms: C_5  and  S_6
REMARK    3  A    between atoms: S_6  and  C_9
REMARK    4  A    between atoms: C_9  and  N_10
REMARK    5  A    between atoms: N_13  and  C_14
REMARK    6  A    between atoms: N_13  and  C_20
REMARK    7  A    between atoms: C_27  and  C_28
REMARK                            x       y       z     vdW  Elec       q    Type
REMARK                         _______ _______ _______ _____ _____    ______ ____
ROOT
ATOM      1  N   UNL     1       1.083  14.211  20.731  0.00  0.00    +0.000 N 
ATOM      2  S   UNL     1       0.729  12.658  21.057  0.00  0.00    +0.000 S 
ATOM      3  C   UNL     1       0.212  12.323  19.430  0.00  0.00    +0.000 A 
ATOM      4  N   UNL     1      -0.214  11.061  19.032  0.00  0.00    +0.000 N 
ATOM      5  N   UNL     1       0.147  13.458  18.730  0.00  0.00    +0.000 NA
ATOM      6  C   UNL     1       0.656  14.543  19.460  0.00  0.00    +0.000 A 
ENDROOT
BRANCH   4   7
ATOM      7  C   UNL     1      -1.482  10.989  18.327  0.00  0.00    +0.000 A 
ATOM      8  C   UNL     1      -2.625  11.706  18.729  0.00  0.00    +0.000 A 
ATOM      9  C   UNL     1      -3.850  11.570  18.066  0.00  0.00    +0.000 A 
ATOM     10  C   UNL     1      -3.954  10.736  16.959  0.00  0.00    +0.000 A 
ATOM     11  C   UNL     1      -2.840  10.026  16.527  0.00  0.00    +0.000 A 
ATOM     12  C   UNL     1      -1.622  10.138  17.208  0.00  0.00    +0.000 A 
ENDBRANCH   4   7
BRANCH   4  13
ATOM     13  C   UNL     1       0.552   9.850  19.316  0.00  0.00    +0.000 A 
ATOM     14  C   UNL     1       0.495   9.108  20.520  0.00  0.00    +0.000 A 
ATOM     15  C   UNL     1       1.292   7.978  20.758  0.00  0.00    +0.000 A 
ATOM     16  C   UNL     1       2.159   7.516  19.787  0.00  0.00    +0.000 A 
ATOM     17  C   UNL     1       2.236   8.190  18.579  0.00  0.00    +0.000 A 
ATOM     18  C   UNL     1       1.455   9.346  18.364  0.00  0.00    +0.000 A 
ENDBRANCH   4  13
BRANCH   6  19
ATOM     19  C   UNL     1       0.668  15.850  18.798  0.00  0.00    +0.000 A 
ATOM     20  C   UNL     1      -0.566  16.456  18.487  0.00  0.00    +0.000 A 
ATOM     21  C   UNL     1      -0.629  17.590  17.673  0.00  0.00    +0.000 A 
ATOM     22  C   UNL     1       0.542  18.152  17.179  0.00  0.00    +0.000 A 
ATOM     23  C   UNL     1       1.773  17.598  17.520  0.00  0.00    +0.000 A 
ATOM     24  C   UNL     1       1.840  16.449  18.321  0.00  0.00    +0.000 A 
ENDBRANCH   6  19
BRANCH   1  25
ATOM     25  C   UNL     1       1.651  15.072  21.768  0.00  0.00    +0.000 C 
BRANCH  25  26
ATOM     26  S   UNL     1       0.459  16.111  22.652  0.00  0.00    +0.000 S 
ATOM     27  O   UNL     1       0.268  17.305  21.847  0.00  0.00    +0.000 OA
ATOM     28  O   UNL     1       0.882  16.214  24.035  0.00  0.00    +0.000 OA
BRANCH  26  33
ATOM     29  C   UNL     1      -4.690  12.998  22.598  0.00  0.00    +0.000 C 
ATOM     30  C   UNL     1      -3.400  13.763  22.607  0.00  0.00    +0.000 A 
ATOM     31  C   UNL     1      -3.167  14.759  21.654  0.00  0.00    +0.000 A 
ATOM     32  C   UNL     1      -1.974  15.469  21.669  0.00  0.00    +0.000 A 
ATOM     33  C   UNL     1      -1.031  15.189  22.658  0.00  0.00    +0.000 A 
ATOM     34  C   UNL     1      -1.223  14.173  23.590  0.00  0.00    +0.000 A 
ATOM     35  C   UNL     1      -2.418  13.461  23.563  0.00  0.00    +0.000 A 
ENDBRANCH  26  33
ENDBRANCH  25  26
ENDBRANCH   1  25
TORSDOF 6
ENDMDL
MODEL 2
REMARK VINA RESULT:      -7.5      2.955      6.247
REMARK  Name = 
REMARK  7 active torsions:
REMARK  status: ('A' for Active; 'I' for Inactive)
REMARK    1  A    between atoms: C_1  and  C_2
REMARK    2  A    between atoms: C_5  and  S_6
REMARK    3  A    between atoms: S_6  and  C_9
REMARK    4  A    between atoms: C_9  and  N_10
REMARK    5  A    between atoms: N_13  and  C_14
REMARK    6  A    between atoms: N_13  and  C_20
REMARK    7  A    between atoms: C_27  and  C_28
REMARK                            x       y       z     vdW  Elec       q    Type
REMARK                         _______ _______ _______ _____ _____    ______ ____
ROOT
ATOM      1  N   UNL     1       1.430  14.698  19.285  0.00  0.00    +0.000 N 
ATOM      2  S   UNL     1       0.575  13.733  18.294  0.00  0.00    +0.000 S 
ATOM      3  C   UNL     1       0.616  12.387  19.395  0.00  0.00    +0.000 A 
ATOM      4  N   UNL     1      -0.015  11.180  19.115  0.00  0.00    +0.000 N 
ATOM      5  N   UNL     1       1.443  12.652  20.408  0.00  0.00    +0.000 NA
ATOM      6  C   UNL     1       1.905  13.976  20.364  0.00  0.00    +0.000 A 
ENDROOT
BRANCH   4   7
ATOM      7  C   UNL     1       0.780   9.974  19.269  0.00  0.00    +0.000 A 
ATOM      8  C   UNL     1       1.611   9.466  18.251  0.00  0.00    +0.000 A 
ATOM      9  C   UNL     1       2.318   8.269  18.407  0.00  0.00    +0.000 A 
ATOM     10  C   UNL     1       2.238   7.563  19.602  0.00  0.00    +0.000 A 
ATOM     11  C   UNL     1       1.439   8.045  20.632  0.00  0.00    +0.000 A 
ATOM     12  C   UNL     1       0.708   9.227  20.466  0.00  0.00    +0.000 A 
ENDBRANCH   4   7
BRANCH   4  13
ATOM     13  C   UNL     1      -1.403  11.106  18.666  0.00  0.00    +0.000 A 
ATOM     14  C   UNL     1      -2.461  11.921  19.136  0.00  0.00    +0.000 A 
ATOM     15  C   UNL     1      -3.788  11.772  18.704  0.00  0.00    +0.000 A 
ATOM     16  C   UNL     1      -4.112  10.823  17.753  0.00  0.00    +0.000 A 
ATOM     17  C   UNL     1      -3.110  10.016  17.240  0.00  0.00    +0.000 A 
ATOM     18  C   UNL     1      -1.785  10.151  17.707  0.00  0.00    +0.000 A 
ENDBRANCH   4  13
BRANCH   6  19
ATOM     19  C   UNL     1       2.805  14.410  21.435  0.00  0.00    +0.000 A 
ATOM     20  C   UNL     1       2.440  15.534  22.204  0.00  0.00    +0.000 A 
ATOM     21  C   UNL     1       3.343  16.125  23.091  0.00  0.00    +0.000 A 
ATOM     22  C   UNL     1       4.616  15.588  23.244  0.00  0.00    +0.000 A 
ATOM     23  C   UNL     1       4.975  14.446  22.531  0.00  0.00    +0.000 A 
ATOM     24  C   UNL     1       4.079  13.861  21.626  0.00  0.00    +0.000 A 
ENDBRANCH   6  19
BRANCH   1  25
ATOM     25  C   UNL     1       1.703  16.085  18.910  0.00  0.00    +0.000 C 
BRANCH  25  26
ATOM     26  S   UNL     1       3.160  16.331  17.860  0.00  0.00    +0.000 S 
ATOM     27  O   UNL     1       2.898  17.510  17.053  0.00  0.00    +0.000 OA
ATOM     28  O   UNL     1       3.489  15.066  17.235  0.00  0.00    +0.000 OA
BRANCH  26  33
ATOM     29  C   UNL     1       7.698  17.478  21.641  0.00  0.00    +0.000 C 
ATOM     30  C   UNL     1       6.570  17.204  20.692  0.00  0.00    +0.000 A 
ATOM     31  C   UNL     1       6.677  16.175  19.751  0.00  0.00    +0.000 A 
ATOM     32  C   UNL     1       5.628  15.920  18.878  0.00  0.00    +0.000 A 
ATOM     33  C   UNL     1       4.467  16.687  18.972  0.00  0.00    +0.000 A 
ATOM     34  C   UNL     1       4.354  17.744  19.871  0.00  0.00    +0.000 A 
ATOM     35  C   UNL     1       5.414  17.998  20.737  0.00  0.00    +0.000 A 
ENDBRANCH  26  33
ENDBRANCH  25  26
ENDBRANCH   1  25
TORSDOF 6
ENDMDL
MODEL 3
REMARK VINA RESULT:      -7.5      2.814      4.544
REMARK  Name = 
REMARK  7 active torsions:
REMARK  status: ('A' for Active; 'I' for Inactive)
REMARK    1  A    between atoms: C_1  and  C_2
REMARK    2  A    between atoms: C_5  and  S_6
REMARK    3  A    between atoms: S_6  and  C_9
REMARK    4  A    between atoms: C_9  and  N_10
REMARK    5  A    between atoms: N_13  and  C_14
REMARK    6  A    between atoms: N_13  and  C_20
REMARK    7  A    between atoms: C_27  and  C_28
REMARK                            x       y       z     vdW  Elec       q    Type
REMARK                         _______ _______ _______ _____ _____    ______ ____
ROOT
ATOM      1  N   UNL     1       1.818  14.226  20.293  0.00  0.00    +0.000 N 
ATOM      2  S   UNL     1       1.554  12.659  20.640  0.00  0.00    +0.000 S 
ATOM      3  C   UNL     1       0.675  12.369  19.167  0.00  0.00    +0.000 A 
ATOM      4  N   UNL     1       0.173  11.115  18.837  0.00  0.00    +0.000 N 
ATOM      5  N   UNL     1       0.445  13.524  18.540  0.00  0.00    +0.000 NA
ATOM      6  C   UNL     1       1.105  14.592  19.167  0.00  0.00    +0.000 A 
ENDROOT
BRANCH   4   7
ATOM      7  C   UNL     1      -1.224  11.051  18.444  0.00  0.00    +0.000 A 
ATOM      8  C   UNL     1      -2.224  11.851  19.031  0.00  0.00    +0.000 A 
ATOM      9  C   UNL     1      -3.571  11.724  18.674  0.00  0.00    +0.000 A 
ATOM     10  C   UNL     1      -3.949  10.814  17.694  0.00  0.00    +0.000 A 
ATOM     11  C   UNL     1      -2.985  10.021  17.084  0.00  0.00    +0.000 A 
ATOM     12  C   UNL     1      -1.641  10.126  17.461  0.00  0.00    +0.000 A 
ENDBRANCH   4   7
BRANCH   4  13
ATOM     13  C   UNL     1       0.988   9.905  18.896  0.00  0.00    +0.000 A 
ATOM     14  C   UNL     1       1.826   9.429  17.859  0.00  0.00    +0.000 A 
ATOM     15  C   UNL     1       2.550   8.230  17.953  0.00  0.00    +0.000 A 
ATOM     16  C   UNL     1       2.495   7.467  19.104  0.00  0.00    +0.000 A 
ATOM     17  C   UNL     1       1.709   7.900  20.160  0.00  0.00    +0.000 A 
ATOM     18  C   UNL     1       0.959   9.089  20.042  0.00  0.00    +0.000 A 
ENDBRANCH   4  13
BRANCH   6  19
ATOM     19  C   UNL     1       0.958  15.920  18.564  0.00  0.00    +0.000 A 
ATOM     20  C   UNL     1      -0.335  16.471  18.464  0.00  0.00    +0.000 A 
ATOM     21  C   UNL     1      -0.571  17.627  17.714  0.00  0.00    +0.000 A 
ATOM     22  C   UNL     1       0.486  18.264  17.075  0.00  0.00    +0.000 A 
ATOM     23  C   UNL     1       1.779  17.762  17.208  0.00  0.00    +0.000 A 
ATOM     24  C   UNL     1       2.017  16.593  17.943  0.00  0.00    +0.000 A 
ENDBRANCH   6  19
BRANCH   1  25
ATOM     25  C   UNL     1       2.608  15.060  21.197  0.00  0.00    +0.000 C 
BRANCH  25  26
ATOM     26  S   UNL     1       4.279  15.460  20.622  0.00  0.00    +0.000 S 
ATOM     27  O   UNL     1       4.383  16.908  20.617  0.00  0.00    +0.000 OA
ATOM     28  O   UNL     1       4.540  14.697  19.418  0.00  0.00    +0.000 OA
BRANCH  26  33
ATOM     29  C   UNL     1       8.026  13.259  24.784  0.00  0.00    +0.000 C 
ATOM     30  C   UNL     1       7.092  13.819  23.753  0.00  0.00    +0.000 A 
ATOM     31  C   UNL     1       7.548  14.074  22.456  0.00  0.00    +0.000 A 
ATOM     32  C   UNL     1       6.679  14.588  21.503  0.00  0.00    +0.000 A 
ATOM     33  C   UNL     1       5.349  14.820  21.853  0.00  0.00    +0.000 A 
ATOM     34  C   UNL     1       4.884  14.615  23.149  0.00  0.00    +0.000 A 
ATOM     35  C   UNL     1       5.764  14.108  24.100  0.00  0.00    +0.000 A 
ENDBRANCH  26  33
ENDBRANCH  25  26
ENDBRANCH   1  25
TORSDOF 6
ENDMDL
MODEL 4
REMARK VINA RESULT:      -7.5      1.996      4.040
REMARK  Name = 
REMARK  7 active torsions:
REMARK  status: ('A' for Active; 'I' for Inactive)
REMARK    1  A    between atoms: C_1  and  C_2
REMARK    2  A    between atoms: C_5  and  S_6
REMARK    3  A    between atoms: S_6  and  C_9
REMARK    4  A    between atoms: C_9  and  N_10
REMARK    5  A    between atoms: N_13  and  C_14
REMARK    6  A    between atoms: N_13  and  C_20
REMARK    7  A    between atoms: C_27  and  C_28
REMARK                            x       y       z     vdW  Elec       q    Type
REMARK                         _______ _______ _______ _____ _____    ______ ____
ROOT
ATOM      1  N   UNL     1      -0.513  15.730  20.838  0.00  0.00    +0.000 N 
ATOM      2  S   UNL     1      -1.023  14.355  21.541  0.00  0.00    +0.000 S 
ATOM      3  C   UNL     1      -0.769  13.402  20.109  0.00  0.00    +0.000 A 
ATOM      4  N   UNL     1      -1.010  12.033  20.076  0.00  0.00    +0.000 N 
ATOM      5  N   UNL     1      -0.479  14.198  19.077  0.00  0.00    +0.000 NA
ATOM      6  C   UNL     1      -0.317  15.531  19.485  0.00  0.00    +0.000 A 
ENDROOT
BRANCH   4   7
ATOM      7  C   UNL     1      -1.832  11.539  18.984  0.00  0.00    +0.000 A 
ATOM      8  C   UNL     1      -1.336  10.697  17.970  0.00  0.00    +0.000 A 
ATOM      9  C   UNL     1      -2.136  10.287  16.898  0.00  0.00    +0.000 A 
ATOM     10  C   UNL     1      -3.467  10.682  16.830  0.00  0.00    +0.000 A 
ATOM     11  C   UNL     1      -3.992  11.499  17.824  0.00  0.00    +0.000 A 
ATOM     12  C   UNL     1      -3.184  11.935  18.881  0.00  0.00    +0.000 A 
ENDBRANCH   4   7
BRANCH   4  13
ATOM     13  C   UNL     1      -0.490  11.121  21.091  0.00  0.00    +0.000 A 
ATOM     14  C   UNL     1       0.685  10.341  20.968  0.00  0.00    +0.000 A 
ATOM     15  C   UNL     1       1.111   9.442  21.958  0.00  0.00    +0.000 A 
ATOM     16  C   UNL     1       0.398   9.307  23.134  0.00  0.00    +0.000 A 
ATOM     17  C   UNL     1      -0.747  10.066  23.317  0.00  0.00    +0.000 A 
ATOM     18  C   UNL     1      -1.185  10.941  22.301  0.00  0.00    +0.000 A 
ENDBRANCH   4  13
BRANCH   6  19
ATOM     19  C   UNL     1       0.029  16.511  18.452  0.00  0.00    +0.000 A 
ATOM     20  C   UNL     1       1.374  16.609  18.044  0.00  0.00    +0.000 A 
ATOM     21  C   UNL     1       1.807  17.658  17.228  0.00  0.00    +0.000 A 
ATOM     22  C   UNL     1       0.896  18.610  16.785  0.00  0.00    +0.000 A 
ATOM     23  C   UNL     1      -0.447  18.499  17.136  0.00  0.00    +0.000 A 
ATOM     24  C   UNL     1      -0.881  17.459  17.970  0.00  0.00    +0.000 A 
ENDBRANCH   6  19
BRANCH   1  25
ATOM     25  C   UNL     1      -0.441  16.971  21.609  0.00  0.00    +0.000 C 
BRANCH  25  26
ATOM     26  S   UNL     1       0.987  17.115  22.714  0.00  0.00    +0.000 S 
ATOM     27  O   UNL     1       0.824  16.102  23.741  0.00  0.00    +0.000 OA
ATOM     28  O   UNL     1       1.145  18.511  23.073  0.00  0.00    +0.000 OA
BRANCH  26  33
ATOM     29  C   UNL     1       5.733  15.594  19.342  0.00  0.00    +0.000 C 
ATOM     30  C   UNL     1       4.543  15.976  20.171  0.00  0.00    +0.000 A 
ATOM     31  C   UNL     1       3.819  14.996  20.856  0.00  0.00    +0.000 A 
ATOM     32  C   UNL     1       2.722  15.353  21.628  0.00  0.00    +0.000 A 
ATOM     33  C   UNL     1       2.372  16.700  21.725  0.00  0.00    +0.000 A 
ATOM     34  C   UNL     1       3.051  17.689  21.018  0.00  0.00    +0.000 A 
ATOM     35  C   UNL     1       4.144  17.320  20.241  0.00  0.00    +0.000 A 
ENDBRANCH  26  33
ENDBRANCH  25  26
ENDBRANCH   1  25
TORSDOF 6
ENDMDL
MODEL 5
REMARK VINA RESULT:      -7.3      2.657      7.533
REMARK  Name = 
REMARK  7 active torsions:
REMARK  status: ('A' for Active; 'I' for Inactive)
REMARK    1  A    between atoms: C_1  and  C_2
REMARK    2  A    between atoms: C_5  and  S_6
REMARK    3  A    between atoms: S_6  and  C_9
REMARK    4  A    between atoms: C_9  and  N_10
REMARK    5  A    between atoms: N_13  and  C_14
REMARK    6  A    between atoms: N_13  and  C_20
REMARK    7  A    between atoms: C_27  and  C_28
REMARK                            x       y       z     vdW  Elec       q    Type
REMARK                         _______ _______ _______ _____ _____    ______ ____
ROOT
ATOM      1  N   UNL     1      -0.151  12.161  20.337  0.00  0.00    +0.000 N 
ATOM      2  S   UNL     1       0.097  13.401  21.359  0.00  0.00    +0.000 S 
ATOM      3  C   UNL     1      -1.498  14.054  21.123  0.00  0.00    +0.000 A 
ATOM      4  N   UNL     1      -1.944  15.186  21.797  0.00  0.00    +0.000 N 
ATOM      5  N   UNL     1      -2.110  13.412  20.127  0.00  0.00    +0.000 NA
ATOM      6  C   UNL     1      -1.355  12.318  19.677  0.00  0.00    +0.000 A 
ENDROOT
BRANCH   4   7
ATOM      7  C   UNL     1      -2.539  16.236  20.990  0.00  0.00    +0.000 A 
ATOM      8  C   UNL     1      -3.921  16.508  20.982  0.00  0.00    +0.000 A 
ATOM      9  C   UNL     1      -4.474  17.486  20.148  0.00  0.00    +0.000 A 
ATOM     10  C   UNL     1      -3.651  18.244  19.322  0.00  0.00    +0.000 A 
ATOM     11  C   UNL     1      -2.281  18.011  19.318  0.00  0.00    +0.000 A 
ATOM     12  C   UNL     1      -1.731  17.013  20.130  0.00  0.00    +0.000 A 
ENDBRANCH   4   7
BRANCH   4  13
ATOM     13  C   UNL     1      -1.810  15.340  23.243  0.00  0.00    +0.000 A 
ATOM     14  C   UNL     1      -2.646  14.736  24.213  0.00  0.00    +0.000 A 
ATOM     15  C   UNL     1      -2.501  14.961  25.591  0.00  0.00    +0.000 A 
ATOM     16  C   UNL     1      -1.489  15.773  26.065  0.00  0.00    +0.000 A 
ATOM     17  C   UNL     1      -0.626  16.370  25.160  0.00  0.00    +0.000 A 
ATOM     18  C   UNL     1      -0.802  16.165  23.775  0.00  0.00    +0.000 A 
ENDBRANCH   4  13
BRANCH   6  19
ATOM     19  C   UNL     1      -1.923  11.507  18.597  0.00  0.00    +0.000 A 
ATOM     20  C   UNL     1      -3.317  11.546  18.392  0.00  0.00    +0.000 A 
ATOM     21  C   UNL     1      -3.946  10.644  17.529  0.00  0.00    +0.000 A 
ATOM     22  C   UNL     1      -3.188   9.705  16.838  0.00  0.00    +0.000 A 
ATOM     23  C   UNL     1      -1.803   9.688  16.989  0.00  0.00    +0.000 A 
ATOM     24  C   UNL     1      -1.171  10.578  17.868  0.00  0.00    +0.000 A 
ENDBRANCH   6  19
BRANCH   1  25
ATOM     25  C   UNL     1       0.890  11.154  20.132  0.00  0.00    +0.000 C 
BRANCH  25  26
ATOM     26  S   UNL     1       0.727   9.655  21.138  0.00  0.00    +0.000 S 
ATOM     27  O   UNL     1      -0.695   9.389  21.263  0.00  0.00    +0.000 OA
ATOM     28  O   UNL     1       1.557   9.807  22.316  0.00  0.00    +0.000 OA
BRANCH  26  33
ATOM     29  C   UNL     1       3.239   5.347  17.770  0.00  0.00    +0.000 C 
ATOM     30  C   UNL     1       2.624   6.422  18.616  0.00  0.00    +0.000 A 
ATOM     31  C   UNL     1       2.399   7.695  18.084  0.00  0.00    +0.000 A 
ATOM     32  C   UNL     1       1.825   8.686  18.868  0.00  0.00    +0.000 A 
ATOM     33  C   UNL     1       1.458   8.383  20.179  0.00  0.00    +0.000 A 
ATOM     34  C   UNL     1       1.711   7.137  20.745  0.00  0.00    +0.000 A 
ATOM     35  C   UNL     1       2.295   6.152  19.954  0.00  0.00    +0.000 A 
ENDBRANCH  26  33
ENDBRANCH  25  26
ENDBRANCH   1  25
TORSDOF 6
ENDMDL
MODEL 6
REMARK VINA RESULT:      -7.3      2.819      4.560
REMARK  Name = 
REMARK  7 active torsions:
REMARK  status: ('A' for Active; 'I' for Inactive)
REMARK    1  A    between atoms: C_1  and  C_2
REMARK    2  A    between atoms: C_5  and  S_6
REMARK    3  A    between atoms: S_6  and  C_9
REMARK    4  A    between atoms: C_9  and  N_10
REMARK    5  A    between atoms: N_13  and  C_14
REMARK    6  A    between atoms: N_13  and  C_20
REMARK    7  A    between atoms: C_27  and  C_28
REMARK                            x       y       z     vdW  Elec       q    Type
REMARK                         _______ _______ _______ _____ _____    ______ ____
ROOT
ATOM      1  N   UNL     1       1.809  14.240  20.303  0.00  0.00    +0.000 N 
ATOM      2  S   UNL     1       1.527  12.684  20.682  0.00  0.00    +0.000 S 
ATOM      3  C   UNL     1       0.598  12.390  19.241  0.00  0.00    +0.000 A 
ATOM      4  N   UNL     1       0.063  11.141  18.946  0.00  0.00    +0.000 N 
ATOM      5  N   UNL     1       0.370  13.540  18.604  0.00  0.00    +0.000 NA
ATOM      6  C   UNL     1       1.069  14.604  19.194  0.00  0.00    +0.000 A 
ENDROOT
BRANCH   4   7
ATOM      7  C   UNL     1      -1.347  11.098  18.596  0.00  0.00    +0.000 A 
ATOM      8  C   UNL     1      -1.855  10.305  17.549  0.00  0.00    +0.000 A 
ATOM      9  C   UNL     1      -3.208  10.331  17.197  0.00  0.00    +0.000 A 
ATOM     10  C   UNL     1      -4.098  11.129  17.906  0.00  0.00    +0.000 A 
ATOM     11  C   UNL     1      -3.632  11.913  18.955  0.00  0.00    +0.000 A 
ATOM     12  C   UNL     1      -2.272  11.910  19.290  0.00  0.00    +0.000 A 
ENDBRANCH   4   7
BRANCH   4  13
ATOM     13  C   UNL     1       0.856   9.916  18.998  0.00  0.00    +0.000 A 
ATOM     14  C   UNL     1       0.955   9.051  20.114  0.00  0.00    +0.000 A 
ATOM     15  C   UNL     1       1.774   7.911  20.125  0.00  0.00    +0.000 A 
ATOM     16  C   UNL     1       2.507   7.565  19.005  0.00  0.00    +0.000 A 
ATOM     17  C   UNL     1       2.427   8.364  17.876  0.00  0.00    +0.000 A 
ATOM     18  C   UNL     1       1.627   9.526  17.888  0.00  0.00    +0.000 A 
ENDBRANCH   4  13
BRANCH   6  19
ATOM     19  C   UNL     1       0.928  15.925  18.576  0.00  0.00    +0.000 A 
ATOM     20  C   UNL     1      -0.363  16.478  18.461  0.00  0.00    +0.000 A 
ATOM     21  C   UNL     1      -0.592  17.626  17.698  0.00  0.00    +0.000 A 
ATOM     22  C   UNL     1       0.471  18.255  17.059  0.00  0.00    +0.000 A 
ATOM     23  C   UNL     1       1.762  17.752  17.206  0.00  0.00    +0.000 A 
ATOM     24  C   UNL     1       1.993  16.590  17.955  0.00  0.00    +0.000 A 
ENDBRANCH   6  19
BRANCH   1  25
ATOM     25  C   UNL     1       2.642  15.072  21.171  0.00  0.00    +0.000 C 
BRANCH  25  26
ATOM     26  S   UNL     1       4.314  15.404  20.554  0.00  0.00    +0.000 S 
ATOM     27  O   UNL     1       4.462  16.847  20.505  0.00  0.00    +0.000 OA
ATOM     28  O   UNL     1       4.529  14.598  19.369  0.00  0.00    +0.000 OA
BRANCH  26  33
ATOM     29  C   UNL     1       7.922  13.219  24.846  0.00  0.00    +0.000 C 
ATOM     30  C   UNL     1       7.024  13.752  23.770  0.00  0.00    +0.000 A 
ATOM     31  C   UNL     1       5.668  13.974  24.031  0.00  0.00    +0.000 A 
ATOM     32  C   UNL     1       4.840  14.472  23.035  0.00  0.00    +0.000 A 
ATOM     33  C   UNL     1       5.386  14.767  21.785  0.00  0.00    +0.000 A 
ATOM     34  C   UNL     1       6.722  14.514  21.488  0.00  0.00    +0.000 A 
ATOM     35  C   UNL     1       7.543  14.006  22.491  0.00  0.00    +0.000 A 
ENDBRANCH  26  33
ENDBRANCH  25  26
ENDBRANCH   1  25
TORSDOF 6
ENDMDL
MODEL 7
REMARK VINA RESULT:      -7.3      2.715      7.311
REMARK  Name = 
REMARK  7 active torsions:
REMARK  status: ('A' for Active; 'I' for Inactive)
REMARK    1  A    between atoms: C_1  and  C_2
REMARK    2  A    between atoms: C_5  and  S_6
REMARK    3  A    between atoms: S_6  and  C_9
REMARK    4  A    between atoms: C_9  and  N_10
REMARK    5  A    between atoms: N_13  and  C_14
REMARK    6  A    between atoms: N_13  and  C_20
REMARK    7  A    between atoms: C_27  and  C_28
REMARK                            x       y       z     vdW  Elec       q    Type
REMARK                         _______ _______ _______ _____ _____    ______ ____
ROOT
ATOM      1  N   UNL     1      -0.141  11.675  20.094  0.00  0.00    +0.000 N 
ATOM      2  S   UNL     1       1.036  12.308  19.168  0.00  0.00    +0.000 S 
ATOM      3  C   UNL     1       0.837  13.908  19.820  0.00  0.00    +0.000 A 
ATOM      4  N   UNL     1       1.634  14.976  19.423  0.00  0.00    +0.000 N 
ATOM      5  N   UNL     1      -0.251  13.953  20.592  0.00  0.00    +0.000 NA
ATOM      6  C   UNL     1      -0.812  12.679  20.767  0.00  0.00    +0.000 A 
ENDROOT
BRANCH   4   7
ATOM      7  C   UNL     1       0.948  16.194  19.026  0.00  0.00    +0.000 A 
ATOM      8  C   UNL     1      -0.343  16.199  18.463  0.00  0.00    +0.000 A 
ATOM      9  C   UNL     1      -0.953  17.383  18.035  0.00  0.00    +0.000 A 
ATOM     10  C   UNL     1      -0.300  18.600  18.189  0.00  0.00    +0.000 A 
ATOM     11  C   UNL     1       0.969  18.631  18.755  0.00  0.00    +0.000 A 
ATOM     12  C   UNL     1       1.593  17.444  19.158  0.00  0.00    +0.000 A 
ENDBRANCH   4   7
BRANCH   4  13
ATOM     13  C   UNL     1       3.091  14.892  19.380  0.00  0.00    +0.000 A 
ATOM     14  C   UNL     1       3.944  14.849  20.509  0.00  0.00    +0.000 A 
ATOM     15  C   UNL     1       5.343  14.819  20.408  0.00  0.00    +0.000 A 
ATOM     16  C   UNL     1       5.955  14.796  19.169  0.00  0.00    +0.000 A 
ATOM     17  C   UNL     1       5.166  14.811  18.030  0.00  0.00    +0.000 A 
ATOM     18  C   UNL     1       3.761  14.876  18.144  0.00  0.00    +0.000 A 
ENDBRANCH   4  13
BRANCH   6  19
ATOM     19  C   UNL     1      -2.002  12.579  21.616  0.00  0.00    +0.000 A 
ATOM     20  C   UNL     1      -3.262  12.834  21.038  0.00  0.00    +0.000 A 
ATOM     21  C   UNL     1      -4.406  12.966  21.830  0.00  0.00    +0.000 A 
ATOM     22  C   UNL     1      -4.313  12.819  23.209  0.00  0.00    +0.000 A 
ATOM     23  C   UNL     1      -3.085  12.515  23.792  0.00  0.00    +0.000 A 
ATOM     24  C   UNL     1      -1.932  12.400  23.003  0.00  0.00    +0.000 A 
ENDBRANCH   6  19
BRANCH   1  25
ATOM     25  C   UNL     1      -0.440  10.245  20.034  0.00  0.00    +0.000 C 
BRANCH  25  26
ATOM     26  S   UNL     1       0.516   9.205  21.169  0.00  0.00    +0.000 S 
ATOM     27  O   UNL     1      -0.442   8.382  21.887  0.00  0.00    +0.000 OA
ATOM     28  O   UNL     1       1.447  10.052  21.887  0.00  0.00    +0.000 OA
BRANCH  26  33
ATOM     29  C   UNL     1       3.839   5.733  17.548  0.00  0.00    +0.000 C 
ATOM     30  C   UNL     1       3.021   6.599  18.458  0.00  0.00    +0.000 A 
ATOM     31  C   UNL     1       2.660   7.891  18.063  0.00  0.00    +0.000 A 
ATOM     32  C   UNL     1       1.898   8.689  18.906  0.00  0.00    +0.000 A 
ATOM     33  C   UNL     1       1.484   8.173  20.134  0.00  0.00    +0.000 A 
ATOM     34  C   UNL     1       1.867   6.907  20.568  0.00  0.00    +0.000 A 
ATOM     35  C   UNL     1       2.638   6.118  19.720  0.00  0.00    +0.000 A 
ENDBRANCH  26  33
ENDBRANCH  25  26
ENDBRANCH   1  25
TORSDOF 6
ENDMDL
MODEL 8
REMARK VINA RESULT:      -7.2      2.981      7.534
REMARK  Name = 
REMARK  7 active torsions:
REMARK  status: ('A' for Active; 'I' for Inactive)
REMARK    1  A    between atoms: C_1  and  C_2
REMARK    2  A    between atoms: C_5  and  S_6
REMARK    3  A    between atoms: S_6  and  C_9
REMARK    4  A    between atoms: C_9  and  N_10
REMARK    5  A    between atoms: N_13  and  C_14
REMARK    6  A    between atoms: N_13  and  C_20
REMARK    7  A    between atoms: C_27  and  C_28
REMARK                            x       y       z     vdW  Elec       q    Type
REMARK                         _______ _______ _______ _____ _____    ______ ____
ROOT
ATOM      1  N   UNL     1      -0.628  11.739  19.308  0.00  0.00    +0.000 N 
ATOM      2  S   UNL     1      -0.668  13.340  19.592  0.00  0.00    +0.000 S 
ATOM      3  C   UNL     1       1.031  13.546  19.279  0.00  0.00    +0.000 A 
ATOM      4  N   UNL     1       1.650  14.790  19.333  0.00  0.00    +0.000 N 
ATOM      5  N   UNL     1       1.618  12.354  19.149  0.00  0.00    +0.000 NA
ATOM      6  C   UNL     1       0.677  11.313  19.151  0.00  0.00    +0.000 A 
ENDROOT
BRANCH   4   7
ATOM      7  C   UNL     1       2.861  14.884  20.130  0.00  0.00    +0.000 A 
ATOM      8  C   UNL     1       4.150  14.939  19.565  0.00  0.00    +0.000 A 
ATOM      9  C   UNL     1       5.301  14.968  20.360  0.00  0.00    +0.000 A 
ATOM     10  C   UNL     1       5.191  14.978  21.746  0.00  0.00    +0.000 A 
ATOM     11  C   UNL     1       3.932  14.941  22.335  0.00  0.00    +0.000 A 
ATOM     12  C   UNL     1       2.781  14.881  21.541  0.00  0.00    +0.000 A 
ENDBRANCH   4   7
BRANCH   4  13
ATOM     13  C   UNL     1       1.115  15.962  18.646  0.00  0.00    +0.000 A 
ATOM     14  C   UNL     1      -0.237  16.381  18.672  0.00  0.00    +0.000 A 
ATOM     15  C   UNL     1      -0.706  17.490  17.951  0.00  0.00    +0.000 A 
ATOM     16  C   UNL     1       0.165  18.253  17.197  0.00  0.00    +0.000 A 
ATOM     17  C   UNL     1       1.504  17.902  17.157  0.00  0.00    +0.000 A 
ATOM     18  C   UNL     1       1.958  16.765  17.858  0.00  0.00    +0.000 A 
ENDBRANCH   4  13
BRANCH   6  19
ATOM     19  C   UNL     1       1.185   9.948  18.991  0.00  0.00    +0.000 A 
ATOM     20  C   UNL     1       1.158   9.087  20.106  0.00  0.00    +0.000 A 
ATOM     21  C   UNL     1       1.816   7.854  20.083  0.00  0.00    +0.000 A 
ATOM     22  C   UNL     1       2.490   7.452  18.935  0.00  0.00    +0.000 A 
ATOM     23  C   UNL     1       2.482   8.267  17.806  0.00  0.00    +0.000 A 
ATOM     24  C   UNL     1       1.839   9.512  17.832  0.00  0.00    +0.000 A 
ENDBRANCH   6  19
BRANCH   1  25
ATOM     25  C   UNL     1      -1.857  10.947  19.370  0.00  0.00    +0.000 C 
BRANCH  25  26
ATOM     26  S   UNL     1      -2.782  10.830  17.816  0.00  0.00    +0.000 S 
ATOM     27  O   UNL     1      -3.070   9.422  17.608  0.00  0.00    +0.000 OA
ATOM     28  O   UNL     1      -2.077  11.596  16.808  0.00  0.00    +0.000 OA
BRANCH  26  33
ATOM     29  C   UNL     1      -7.915  13.761  18.943  0.00  0.00    +0.000 C 
ATOM     30  C   UNL     1      -6.633  13.040  18.653  0.00  0.00    +0.000 A 
ATOM     31  C   UNL     1      -5.607  13.020  19.603  0.00  0.00    +0.000 A 
ATOM     32  C   UNL     1      -4.423  12.347  19.334  0.00  0.00    +0.000 A 
ATOM     33  C   UNL     1      -4.287  11.677  18.118  0.00  0.00    +0.000 A 
ATOM     34  C   UNL     1      -5.276  11.718  17.140  0.00  0.00    +0.000 A 
ATOM     35  C   UNL     1      -6.456  12.402  17.415  0.00  0.00    +0.000 A 
ENDBRANCH  26  33
ENDBRANCH  25  26
ENDBRANCH   1  25
TORSDOF 6
ENDMDL
MODEL 9
REMARK VINA RESULT:      -7.2      2.740      7.640
REMARK  Name = 
REMARK  7 active torsions:
REMARK  status: ('A' for Active; 'I' for Inactive)
REMARK    1  A    between atoms: C_1  and  C_2
REMARK    2  A    between atoms: C_5  and  S_6
REMARK    3  A    between atoms: S_6  and  C_9
REMARK    4  A    between atoms: C_9  and  N_10
REMARK    5  A    between atoms: N_13  and  C_14
REMARK    6  A    between atoms: N_13  and  C_20
REMARK    7  A    between atoms: C_27  and  C_28
REMARK                            x       y       z     vdW  Elec       q    Type
REMARK                         _______ _______ _______ _____ _____    ______ ____
ROOT
ATOM      1  N   UNL     1      -0.313  12.110  20.342  0.00  0.00    +0.000 N 
ATOM      2  S   UNL     1      -0.050  13.386  21.317  0.00  0.00    +0.000 S 
ATOM      3  C   UNL     1      -1.682  13.971  21.170  0.00  0.00    +0.000 A 
ATOM      4  N   UNL     1      -2.128  15.102  21.844  0.00  0.00    +0.000 N 
ATOM      5  N   UNL     1      -2.330  13.280  20.229  0.00  0.00    +0.000 NA
ATOM      6  C   UNL     1      -1.561  12.204  19.758  0.00  0.00    +0.000 A 
ENDROOT
BRANCH   4   7
ATOM      7  C   UNL     1      -2.815  16.108  21.053  0.00  0.00    +0.000 A 
ATOM      8  C   UNL     1      -2.153  16.947  20.135  0.00  0.00    +0.000 A 
ATOM      9  C   UNL     1      -2.832  17.948  19.432  0.00  0.00    +0.000 A 
ATOM     10  C   UNL     1      -4.201  18.115  19.604  0.00  0.00    +0.000 A 
ATOM     11  C   UNL     1      -4.887  17.293  20.490  0.00  0.00    +0.000 A 
ATOM     12  C   UNL     1      -4.204  16.310  21.217  0.00  0.00    +0.000 A 
ENDBRANCH   4   7
BRANCH   4  13
ATOM     13  C   UNL     1      -1.909  15.298  23.274  0.00  0.00    +0.000 A 
ATOM     14  C   UNL     1      -2.702  14.745  24.309  0.00  0.00    +0.000 A 
ATOM     15  C   UNL     1      -2.475  15.010  25.668  0.00  0.00    +0.000 A 
ATOM     16  C   UNL     1      -1.420  15.813  26.058  0.00  0.00    +0.000 A 
ATOM     17  C   UNL     1      -0.597  16.360  25.087  0.00  0.00    +0.000 A 
ATOM     18  C   UNL     1      -0.856  16.116  23.722  0.00  0.00    +0.000 A 
ENDBRANCH   4  13
BRANCH   6  19
ATOM     19  C   UNL     1      -2.165  11.345  18.737  0.00  0.00    +0.000 A 
ATOM     20  C   UNL     1      -1.327  10.474  18.012  0.00  0.00    +0.000 A 
ATOM     21  C   UNL     1      -1.796   9.788  16.888  0.00  0.00    +0.000 A 
ATOM     22  C   UNL     1      -3.118   9.942  16.487  0.00  0.00    +0.000 A 
ATOM     23  C   UNL     1      -3.974  10.758  17.223  0.00  0.00    +0.000 A 
ATOM     24  C   UNL     1      -3.502  11.462  18.339  0.00  0.00    +0.000 A 
ENDBRANCH   6  19
BRANCH   1  25
ATOM     25  C   UNL     1       0.752  11.139  20.095  0.00  0.00    +0.000 C 
BRANCH  25  26
ATOM     26  S   UNL     1       0.704   9.655  21.133  0.00  0.00    +0.000 S 
ATOM     27  O   UNL     1      -0.697   9.326  21.326  0.00  0.00    +0.000 OA
ATOM     28  O   UNL     1       1.576   9.868  22.271  0.00  0.00    +0.000 OA
BRANCH  26  33
ATOM     29  C   UNL     1       3.266   5.281  17.891  0.00  0.00    +0.000 C 
ATOM     30  C   UNL     1       2.616   6.370  18.691  0.00  0.00    +0.000 A 
ATOM     31  C   UNL     1       2.183   6.121  19.997  0.00  0.00    +0.000 A 
ATOM     32  C   UNL     1       1.588   7.133  20.737  0.00  0.00    +0.000 A 
ATOM     33  C   UNL     1       1.452   8.399  20.167  0.00  0.00    +0.000 A 
ATOM     34  C   UNL     1       1.836   8.659  18.854  0.00  0.00    +0.000 A 
ATOM     35  C   UNL     1       2.424   7.636  18.117  0.00  0.00    +0.000 A 
ENDBRANCH  26  33
ENDBRANCH  25  26
ENDBRANCH   1  25
TORSDOF 6
ENDMDL
