MODEL 1
REMARK VINA RESULT:      -8.9      0.000      0.000
REMARK  Name = 
REMARK  4 active torsions:
REMARK  status: ('A' for Active; 'I' for Inactive)
REMARK    1  A    between atoms: C_4  and  C_5
REMARK    2  A    between atoms: C_16  and  N_17
REMARK    3  A    between atoms: C_21  and  C_22
REMARK    4  A    between atoms: N_24  and  C_25
REMARK                            x       y       z     vdW  Elec       q    Type
REMARK                         _______ _______ _______ _____ _____    ______ ____
ROOT
ATOM      1  N   UNL     1       1.204   3.756  21.169  0.00  0.00    +0.000 N 
ATOM      2  C   UNL     1       1.714   4.828  20.462  0.00  0.00    +0.000 A 
ATOM      3  N   UNL     1       2.552   4.552  19.460  0.00  0.00    +0.000 NA
ATOM      4  C   UNL     1       3.033   5.602  18.769  0.00  0.00    +0.000 A 
ATOM      5  C   UNL     1       2.673   6.892  19.099  0.00  0.00    +0.000 A 
ATOM      6  C   UNL     1       1.835   7.098  20.174  0.00  0.00    +0.000 A 
ATOM      7  N   UNL     1       1.351   6.052  20.862  0.00  0.00    +0.000 NA
ATOM      8  H   UNL     1       1.818   2.962  21.064  0.00  0.00    +0.000 HD
ATOM      9  H   UNL     1       0.977   4.052  22.107  0.00  0.00    +0.000 HD
ENDROOT
BRANCH   4  10
ATOM     10  C   UNL     1       3.929   5.315  17.621  0.00  0.00    +0.000 A 
ATOM     11  C   UNL     1       3.619   4.288  16.702  0.00  0.00    +0.000 A 
ATOM     12  C   UNL     1       4.473   3.927  15.652  0.00  0.00    +0.000 A 
ATOM     13  C   UNL     1       5.678   4.627  15.495  0.00  0.00    +0.000 A 
ATOM     14  C   UNL     1       6.791   4.568  14.618  0.00  0.00    +0.000 A 
ATOM     15  N   UNL     1       6.935   3.665  13.634  0.00  0.00    +0.000 N 
ATOM     16  N   UNL     1       7.699   5.498  14.894  0.00  0.00    +0.000 NA
ATOM     17  N   UNL     1       7.172   6.157  15.940  0.00  0.00    +0.000 N 
ATOM     18  C   UNL     1       5.967   5.666  16.369  0.00  0.00    +0.000 A 
ATOM     19  C   UNL     1       5.126   6.035  17.430  0.00  0.00    +0.000 A 
ATOM     20  H   UNL     1       6.439   2.783  13.686  0.00  0.00    +0.000 HD
ATOM     21  H   UNL     1       7.866   3.585  13.244  0.00  0.00    +0.000 HD
ATOM     22  H   UNL     1       7.692   6.937  16.325  0.00  0.00    +0.000 HD
ENDBRANCH   4  10
BRANCH   6  23
ATOM     23  N   UNL     1       1.430   8.389  20.481  0.00  0.00    +0.000 N 
ATOM     24  C   UNL     1       1.137   8.726  21.864  0.00  0.00    +0.000 C 
ATOM     25  C   UNL     1      -0.066   9.673  21.842  0.00  0.00    +0.000 C 
ATOM     26  C   UNL     1       0.192  10.905  20.968  0.00  0.00    +0.000 C 
ATOM     27  C   UNL     1       0.704  10.557  19.557  0.00  0.00    +0.000 C 
ATOM     28  C   UNL     1       1.822   9.504  19.616  0.00  0.00    +0.000 C 
BRANCH  27  29
ATOM     29  C   UNL     1      -0.404  10.140  18.585  0.00  0.00    +0.000 C 
ATOM     30  O   UNL     1      -0.274   9.264  17.736  0.00  0.00    +0.000 OA
ATOM     31  N   UNL     1      -1.553  10.902  18.672  0.00  0.00    +0.000 N 
ATOM     32  H   UNL     1      -1.655  11.556  19.436  0.00  0.00    +0.000 HD
BRANCH  31  33
ATOM     33  C   UNL     1      -2.727  10.588  17.880  0.00  0.00    +0.000 C 
ATOM     34  C   UNL     1      -3.948  11.393  18.312  0.00  0.00    +0.000 C 
ATOM     35  C   UNL     1      -4.885  11.308  17.114  0.00  0.00    +0.000 C 
ATOM     36  C   UNL     1      -3.990  11.125  15.889  0.00  0.00    +0.000 C 
ATOM     37  C   UNL     1      -2.565  10.976  16.415  0.00  0.00    +0.000 C 
ENDBRANCH  31  33
ENDBRANCH  27  29
ENDBRANCH   6  23
TORSDOF 4
ENDMDL
MODEL 2
REMARK VINA RESULT:      -8.8      0.625      1.275
REMARK  Name = 
REMARK  4 active torsions:
REMARK  status: ('A' for Active; 'I' for Inactive)
REMARK    1  A    between atoms: C_4  and  C_5
REMARK    2  A    between atoms: C_16  and  N_17
REMARK    3  A    between atoms: C_21  and  C_22
REMARK    4  A    between atoms: N_24  and  C_25
REMARK                            x       y       z     vdW  Elec       q    Type
REMARK                         _______ _______ _______ _____ _____    ______ ____
ROOT
ATOM      1  N   UNL     1       1.127   3.534  20.487  0.00  0.00    +0.000 N 
ATOM      2  C   UNL     1       1.725   4.677  19.990  0.00  0.00    +0.000 A 
ATOM      3  N   UNL     1       2.700   4.513  19.093  0.00  0.00    +0.000 NA
ATOM      4  C   UNL     1       3.266   5.632  18.605  0.00  0.00    +0.000 A 
ATOM      5  C   UNL     1       2.853   6.878  19.029  0.00  0.00    +0.000 A 
ATOM      6  C   UNL     1       1.867   6.964  19.989  0.00  0.00    +0.000 A 
ATOM      7  N   UNL     1       1.299   5.849  20.474  0.00  0.00    +0.000 NA
ATOM      8  H   UNL     1       1.756   2.753  20.378  0.00  0.00    +0.000 HD
ATOM      9  H   UNL     1       0.766   3.721  21.411  0.00  0.00    +0.000 HD
ENDROOT
BRANCH   4  10
ATOM     10  C   UNL     1       4.319   5.473  17.572  0.00  0.00    +0.000 A 
ATOM     11  C   UNL     1       5.334   6.443  17.420  0.00  0.00    +0.000 A 
ATOM     12  C   UNL     1       6.301   6.377  16.407  0.00  0.00    +0.000 A 
ATOM     13  C   UNL     1       6.271   5.292  15.520  0.00  0.00    +0.000 A 
ATOM     14  C   UNL     1       7.016   4.872  14.388  0.00  0.00    +0.000 A 
ATOM     15  N   UNL     1       8.034   5.564  13.852  0.00  0.00    +0.000 N 
ATOM     16  N   UNL     1       6.575   3.719  13.895  0.00  0.00    +0.000 NA
ATOM     17  N   UNL     1       5.556   3.394  14.707  0.00  0.00    +0.000 N 
ATOM     18  C   UNL     1       5.302   4.313  15.692  0.00  0.00    +0.000 A 
ATOM     19  C   UNL     1       4.322   4.368  16.695  0.00  0.00    +0.000 A 
ATOM     20  H   UNL     1       8.098   6.563  14.005  0.00  0.00    +0.000 HD
ATOM     21  H   UNL     1       8.319   5.276  12.923  0.00  0.00    +0.000 HD
ATOM     22  H   UNL     1       5.062   2.527  14.532  0.00  0.00    +0.000 HD
ENDBRANCH   4  10
BRANCH   6  23
ATOM     23  N   UNL     1       1.413   8.214  20.385  0.00  0.00    +0.000 N 
ATOM     24  C   UNL     1       1.012   8.414  21.767  0.00  0.00    +0.000 C 
ATOM     25  C   UNL     1      -0.207   9.340  21.743  0.00  0.00    +0.000 C 
ATOM     26  C   UNL     1       0.086  10.653  21.010  0.00  0.00    +0.000 C 
ATOM     27  C   UNL     1       0.708  10.449  19.615  0.00  0.00    +0.000 C 
ATOM     28  C   UNL     1       1.842   9.412  19.659  0.00  0.00    +0.000 C 
BRANCH  27  29
ATOM     29  C   UNL     1      -0.318  10.108  18.529  0.00  0.00    +0.000 C 
ATOM     30  O   UNL     1      -0.064   9.426  17.540  0.00  0.00    +0.000 OA
ATOM     31  N   UNL     1      -1.547  10.716  18.696  0.00  0.00    +0.000 N 
ATOM     32  H   UNL     1      -1.743  11.201  19.561  0.00  0.00    +0.000 HD
BRANCH  31  33
ATOM     33  C   UNL     1      -2.653  10.435  17.802  0.00  0.00    +0.000 C 
ATOM     34  C   UNL     1      -3.853  11.340  18.064  0.00  0.00    +0.000 C 
ATOM     35  C   UNL     1      -4.668  11.251  16.781  0.00  0.00    +0.000 C 
ATOM     36  C   UNL     1      -3.668  10.944  15.666  0.00  0.00    +0.000 C 
ATOM     37  C   UNL     1      -2.317  10.732  16.345  0.00  0.00    +0.000 C 
ENDBRANCH  31  33
ENDBRANCH  27  29
ENDBRANCH   6  23
TORSDOF 4
ENDMDL
MODEL 3
REMARK VINA RESULT:      -8.6      2.996      4.965
REMARK  Name = 
REMARK  4 active torsions:
REMARK  status: ('A' for Active; 'I' for Inactive)
REMARK    1  A    between atoms: C_4  and  C_5
REMARK    2  A    between atoms: C_16  and  N_17
REMARK    3  A    between atoms: C_21  and  C_22
REMARK    4  A    between atoms: N_24  and  C_25
REMARK                            x       y       z     vdW  Elec       q    Type
REMARK                         _______ _______ _______ _____ _____    ______ ____
ROOT
ATOM      1  N   UNL     1      -0.044   9.252  23.553  0.00  0.00    +0.000 N 
ATOM      2  C   UNL     1       0.420   9.256  22.252  0.00  0.00    +0.000 A 
ATOM      3  N   UNL     1       1.010   8.141  21.814  0.00  0.00    +0.000 NA
ATOM      4  C   UNL     1       1.446   8.149  20.540  0.00  0.00    +0.000 A 
ATOM      5  C   UNL     1       1.291   9.265  19.745  0.00  0.00    +0.000 A 
ATOM      6  C   UNL     1       0.707  10.393  20.283  0.00  0.00    +0.000 A 
ATOM      7  N   UNL     1       0.268  10.385  21.551  0.00  0.00    +0.000 NA
ATOM      8  H   UNL     1       0.454   8.554  24.085  0.00  0.00    +0.000 HD
ATOM      9  H   UNL     1      -0.049  10.197  23.908  0.00  0.00    +0.000 HD
ENDROOT
BRANCH   4  10
ATOM     10  C   UNL     1       2.063   6.904  20.019  0.00  0.00    +0.000 A 
ATOM     11  C   UNL     1       2.779   6.907  18.801  0.00  0.00    +0.000 A 
ATOM     12  C   UNL     1       3.308   5.742  18.230  0.00  0.00    +0.000 A 
ATOM     13  C   UNL     1       3.138   4.525  18.905  0.00  0.00    +0.000 A 
ATOM     14  C   UNL     1       3.479   3.168  18.674  0.00  0.00    +0.000 A 
ATOM     15  N   UNL     1       4.104   2.720  17.573  0.00  0.00    +0.000 N 
ATOM     16  N   UNL     1       3.086   2.375  19.666  0.00  0.00    +0.000 NA
ATOM     17  N   UNL     1       2.500   3.216  20.534  0.00  0.00    +0.000 N 
ATOM     18  C   UNL     1       2.473   4.523  20.124  0.00  0.00    +0.000 A 
ATOM     19  C   UNL     1       1.930   5.680  20.706  0.00  0.00    +0.000 A 
ATOM     20  H   UNL     1       4.054   3.255  16.715  0.00  0.00    +0.000 HD
ATOM     21  H   UNL     1       4.075   1.718  17.429  0.00  0.00    +0.000 HD
ATOM     22  H   UNL     1       2.127   2.833  21.394  0.00  0.00    +0.000 HD
ENDBRANCH   4  10
BRANCH   6  23
ATOM     23  N   UNL     1       0.503  11.503  19.475  0.00  0.00    +0.000 N 
ATOM     24  C   UNL     1       1.646  12.120  18.824  0.00  0.00    +0.000 C 
ATOM     25  C   UNL     1       1.406  13.633  18.855  0.00  0.00    +0.000 C 
ATOM     26  C   UNL     1       0.070  14.013  18.206  0.00  0.00    +0.000 C 
ATOM     27  C   UNL     1      -1.125  13.208  18.751  0.00  0.00    +0.000 C 
ATOM     28  C   UNL     1      -0.796  11.709  18.829  0.00  0.00    +0.000 C 
BRANCH  27  29
ATOM     29  C   UNL     1      -1.661  13.731  20.088  0.00  0.00    +0.000 C 
ATOM     30  O   UNL     1      -1.436  14.857  20.521  0.00  0.00    +0.000 OA
ATOM     31  N   UNL     1      -2.351  12.792  20.831  0.00  0.00    +0.000 N 
ATOM     32  H   UNL     1      -2.586  11.905  20.408  0.00  0.00    +0.000 HD
BRANCH  31  33
ATOM     33  C   UNL     1      -2.993  13.145  22.082  0.00  0.00    +0.000 C 
ATOM     34  C   UNL     1      -4.514  13.089  21.988  0.00  0.00    +0.000 C 
ATOM     35  C   UNL     1      -4.968  12.997  23.439  0.00  0.00    +0.000 C 
ATOM     36  C   UNL     1      -3.826  12.320  24.197  0.00  0.00    +0.000 C 
ATOM     37  C   UNL     1      -2.684  12.154  23.198  0.00  0.00    +0.000 C 
ENDBRANCH  31  33
ENDBRANCH  27  29
ENDBRANCH   6  23
TORSDOF 4
ENDMDL
MODEL 4
REMARK VINA RESULT:      -8.6      3.079      4.765
REMARK  Name = 
REMARK  4 active torsions:
REMARK  status: ('A' for Active; 'I' for Inactive)
REMARK    1  A    between atoms: C_4  and  C_5
REMARK    2  A    between atoms: C_16  and  N_17
REMARK    3  A    between atoms: C_21  and  C_22
REMARK    4  A    between atoms: N_24  and  C_25
REMARK                            x       y       z     vdW  Elec       q    Type
REMARK                         _______ _______ _______ _____ _____    ______ ____
ROOT
ATOM      1  N   UNL     1      -0.292   9.234  23.493  0.00  0.00    +0.000 N 
ATOM      2  C   UNL     1       0.253   9.338  22.228  0.00  0.00    +0.000 A 
ATOM      3  N   UNL     1       0.847   8.250  21.730  0.00  0.00    +0.000 NA
ATOM      4  C   UNL     1       1.362   8.357  20.491  0.00  0.00    +0.000 A 
ATOM      5  C   UNL     1       1.279   9.541  19.790  0.00  0.00    +0.000 A 
ATOM      6  C   UNL     1       0.685  10.633  20.388  0.00  0.00    +0.000 A 
ATOM      7  N   UNL     1       0.168  10.527  21.621  0.00  0.00    +0.000 NA
ATOM      8  H   UNL     1       0.158   8.480  23.991  0.00  0.00    +0.000 HD
ATOM      9  H   UNL     1      -0.300  10.145  23.929  0.00  0.00    +0.000 HD
ENDROOT
BRANCH   4  10
ATOM     10  C   UNL     1       1.984   7.146  19.901  0.00  0.00    +0.000 A 
ATOM     11  C   UNL     1       1.870   5.891  20.540  0.00  0.00    +0.000 A 
ATOM     12  C   UNL     1       2.508   4.738  20.064  0.00  0.00    +0.000 A 
ATOM     13  C   UNL     1       3.276   4.829  18.895  0.00  0.00    +0.000 A 
ATOM     14  C   UNL     1       4.072   3.946  18.120  0.00  0.00    +0.000 A 
ATOM     15  N   UNL     1       4.299   2.660  18.430  0.00  0.00    +0.000 N 
ATOM     16  N   UNL     1       4.596   4.546  17.055  0.00  0.00    +0.000 NA
ATOM     17  N   UNL     1       4.136   5.805  17.139  0.00  0.00    +0.000 N 
ATOM     18  C   UNL     1       3.355   6.050  18.239  0.00  0.00    +0.000 A 
ATOM     19  C   UNL     1       2.729   7.216  18.706  0.00  0.00    +0.000 A 
ATOM     20  H   UNL     1       4.207   2.351  19.390  0.00  0.00    +0.000 HD
ATOM     21  H   UNL     1       5.063   2.216  17.933  0.00  0.00    +0.000 HD
ATOM     22  H   UNL     1       4.397   6.460  16.412  0.00  0.00    +0.000 HD
ENDBRANCH   4  10
BRANCH   6  23
ATOM     23  N   UNL     1       0.555  11.813  19.670  0.00  0.00    +0.000 N 
ATOM     24  C   UNL     1       1.748  12.453  19.141  0.00  0.00    +0.000 C 
ATOM     25  C   UNL     1       1.541  13.963  19.290  0.00  0.00    +0.000 C 
ATOM     26  C   UNL     1       0.256  14.435  18.603  0.00  0.00    +0.000 C 
ATOM     27  C   UNL     1      -0.988  13.619  19.007  0.00  0.00    +0.000 C 
ATOM     28  C   UNL     1      -0.698  12.111  18.972  0.00  0.00    +0.000 C 
BRANCH  27  29
ATOM     29  C   UNL     1      -1.590  14.041  20.351  0.00  0.00    +0.000 C 
ATOM     30  O   UNL     1      -1.337  15.104  20.910  0.00  0.00    +0.000 OA
ATOM     31  N   UNL     1      -2.379  13.077  20.948  0.00  0.00    +0.000 N 
ATOM     32  H   UNL     1      -2.631  12.251  20.422  0.00  0.00    +0.000 HD
BRANCH  31  33
ATOM     33  C   UNL     1      -3.089  13.344  22.183  0.00  0.00    +0.000 C 
ATOM     34  C   UNL     1      -4.596  13.152  22.039  0.00  0.00    +0.000 C 
ATOM     35  C   UNL     1      -5.084  12.988  23.472  0.00  0.00    +0.000 C 
ATOM     36  C   UNL     1      -3.910  12.403  24.254  0.00  0.00    +0.000 C 
ATOM     37  C   UNL     1      -2.727  12.361  23.291  0.00  0.00    +0.000 C 
ENDBRANCH  31  33
ENDBRANCH  27  29
ENDBRANCH   6  23
TORSDOF 4
ENDMDL
MODEL 5
REMARK VINA RESULT:      -8.4      3.420      9.058
REMARK  Name = 
REMARK  4 active torsions:
REMARK  status: ('A' for Active; 'I' for Inactive)
REMARK    1  A    between atoms: C_4  and  C_5
REMARK    2  A    between atoms: C_16  and  N_17
REMARK    3  A    between atoms: C_21  and  C_22
REMARK    4  A    between atoms: N_24  and  C_25
REMARK                            x       y       z     vdW  Elec       q    Type
REMARK                         _______ _______ _______ _____ _____    ______ ____
ROOT
ATOM      1  N   UNL     1       3.593   7.934  17.199  0.00  0.00    +0.000 N 
ATOM      2  C   UNL     1       2.847   7.563  18.302  0.00  0.00    +0.000 A 
ATOM      3  N   UNL     1       2.274   8.543  19.006  0.00  0.00    +0.000 NA
ATOM      4  C   UNL     1       1.538   8.171  20.069  0.00  0.00    +0.000 A 
ATOM      5  C   UNL     1       1.400   6.840  20.405  0.00  0.00    +0.000 A 
ATOM      6  C   UNL     1       2.056   5.889  19.653  0.00  0.00    +0.000 A 
ATOM      7  N   UNL     1       2.788   6.258  18.589  0.00  0.00    +0.000 NA
ATOM      8  H   UNL     1       3.895   8.891  17.305  0.00  0.00    +0.000 HD
ATOM      9  H   UNL     1       4.301   7.235  17.026  0.00  0.00    +0.000 HD
ENDROOT
BRANCH   4  10
ATOM     10  C   UNL     1       0.855   9.241  20.838  0.00  0.00    +0.000 A 
ATOM     11  C   UNL     1       0.165   8.944  22.034  0.00  0.00    +0.000 A 
ATOM     12  C   UNL     1      -0.562   9.905  22.749  0.00  0.00    +0.000 A 
ATOM     13  C   UNL     1      -0.590  11.221  22.268  0.00  0.00    +0.000 A 
ATOM     14  C   UNL     1      -1.199  12.443  22.656  0.00  0.00    +0.000 A 
ATOM     15  N   UNL     1      -2.018  12.579  23.711  0.00  0.00    +0.000 N 
ATOM     16  N   UNL     1      -0.886  13.443  21.838  0.00  0.00    +0.000 NA
ATOM     17  N   UNL     1      -0.077  12.871  20.931  0.00  0.00    +0.000 N 
ATOM     18  C   UNL     1       0.123  11.528  21.116  0.00  0.00    +0.000 A 
ATOM     19  C   UNL     1       0.849  10.576  20.384  0.00  0.00    +0.000 A 
ATOM     20  H   UNL     1      -2.512  11.772  24.070  0.00  0.00    +0.000 HD
ATOM     21  H   UNL     1      -2.562  13.433  23.737  0.00  0.00    +0.000 HD
ATOM     22  H   UNL     1       0.307  13.455  20.197  0.00  0.00    +0.000 HD
ENDBRANCH   4  10
BRANCH   6  23
ATOM     23  N   UNL     1       1.883   4.546  19.955  0.00  0.00    +0.000 N 
ATOM     24  C   UNL     1       1.745   4.149  21.346  0.00  0.00    +0.000 C 
ATOM     25  C   UNL     1       2.490   2.820  21.501  0.00  0.00    +0.000 C 
ATOM     26  C   UNL     1       1.978   1.759  20.522  0.00  0.00    +0.000 C 
ATOM     27  C   UNL     1       1.927   2.248  19.062  0.00  0.00    +0.000 C 
ATOM     28  C   UNL     1       1.291   3.643  18.965  0.00  0.00    +0.000 C 
BRANCH  27  29
ATOM     29  C   UNL     1       3.283   2.203  18.350  0.00  0.00    +0.000 C 
ATOM     30  O   UNL     1       3.972   1.192  18.256  0.00  0.00    +0.000 OA
ATOM     31  N   UNL     1       3.728   3.430  17.897  0.00  0.00    +0.000 N 
ATOM     32  H   UNL     1       3.100   4.221  17.918  0.00  0.00    +0.000 HD
BRANCH  31  33
ATOM     33  C   UNL     1       4.954   3.550  17.131  0.00  0.00    +0.000 C 
ATOM     34  C   UNL     1       4.767   4.382  15.866  0.00  0.00    +0.000 C 
ATOM     35  C   UNL     1       6.182   4.798  15.488  0.00  0.00    +0.000 C 
ATOM     36  C   UNL     1       6.975   4.834  16.794  0.00  0.00    +0.000 C 
ATOM     37  C   UNL     1       6.040   4.312  17.881  0.00  0.00    +0.000 C 
ENDBRANCH  31  33
ENDBRANCH  27  29
ENDBRANCH   6  23
TORSDOF 4
ENDMDL
MODEL 6
REMARK VINA RESULT:      -8.3      3.322      9.061
REMARK  Name = 
REMARK  4 active torsions:
REMARK  status: ('A' for Active; 'I' for Inactive)
REMARK    1  A    between atoms: C_4  and  C_5
REMARK    2  A    between atoms: C_16  and  N_17
REMARK    3  A    between atoms: C_21  and  C_22
REMARK    4  A    between atoms: N_24  and  C_25
REMARK                            x       y       z     vdW  Elec       q    Type
REMARK                         _______ _______ _______ _____ _____    ______ ____
ROOT
ATOM      1  N   UNL     1       3.982   7.902  16.876  0.00  0.00    +0.000 N 
ATOM      2  C   UNL     1       3.132   7.612  17.926  0.00  0.00    +0.000 A 
ATOM      3  N   UNL     1       2.526   8.643  18.520  0.00  0.00    +0.000 NA
ATOM      4  C   UNL     1       1.689   8.348  19.532  0.00  0.00    +0.000 A 
ATOM      5  C   UNL     1       1.486   7.043  19.927  0.00  0.00    +0.000 A 
ATOM      6  C   UNL     1       2.179   6.036  19.290  0.00  0.00    +0.000 A 
ATOM      7  N   UNL     1       3.012   6.327  18.278  0.00  0.00    +0.000 NA
ATOM      8  H   UNL     1       4.300   8.857  16.956  0.00  0.00    +0.000 HD
ATOM      9  H   UNL     1       4.684   7.179  16.805  0.00  0.00    +0.000 HD
ENDROOT
BRANCH   4  10
ATOM     10  C   UNL     1       0.969   9.476  20.176  0.00  0.00    +0.000 A 
ATOM     11  C   UNL     1       0.928  10.749  19.566  0.00  0.00    +0.000 A 
ATOM     12  C   UNL     1       0.332  11.862  20.173  0.00  0.00    +0.000 A 
ATOM     13  C   UNL     1      -0.266  11.701  21.431  0.00  0.00    +0.000 A 
ATOM     14  C   UNL     1      -0.929  12.537  22.365  0.00  0.00    +0.000 A 
ATOM     15  N   UNL     1      -1.110  13.858  22.206  0.00  0.00    +0.000 N 
ATOM     16  N   UNL     1      -1.335  11.868  23.440  0.00  0.00    +0.000 NA
ATOM     17  N   UNL     1      -0.941  10.607  23.197  0.00  0.00    +0.000 N 
ATOM     18  C   UNL     1      -0.267  10.442  22.015  0.00  0.00    +0.000 A 
ATOM     19  C   UNL     1       0.332   9.319  21.424  0.00  0.00    +0.000 A 
ATOM     20  H   UNL     1      -0.493  14.379  21.595  0.00  0.00    +0.000 HD
ATOM     21  H   UNL     1      -1.382  14.368  23.039  0.00  0.00    +0.000 HD
ATOM     22  H   UNL     1      -1.157   9.897  23.887  0.00  0.00    +0.000 HD
ENDBRANCH   4  10
BRANCH   6  23
ATOM     23  N   UNL     1       1.944   4.716  19.649  0.00  0.00    +0.000 N 
ATOM     24  C   UNL     1       1.739   4.393  21.050  0.00  0.00    +0.000 C 
ATOM     25  C   UNL     1       2.427   3.047  21.296  0.00  0.00    +0.000 C 
ATOM     26  C   UNL     1       1.910   1.958  20.350  0.00  0.00    +0.000 C 
ATOM     27  C   UNL     1       1.931   2.377  18.867  0.00  0.00    +0.000 C 
ATOM     28  C   UNL     1       1.353   3.789  18.680  0.00  0.00    +0.000 C 
BRANCH  27  29
ATOM     29  C   UNL     1       3.310   2.248  18.211  0.00  0.00    +0.000 C 
ATOM     30  O   UNL     1       3.956   1.205  18.179  0.00  0.00    +0.000 OA
ATOM     31  N   UNL     1       3.825   3.436  17.732  0.00  0.00    +0.000 N 
ATOM     32  H   UNL     1       3.232   4.254  17.701  0.00  0.00    +0.000 HD
BRANCH  31  33
ATOM     33  C   UNL     1       5.083   3.476  17.011  0.00  0.00    +0.000 C 
ATOM     34  C   UNL     1       4.975   4.250  15.702  0.00  0.00    +0.000 C 
ATOM     35  C   UNL     1       6.418   4.596  15.361  0.00  0.00    +0.000 C 
ATOM     36  C   UNL     1       7.162   4.670  16.693  0.00  0.00    +0.000 C 
ATOM     37  C   UNL     1       6.167   4.236  17.767  0.00  0.00    +0.000 C 
ENDBRANCH  31  33
ENDBRANCH  27  29
ENDBRANCH   6  23
TORSDOF 4
ENDMDL
MODEL 7
REMARK VINA RESULT:      -8.3      3.416      6.517
REMARK  Name = 
REMARK  4 active torsions:
REMARK  status: ('A' for Active; 'I' for Inactive)
REMARK    1  A    between atoms: C_4  and  C_5
REMARK    2  A    between atoms: C_16  and  N_17
REMARK    3  A    between atoms: C_21  and  C_22
REMARK    4  A    between atoms: N_24  and  C_25
REMARK                            x       y       z     vdW  Elec       q    Type
REMARK                         _______ _______ _______ _____ _____    ______ ____
ROOT
ATOM      1  N   UNL     1       1.509  14.840  21.842  0.00  0.00    +0.000 N 
ATOM      2  C   UNL     1       0.594  13.828  21.620  0.00  0.00    +0.000 A 
ATOM      3  N   UNL     1       1.081  12.634  21.271  0.00  0.00    +0.000 NA
ATOM      4  C   UNL     1       0.183  11.652  21.071  0.00  0.00    +0.000 A 
ATOM      5  C   UNL     1      -1.168  11.887  21.215  0.00  0.00    +0.000 A 
ATOM      6  C   UNL     1      -1.596  13.158  21.537  0.00  0.00    +0.000 A 
ATOM      7  N   UNL     1      -0.702  14.138  21.741  0.00  0.00    +0.000 NA
ATOM      8  H   UNL     1       2.367  14.629  21.355  0.00  0.00    +0.000 HD
ATOM      9  H   UNL     1       1.072  15.731  21.656  0.00  0.00    +0.000 HD
ENDROOT
BRANCH   4  10
ATOM     10  C   UNL     1       0.705  10.306  20.729  0.00  0.00    +0.000 A 
ATOM     11  C   UNL     1       0.804   9.298  21.714  0.00  0.00    +0.000 A 
ATOM     12  C   UNL     1       1.366   8.040  21.458  0.00  0.00    +0.000 A 
ATOM     13  C   UNL     1       1.832   7.763  20.165  0.00  0.00    +0.000 A 
ATOM     14  C   UNL     1       2.464   6.672  19.514  0.00  0.00    +0.000 A 
ATOM     15  N   UNL     1       2.818   5.529  20.122  0.00  0.00    +0.000 N 
ATOM     16  N   UNL     1       2.693   6.918  18.228  0.00  0.00    +0.000 NA
ATOM     17  N   UNL     1       2.207   8.157  18.048  0.00  0.00    +0.000 N 
ATOM     18  C   UNL     1       1.697   8.734  19.182  0.00  0.00    +0.000 A 
ATOM     19  C   UNL     1       1.144  10.002  19.424  0.00  0.00    +0.000 A 
ATOM     20  H   UNL     1       2.969   5.519  21.123  0.00  0.00    +0.000 HD
ATOM     21  H   UNL     1       3.463   4.939  19.608  0.00  0.00    +0.000 HD
ATOM     22  H   UNL     1       2.258   8.562  17.121  0.00  0.00    +0.000 HD
ENDBRANCH   4  10
BRANCH   6  23
ATOM     23  N   UNL     1      -2.950  13.390  21.731  0.00  0.00    +0.000 N 
ATOM     24  C   UNL     1      -3.480  13.387  23.083  0.00  0.00    +0.000 C 
ATOM     25  C   UNL     1      -4.860  12.727  23.015  0.00  0.00    +0.000 C 
ATOM     26  C   UNL     1      -5.782  13.431  22.013  0.00  0.00    +0.000 C 
ATOM     27  C   UNL     1      -5.142  13.623  20.625  0.00  0.00    +0.000 C 
ATOM     28  C   UNL     1      -3.708  14.163  20.744  0.00  0.00    +0.000 C 
BRANCH  27  29
ATOM     29  C   UNL     1      -5.195  12.370  19.744  0.00  0.00    +0.000 C 
ATOM     30  O   UNL     1      -6.092  11.534  19.799  0.00  0.00    +0.000 OA
ATOM     31  N   UNL     1      -4.089  12.196  18.935  0.00  0.00    +0.000 N 
ATOM     32  H   UNL     1      -3.413  12.944  18.856  0.00  0.00    +0.000 HD
BRANCH  31  33
ATOM     33  C   UNL     1      -4.016  11.106  17.982  0.00  0.00    +0.000 C 
ATOM     34  C   UNL     1      -4.265  11.571  16.551  0.00  0.00    +0.000 C 
ATOM     35  C   UNL     1      -3.679  10.455  15.696  0.00  0.00    +0.000 C 
ATOM     36  C   UNL     1      -2.571   9.818  16.533  0.00  0.00    +0.000 C 
ATOM     37  C   UNL     1      -2.624  10.491  17.902  0.00  0.00    +0.000 C 
ENDBRANCH  31  33
ENDBRANCH  27  29
ENDBRANCH   6  23
TORSDOF 4
ENDMDL
MODEL 8
REMARK VINA RESULT:      -8.2      2.675      4.875
REMARK  Name = 
REMARK  4 active torsions:
REMARK  status: ('A' for Active; 'I' for Inactive)
REMARK    1  A    between atoms: C_4  and  C_5
REMARK    2  A    between atoms: C_16  and  N_17
REMARK    3  A    between atoms: C_21  and  C_22
REMARK    4  A    between atoms: N_24  and  C_25
REMARK                            x       y       z     vdW  Elec       q    Type
REMARK                         _______ _______ _______ _____ _____    ______ ____
ROOT
ATOM      1  N   UNL     1      -1.948  10.631  16.480  0.00  0.00    +0.000 N 
ATOM      2  C   UNL     1      -1.222  10.417  17.636  0.00  0.00    +0.000 A 
ATOM      3  N   UNL     1      -0.218   9.539  17.570  0.00  0.00    +0.000 NA
ATOM      4  C   UNL     1       0.492   9.348  18.697  0.00  0.00    +0.000 A 
ATOM      5  C   UNL     1       0.179  10.028  19.855  0.00  0.00    +0.000 A 
ATOM      6  C   UNL     1      -0.899  10.888  19.855  0.00  0.00    +0.000 A 
ATOM      7  N   UNL     1      -1.605  11.083  18.731  0.00  0.00    +0.000 NA
ATOM      8  H   UNL     1      -1.850   9.833  15.870  0.00  0.00    +0.000 HD
ATOM      9  H   UNL     1      -2.883  10.924  16.723  0.00  0.00    +0.000 HD
ENDROOT
BRANCH   4  10
ATOM     10  C   UNL     1       1.641   8.411  18.633  0.00  0.00    +0.000 A 
ATOM     11  C   UNL     1       2.577   8.488  17.577  0.00  0.00    +0.000 A 
ATOM     12  C   UNL     1       3.630   7.575  17.430  0.00  0.00    +0.000 A 
ATOM     13  C   UNL     1       3.773   6.555  18.381  0.00  0.00    +0.000 A 
ATOM     14  C   UNL     1       4.648   5.456  18.583  0.00  0.00    +0.000 A 
ATOM     15  N   UNL     1       5.645   5.118  17.749  0.00  0.00    +0.000 N 
ATOM     16  N   UNL     1       4.354   4.776  19.686  0.00  0.00    +0.000 NA
ATOM     17  N   UNL     1       3.300   5.434  20.196  0.00  0.00    +0.000 N 
ATOM     18  C   UNL     1       2.882   6.501  19.444  0.00  0.00    +0.000 A 
ATOM     19  C   UNL     1       1.818   7.402  19.602  0.00  0.00    +0.000 A 
ATOM     20  H   UNL     1       5.607   5.407  16.779  0.00  0.00    +0.000 HD
ATOM     21  H   UNL     1       6.034   4.192  17.883  0.00  0.00    +0.000 HD
ATOM     22  H   UNL     1       2.901   5.100  21.065  0.00  0.00    +0.000 HD
ENDBRANCH   4  10
BRANCH   6  23
ATOM     23  N   UNL     1      -1.190  11.612  21.003  0.00  0.00    +0.000 N 
ATOM     24  C   UNL     1      -0.560  11.231  22.255  0.00  0.00    +0.000 C 
ATOM     25  C   UNL     1      -1.612  11.420  23.353  0.00  0.00    +0.000 C 
ATOM     26  C   UNL     1      -2.167  12.848  23.373  0.00  0.00    +0.000 C 
ATOM     27  C   UNL     1      -2.650  13.335  21.993  0.00  0.00    +0.000 C 
ATOM     28  C   UNL     1      -1.623  13.007  20.898  0.00  0.00    +0.000 C 
BRANCH  27  29
ATOM     29  C   UNL     1      -4.047  12.831  21.617  0.00  0.00    +0.000 C 
ATOM     30  O   UNL     1      -4.881  12.456  22.435  0.00  0.00    +0.000 OA
ATOM     31  N   UNL     1      -4.270  12.737  20.257  0.00  0.00    +0.000 N 
ATOM     32  H   UNL     1      -3.593  13.131  19.618  0.00  0.00    +0.000 HD
BRANCH  31  33
ATOM     33  C   UNL     1      -5.566  12.355  19.731  0.00  0.00    +0.000 C 
ATOM     34  C   UNL     1      -6.458  13.561  19.457  0.00  0.00    +0.000 C 
ATOM     35  C   UNL     1      -7.510  13.028  18.494  0.00  0.00    +0.000 C 
ATOM     36  C   UNL     1      -6.846  11.881  17.734  0.00  0.00    +0.000 C 
ATOM     37  C   UNL     1      -5.469  11.687  18.364  0.00  0.00    +0.000 C 
ENDBRANCH  31  33
ENDBRANCH  27  29
ENDBRANCH   6  23
TORSDOF 4
ENDMDL
MODEL 9
REMARK VINA RESULT:      -8.2      2.682      4.336
REMARK  Name = 
REMARK  4 active torsions:
REMARK  status: ('A' for Active; 'I' for Inactive)
REMARK    1  A    between atoms: C_4  and  C_5
REMARK    2  A    between atoms: C_16  and  N_17
REMARK    3  A    between atoms: C_21  and  C_22
REMARK    4  A    between atoms: N_24  and  C_25
REMARK                            x       y       z     vdW  Elec       q    Type
REMARK                         _______ _______ _______ _____ _____    ______ ____
ROOT
ATOM      1  N   UNL     1       0.018   9.232  23.792  0.00  0.00    +0.000 N 
ATOM      2  C   UNL     1       0.447   9.274  22.479  0.00  0.00    +0.000 A 
ATOM      3  N   UNL     1       1.028   8.174  21.993  0.00  0.00    +0.000 NA
ATOM      4  C   UNL     1       1.429   8.220  20.709  0.00  0.00    +0.000 A 
ATOM      5  C   UNL     1       1.249   9.357  19.951  0.00  0.00    +0.000 A 
ATOM      6  C   UNL     1       0.678  10.467  20.536  0.00  0.00    +0.000 A 
ATOM      7  N   UNL     1       0.273  10.422  21.815  0.00  0.00    +0.000 NA
ATOM      8  H   UNL     1       0.532   8.521  24.290  0.00  0.00    +0.000 HD
ATOM      9  H   UNL     1       0.021  10.167  24.173  0.00  0.00    +0.000 HD
ENDROOT
BRANCH   4  10
ATOM     10  C   UNL     1       2.034   6.991  20.137  0.00  0.00    +0.000 A 
ATOM     11  C   UNL     1       2.787   7.046  18.943  0.00  0.00    +0.000 A 
ATOM     12  C   UNL     1       3.309   5.903  18.322  0.00  0.00    +0.000 A 
ATOM     13  C   UNL     1       3.091   4.655  18.921  0.00  0.00    +0.000 A 
ATOM     14  C   UNL     1       3.410   3.305  18.624  0.00  0.00    +0.000 A 
ATOM     15  N   UNL     1       4.058   2.905  17.518  0.00  0.00    +0.000 N 
ATOM     16  N   UNL     1       2.969   2.466  19.556  0.00  0.00    +0.000 NA
ATOM     17  N   UNL     1       2.374   3.271  20.453  0.00  0.00    +0.000 N 
ATOM     18  C   UNL     1       2.389   4.600  20.118  0.00  0.00    +0.000 A 
ATOM     19  C   UNL     1       1.854   5.734  20.748  0.00  0.00    +0.000 A 
ATOM     20  H   UNL     1       4.046   3.489  16.691  0.00  0.00    +0.000 HD
ATOM     21  H   UNL     1       4.012   1.913  17.316  0.00  0.00    +0.000 HD
ATOM     22  H   UNL     1       1.967   2.849  21.279  0.00  0.00    +0.000 HD
ENDBRANCH   4  10
BRANCH   6  23
ATOM     23  N   UNL     1       0.449  11.599  19.766  0.00  0.00    +0.000 N 
ATOM     24  C   UNL     1       1.306  12.758  19.945  0.00  0.00    +0.000 C 
ATOM     25  C   UNL     1       0.409  13.993  19.814  0.00  0.00    +0.000 C 
ATOM     26  C   UNL     1      -0.350  14.011  18.483  0.00  0.00    +0.000 C 
ATOM     27  C   UNL     1      -1.098  12.696  18.189  0.00  0.00    +0.000 C 
ATOM     28  C   UNL     1      -0.204  11.475  18.460  0.00  0.00    +0.000 C 
BRANCH  27  29
ATOM     29  C   UNL     1      -2.441  12.575  18.917  0.00  0.00    +0.000 C 
ATOM     30  O   UNL     1      -2.605  12.859  20.099  0.00  0.00    +0.000 OA
ATOM     31  N   UNL     1      -3.452  12.022  18.156  0.00  0.00    +0.000 N 
ATOM     32  H   UNL     1      -3.303  11.879  17.166  0.00  0.00    +0.000 HD
BRANCH  31  33
ATOM     33  C   UNL     1      -4.805  11.913  18.667  0.00  0.00    +0.000 C 
ATOM     34  C   UNL     1      -5.778  12.825  17.927  0.00  0.00    +0.000 C 
ATOM     35  C   UNL     1      -7.146  12.233  18.239  0.00  0.00    +0.000 C 
ATOM     36  C   UNL     1      -6.914  10.743  18.489  0.00  0.00    +0.000 C 
ATOM     37  C   UNL     1      -5.403  10.529  18.446  0.00  0.00    +0.000 C 
ENDBRANCH  31  33
ENDBRANCH  27  29
ENDBRANCH   6  23
TORSDOF 4
ENDMDL
