MODEL 1
REMARK VINA RESULT:      -7.5      0.000      0.000
REMARK  Name = 
REMARK  5 active torsions:
REMARK  status: ('A' for Active; 'I' for Inactive)
REMARK    1  A    between atoms: C_1  and  C_2
REMARK    2  A    between atoms: C_2  and  N_3
REMARK    3  A    between atoms: N_9  and  C_10
REMARK    4  A    between atoms: C_15  and  C_16
REMARK    5  A    between atoms: C_16  and  C_17
REMARK                            x       y       z     vdW  Elec       q    Type
REMARK                         _______ _______ _______ _____ _____    ______ ____
ROOT
ATOM      1  N   UNL     1       7.575   5.673  18.743  0.00  0.00    +0.000 N 
ATOM      2  C   UNL     1       7.269   4.770  17.770  0.00  0.00    +0.000 C 
ATOM      3  N   UNL     1       7.897   4.609  16.662  0.00  0.00    +0.000 NA
ATOM      4  N   UNL     1       6.220   3.915  17.947  0.00  0.00    +0.000 N 
ATOM      5  C   UNL     1       5.183   4.073  18.844  0.00  0.00    +0.000 C 
ATOM      6  O   UNL     1       5.005   5.116  19.475  0.00  0.00    +0.000 OA
ATOM      7  N   UNL     1       4.409   2.932  18.963  0.00  0.00    +0.000 N 
ATOM      8  H   UNL     1       6.838   5.721  19.454  0.00  0.00    +0.000 HD
ATOM      9  H   UNL     1       8.671   5.274  16.630  0.00  0.00    +0.000 HD
ATOM     10  H   UNL     1       6.077   3.290  17.169  0.00  0.00    +0.000 HD
ATOM     11  H   UNL     1       4.959   2.084  18.966  0.00  0.00    +0.000 HD
ENDROOT
BRANCH   7  12
ATOM     12  C   UNL     1       3.246   2.939  19.769  0.00  0.00    +0.000 A 
ATOM     13  C   UNL     1       3.323   2.404  21.064  0.00  0.00    +0.000 A 
ATOM     14  C   UNL     1       2.208   2.396  21.899  0.00  0.00    +0.000 A 
ATOM     15  C   UNL     1       1.006   2.931  21.450  0.00  0.00    +0.000 A 
ATOM     16  C   UNL     1       0.921   3.470  20.164  0.00  0.00    +0.000 A 
ATOM     17  C   UNL     1       2.032   3.472  19.300  0.00  0.00    +0.000 A 
BRANCH  17  18
ATOM     18  C   UNL     1       1.820   3.914  17.870  0.00  0.00    +0.000 C 
ATOM     19  C   UNL     1       1.964   5.411  17.660  0.00  0.00    +0.000 C 
ENDBRANCH  17  18
ENDBRANCH   7  12
BRANCH   1  21
ATOM     20  C   UNL     1       7.306   7.754  17.505  0.00  0.00    +0.000 C 
ATOM     21  C   UNL     1       8.165   6.973  18.488  0.00  0.00    +0.000 C 
ENDBRANCH   1  21
TORSDOF 3
ENDMDL
MODEL 2
REMARK VINA RESULT:      -7.2      1.804      2.350
REMARK  Name = 
REMARK  5 active torsions:
REMARK  status: ('A' for Active; 'I' for Inactive)
REMARK    1  A    between atoms: C_1  and  C_2
REMARK    2  A    between atoms: C_2  and  N_3
REMARK    3  A    between atoms: N_9  and  C_10
REMARK    4  A    between atoms: C_15  and  C_16
REMARK    5  A    between atoms: C_16  and  C_17
REMARK                            x       y       z     vdW  Elec       q    Type
REMARK                         _______ _______ _______ _____ _____    ______ ____
ROOT
ATOM      1  N   UNL     1       6.539   5.019  16.008  0.00  0.00    +0.000 N 
ATOM      2  C   UNL     1       7.147   4.468  17.096  0.00  0.00    +0.000 C 
ATOM      3  N   UNL     1       8.392   4.176  17.201  0.00  0.00    +0.000 NA
ATOM      4  N   UNL     1       6.415   4.203  18.218  0.00  0.00    +0.000 N 
ATOM      5  C   UNL     1       5.041   4.087  18.285  0.00  0.00    +0.000 C 
ATOM      6  O   UNL     1       4.329   4.043  17.280  0.00  0.00    +0.000 OA
ATOM      7  N   UNL     1       4.578   4.058  19.588  0.00  0.00    +0.000 N 
ATOM      8  H   UNL     1       5.518   5.008  16.105  0.00  0.00    +0.000 HD
ATOM      9  H   UNL     1       8.857   4.428  16.327  0.00  0.00    +0.000 HD
ATOM     10  H   UNL     1       6.958   3.795  18.963  0.00  0.00    +0.000 HD
ATOM     11  H   UNL     1       5.063   4.708  20.191  0.00  0.00    +0.000 HD
ENDROOT
BRANCH   7  12
ATOM     12  C   UNL     1       3.203   3.850  19.852  0.00  0.00    +0.000 A 
ATOM     13  C   UNL     1       2.732   2.533  19.964  0.00  0.00    +0.000 A 
ATOM     14  C   UNL     1       1.389   2.276  20.231  0.00  0.00    +0.000 A 
ATOM     15  C   UNL     1       0.504   3.336  20.398  0.00  0.00    +0.000 A 
ATOM     16  C   UNL     1       0.964   4.650  20.293  0.00  0.00    +0.000 A 
ATOM     17  C   UNL     1       2.314   4.929  20.008  0.00  0.00    +0.000 A 
BRANCH  17  18
ATOM     18  C   UNL     1       2.703   6.366  19.741  0.00  0.00    +0.000 C 
ATOM     19  C   UNL     1       2.473   6.809  18.307  0.00  0.00    +0.000 C 
ENDBRANCH  17  18
ENDBRANCH   7  12
BRANCH   1  21
ATOM     20  C   UNL     1       5.930   3.912  13.925  0.00  0.00    +0.000 C 
ATOM     21  C   UNL     1       6.954   4.781  14.640  0.00  0.00    +0.000 C 
ENDBRANCH   1  21
TORSDOF 3
ENDMDL
MODEL 3
REMARK VINA RESULT:      -6.9      1.583      5.944
REMARK  Name = 
REMARK  5 active torsions:
REMARK  status: ('A' for Active; 'I' for Inactive)
REMARK    1  A    between atoms: C_1  and  C_2
REMARK    2  A    between atoms: C_2  and  N_3
REMARK    3  A    between atoms: N_9  and  C_10
REMARK    4  A    between atoms: C_15  and  C_16
REMARK    5  A    between atoms: C_16  and  C_17
REMARK                            x       y       z     vdW  Elec       q    Type
REMARK                         _______ _______ _______ _____ _____    ______ ____
ROOT
ATOM      1  N   UNL     1       2.004   3.188  18.989  0.00  0.00    +0.000 N 
ATOM      2  C   UNL     1       2.984   2.274  18.747  0.00  0.00    +0.000 C 
ATOM      3  N   UNL     1       2.866   0.998  18.827  0.00  0.00    +0.000 NA
ATOM      4  N   UNL     1       4.222   2.696  18.357  0.00  0.00    +0.000 N 
ATOM      5  C   UNL     1       4.735   3.968  18.514  0.00  0.00    +0.000 C 
ATOM      6  O   UNL     1       4.176   4.830  19.194  0.00  0.00    +0.000 OA
ATOM      7  N   UNL     1       5.909   4.154  17.806  0.00  0.00    +0.000 N 
ATOM      8  H   UNL     1       2.380   4.141  19.018  0.00  0.00    +0.000 HD
ATOM      9  H   UNL     1       1.907   0.779  19.103  0.00  0.00    +0.000 HD
ATOM     10  H   UNL     1       4.874   1.942  18.206  0.00  0.00    +0.000 HD
ATOM     11  H   UNL     1       5.888   3.725  16.892  0.00  0.00    +0.000 HD
ENDROOT
BRANCH   7  12
ATOM     12  C   UNL     1       6.627   5.368  17.922  0.00  0.00    +0.000 A 
ATOM     13  C   UNL     1       7.556   5.502  18.966  0.00  0.00    +0.000 A 
ATOM     14  C   UNL     1       8.293   6.675  19.118  0.00  0.00    +0.000 A 
ATOM     15  C   UNL     1       8.116   7.722  18.221  0.00  0.00    +0.000 A 
ATOM     16  C   UNL     1       7.198   7.596  17.176  0.00  0.00    +0.000 A 
ATOM     17  C   UNL     1       6.432   6.426  17.016  0.00  0.00    +0.000 A 
BRANCH  17  18
ATOM     18  C   UNL     1       5.340   6.428  15.969  0.00  0.00    +0.000 C 
ATOM     19  C   UNL     1       5.556   5.422  14.853  0.00  0.00    +0.000 C 
ENDBRANCH  17  18
ENDBRANCH   7  12
BRANCH   1  21
ATOM     20  C   UNL     1       1.506   2.985  21.366  0.00  0.00    +0.000 C 
ATOM     21  C   UNL     1       0.938   2.999  19.954  0.00  0.00    +0.000 C 
ENDBRANCH   1  21
TORSDOF 3
ENDMDL
MODEL 4
REMARK VINA RESULT:      -6.8      2.779      3.407
REMARK  Name = 
REMARK  5 active torsions:
REMARK  status: ('A' for Active; 'I' for Inactive)
REMARK    1  A    between atoms: C_1  and  C_2
REMARK    2  A    between atoms: C_2  and  N_3
REMARK    3  A    between atoms: N_9  and  C_10
REMARK    4  A    between atoms: C_15  and  C_16
REMARK    5  A    between atoms: C_16  and  C_17
REMARK                            x       y       z     vdW  Elec       q    Type
REMARK                         _______ _______ _______ _____ _____    ______ ____
ROOT
ATOM      1  N   UNL     1       5.696   4.349  14.039  0.00  0.00    +0.000 N 
ATOM      2  C   UNL     1       6.574   4.896  14.924  0.00  0.00    +0.000 C 
ATOM      3  N   UNL     1       7.766   5.293  14.661  0.00  0.00    +0.000 NA
ATOM      4  N   UNL     1       6.198   5.085  16.223  0.00  0.00    +0.000 N 
ATOM      5  C   UNL     1       5.145   4.463  16.864  0.00  0.00    +0.000 C 
ATOM      6  O   UNL     1       4.526   3.522  16.364  0.00  0.00    +0.000 OA
ATOM      7  N   UNL     1       4.863   5.035  18.092  0.00  0.00    +0.000 N 
ATOM      8  H   UNL     1       4.873   3.966  14.517  0.00  0.00    +0.000 HD
ATOM      9  H   UNL     1       7.949   5.131  13.669  0.00  0.00    +0.000 HD
ATOM     10  H   UNL     1       6.921   5.493  16.795  0.00  0.00    +0.000 HD
ATOM     11  H   UNL     1       4.925   6.043  18.078  0.00  0.00    +0.000 HD
ENDROOT
BRANCH   7  12
ATOM     12  C   UNL     1       3.874   4.469  18.932  0.00  0.00    +0.000 A 
ATOM     13  C   UNL     1       4.196   3.317  19.667  0.00  0.00    +0.000 A 
ATOM     14  C   UNL     1       3.260   2.728  20.514  0.00  0.00    +0.000 A 
ATOM     15  C   UNL     1       1.995   3.290  20.642  0.00  0.00    +0.000 A 
ATOM     16  C   UNL     1       1.667   4.439  19.919  0.00  0.00    +0.000 A 
ATOM     17  C   UNL     1       2.594   5.040  19.045  0.00  0.00    +0.000 A 
BRANCH  17  18
ATOM     18  C   UNL     1       2.113   6.175  18.170  0.00  0.00    +0.000 C 
ATOM     19  C   UNL     1       2.398   7.553  18.739  0.00  0.00    +0.000 C 
ENDBRANCH  17  18
ENDBRANCH   7  12
BRANCH   1  21
ATOM     20  C   UNL     1       4.910   3.362  11.955  0.00  0.00    +0.000 C 
ATOM     21  C   UNL     1       6.087   3.537  12.904  0.00  0.00    +0.000 C 
ENDBRANCH   1  21
TORSDOF 3
ENDMDL
MODEL 5
REMARK VINA RESULT:      -6.6      1.588      5.890
REMARK  Name = 
REMARK  5 active torsions:
REMARK  status: ('A' for Active; 'I' for Inactive)
REMARK    1  A    between atoms: C_1  and  C_2
REMARK    2  A    between atoms: C_2  and  N_3
REMARK    3  A    between atoms: N_9  and  C_10
REMARK    4  A    between atoms: C_15  and  C_16
REMARK    5  A    between atoms: C_16  and  C_17
REMARK                            x       y       z     vdW  Elec       q    Type
REMARK                         _______ _______ _______ _____ _____    ______ ____
ROOT
ATOM      1  N   UNL     1       1.736   3.495  19.572  0.00  0.00    +0.000 N 
ATOM      2  C   UNL     1       2.468   2.609  18.843  0.00  0.00    +0.000 C 
ATOM      3  N   UNL     1       2.173   1.378  18.630  0.00  0.00    +0.000 NA
ATOM      4  N   UNL     1       3.622   3.018  18.240  0.00  0.00    +0.000 N 
ATOM      5  C   UNL     1       4.352   4.145  18.560  0.00  0.00    +0.000 C 
ATOM      6  O   UNL     1       4.122   4.822  19.564  0.00  0.00    +0.000 OA
ATOM      7  N   UNL     1       5.329   4.425  17.621  0.00  0.00    +0.000 N 
ATOM      8  H   UNL     1       2.253   4.366  19.732  0.00  0.00    +0.000 HD
ATOM      9  H   UNL     1       1.290   1.171  19.100  0.00  0.00    +0.000 HD
ATOM     10  H   UNL     1       4.089   2.286  17.727  0.00  0.00    +0.000 HD
ATOM     11  H   UNL     1       5.015   4.277  16.673  0.00  0.00    +0.000 HD
ENDROOT
BRANCH   7  12
ATOM     12  C   UNL     1       6.236   5.491  17.832  0.00  0.00    +0.000 A 
ATOM     13  C   UNL     1       7.342   5.276  18.669  0.00  0.00    +0.000 A 
ATOM     14  C   UNL     1       8.268   6.291  18.901  0.00  0.00    +0.000 A 
ATOM     15  C   UNL     1       8.102   7.529  18.291  0.00  0.00    +0.000 A 
ATOM     16  C   UNL     1       7.008   7.751  17.452  0.00  0.00    +0.000 A 
ATOM     17  C   UNL     1       6.052   6.743  17.218  0.00  0.00    +0.000 A 
BRANCH  17  18
ATOM     18  C   UNL     1       4.809   7.109  16.440  0.00  0.00    +0.000 C 
ATOM     19  C   UNL     1       3.638   7.526  17.311  0.00  0.00    +0.000 C 
ENDBRANCH  17  18
ENDBRANCH   7  12
BRANCH   1  21
ATOM     20  C   UNL     1       1.815   2.842  21.918  0.00  0.00    +0.000 C 
ATOM     21  C   UNL     1       0.926   3.131  20.718  0.00  0.00    +0.000 C 
ENDBRANCH   1  21
TORSDOF 3
ENDMDL
MODEL 6
REMARK VINA RESULT:      -6.6      4.331      6.037
REMARK  Name = 
REMARK  5 active torsions:
REMARK  status: ('A' for Active; 'I' for Inactive)
REMARK    1  A    between atoms: C_1  and  C_2
REMARK    2  A    between atoms: C_2  and  N_3
REMARK    3  A    between atoms: N_9  and  C_10
REMARK    4  A    between atoms: C_15  and  C_16
REMARK    5  A    between atoms: C_16  and  C_17
REMARK                            x       y       z     vdW  Elec       q    Type
REMARK                         _______ _______ _______ _____ _____    ______ ____
ROOT
ATOM      1  N   UNL     1       0.408   9.327  20.288  0.00  0.00    +0.000 N 
ATOM      2  C   UNL     1       1.176   8.855  21.308  0.00  0.00    +0.000 C 
ATOM      3  N   UNL     1       1.254   9.351  22.490  0.00  0.00    +0.000 NA
ATOM      4  N   UNL     1       1.938   7.738  21.122  0.00  0.00    +0.000 N 
ATOM      5  C   UNL     1       2.319   7.206  19.906  0.00  0.00    +0.000 C 
ATOM      6  O   UNL     1       2.147   7.799  18.839  0.00  0.00    +0.000 OA
ATOM      7  N   UNL     1       2.876   5.946  20.032  0.00  0.00    +0.000 N 
ATOM      8  H   UNL     1       0.637   8.864  19.402  0.00  0.00    +0.000 HD
ATOM      9  H   UNL     1       0.638  10.164  22.540  0.00  0.00    +0.000 HD
ATOM     10  H   UNL     1       2.470   7.474  21.936  0.00  0.00    +0.000 HD
ATOM     11  H   UNL     1       2.395   5.371  20.709  0.00  0.00    +0.000 HD
ENDROOT
BRANCH   7  12
ATOM     12  C   UNL     1       3.409   5.285  18.900  0.00  0.00    +0.000 A 
ATOM     13  C   UNL     1       4.671   5.676  18.426  0.00  0.00    +0.000 A 
ATOM     14  C   UNL     1       5.242   5.050  17.320  0.00  0.00    +0.000 A 
ATOM     15  C   UNL     1       4.560   4.020  16.682  0.00  0.00    +0.000 A 
ATOM     16  C   UNL     1       3.306   3.621  17.149  0.00  0.00    +0.000 A 
ATOM     17  C   UNL     1       2.706   4.252  18.255  0.00  0.00    +0.000 A 
BRANCH  17  18
ATOM     18  C   UNL     1       1.279   3.883  18.596  0.00  0.00    +0.000 C 
ATOM     19  C   UNL     1       1.160   2.739  19.587  0.00  0.00    +0.000 C 
ENDBRANCH  17  18
ENDBRANCH   7  12
BRANCH   1  21
ATOM     20  C   UNL     1      -1.158  10.863  19.228  0.00  0.00    +0.000 C 
ATOM     21  C   UNL     1       0.084  10.727  20.096  0.00  0.00    +0.000 C 
ENDBRANCH   1  21
TORSDOF 3
ENDMDL
MODEL 7
REMARK VINA RESULT:      -6.5      3.174      4.056
REMARK  Name = 
REMARK  5 active torsions:
REMARK  status: ('A' for Active; 'I' for Inactive)
REMARK    1  A    between atoms: C_1  and  C_2
REMARK    2  A    between atoms: C_2  and  N_3
REMARK    3  A    between atoms: N_9  and  C_10
REMARK    4  A    between atoms: C_15  and  C_16
REMARK    5  A    between atoms: C_16  and  C_17
REMARK                            x       y       z     vdW  Elec       q    Type
REMARK                         _______ _______ _______ _____ _____    ______ ____
ROOT
ATOM      1  N   UNL     1       5.738   4.464  13.845  0.00  0.00    +0.000 N 
ATOM      2  C   UNL     1       6.676   5.128  14.575  0.00  0.00    +0.000 C 
ATOM      3  N   UNL     1       7.894   5.340  14.229  0.00  0.00    +0.000 NA
ATOM      4  N   UNL     1       6.340   5.660  15.786  0.00  0.00    +0.000 N 
ATOM      5  C   UNL     1       5.247   5.310  16.554  0.00  0.00    +0.000 C 
ATOM      6  O   UNL     1       4.539   4.335  16.295  0.00  0.00    +0.000 OA
ATOM      7  N   UNL     1       5.037   6.187  17.604  0.00  0.00    +0.000 N 
ATOM      8  H   UNL     1       4.893   4.284  14.397  0.00  0.00    +0.000 HD
ATOM      9  H   UNL     1       8.045   4.927  13.308  0.00  0.00    +0.000 HD
ATOM     10  H   UNL     1       7.106   6.128  16.246  0.00  0.00    +0.000 HD
ATOM     11  H   UNL     1       5.188   7.151  17.345  0.00  0.00    +0.000 HD
ENDROOT
BRANCH   7  12
ATOM     12  C   UNL     1       4.017   5.934  18.551  0.00  0.00    +0.000 A 
ATOM     13  C   UNL     1       4.103   4.774  19.338  0.00  0.00    +0.000 A 
ATOM     14  C   UNL     1       3.127   4.485  20.290  0.00  0.00    +0.000 A 
ATOM     15  C   UNL     1       2.060   5.358  20.471  0.00  0.00    +0.000 A 
ATOM     16  C   UNL     1       1.968   6.516  19.696  0.00  0.00    +0.000 A 
ATOM     17  C   UNL     1       2.935   6.817  18.718  0.00  0.00    +0.000 A 
BRANCH  17  18
ATOM     18  C   UNL     1       2.680   7.995  17.804  0.00  0.00    +0.000 C 
ATOM     19  C   UNL     1       1.686   8.999  18.359  0.00  0.00    +0.000 C 
ENDBRANCH  17  18
ENDBRANCH   7  12
BRANCH   1  21
ATOM     20  C   UNL     1       4.971   3.276  11.861  0.00  0.00    +0.000 C 
ATOM     21  C   UNL     1       6.036   3.369  12.943  0.00  0.00    +0.000 C 
ENDBRANCH   1  21
TORSDOF 3
ENDMDL
MODEL 8
REMARK VINA RESULT:      -6.4      2.619      6.352
REMARK  Name = 
REMARK  5 active torsions:
REMARK  status: ('A' for Active; 'I' for Inactive)
REMARK    1  A    between atoms: C_1  and  C_2
REMARK    2  A    between atoms: C_2  and  N_3
REMARK    3  A    between atoms: N_9  and  C_10
REMARK    4  A    between atoms: C_15  and  C_16
REMARK    5  A    between atoms: C_16  and  C_17
REMARK                            x       y       z     vdW  Elec       q    Type
REMARK                         _______ _______ _______ _____ _____    ______ ____
ROOT
ATOM      1  N   UNL     1       2.876   4.446  21.041  0.00  0.00    +0.000 N 
ATOM      2  C   UNL     1       2.451   5.610  20.476  0.00  0.00    +0.000 C 
ATOM      3  N   UNL     1       1.489   6.349  20.897  0.00  0.00    +0.000 NA
ATOM      4  N   UNL     1       3.086   6.098  19.371  0.00  0.00    +0.000 N 
ATOM      5  C   UNL     1       3.897   5.380  18.515  0.00  0.00    +0.000 C 
ATOM      6  O   UNL     1       3.997   4.153  18.569  0.00  0.00    +0.000 OA
ATOM      7  N   UNL     1       4.588   6.194  17.635  0.00  0.00    +0.000 N 
ATOM      8  H   UNL     1       3.547   3.961  20.436  0.00  0.00    +0.000 HD
ATOM      9  H   UNL     1       1.092   5.917  21.733  0.00  0.00    +0.000 HD
ATOM     10  H   UNL     1       2.693   6.962  19.031  0.00  0.00    +0.000 HD
ATOM     11  H   UNL     1       4.930   7.039  18.070  0.00  0.00    +0.000 HD
ENDROOT
BRANCH   7  12
ATOM     12  C   UNL     1       5.397   5.626  16.623  0.00  0.00    +0.000 A 
ATOM     13  C   UNL     1       4.778   4.886  15.603  0.00  0.00    +0.000 A 
ATOM     14  C   UNL     1       5.530   4.313  14.580  0.00  0.00    +0.000 A 
ATOM     15  C   UNL     1       6.910   4.483  14.561  0.00  0.00    +0.000 A 
ATOM     16  C   UNL     1       7.535   5.222  15.568  0.00  0.00    +0.000 A 
ATOM     17  C   UNL     1       6.793   5.794  16.619  0.00  0.00    +0.000 A 
BRANCH  17  18
ATOM     18  C   UNL     1       7.553   6.431  17.761  0.00  0.00    +0.000 C 
ATOM     19  C   UNL     1       7.731   7.932  17.619  0.00  0.00    +0.000 C 
ENDBRANCH  17  18
ENDBRANCH   7  12
BRANCH   1  21
ATOM     20  C   UNL     1       1.179   2.724  20.741  0.00  0.00    +0.000 C 
ATOM     21  C   UNL     1       2.008   3.518  21.739  0.00  0.00    +0.000 C 
ENDBRANCH   1  21
TORSDOF 3
ENDMDL
MODEL 9
REMARK VINA RESULT:      -6.4      1.492      1.907
REMARK  Name = 
REMARK  5 active torsions:
REMARK  status: ('A' for Active; 'I' for Inactive)
REMARK    1  A    between atoms: C_1  and  C_2
REMARK    2  A    between atoms: C_2  and  N_3
REMARK    3  A    between atoms: N_9  and  C_10
REMARK    4  A    between atoms: C_15  and  C_16
REMARK    5  A    between atoms: C_16  and  C_17
REMARK                            x       y       z     vdW  Elec       q    Type
REMARK                         _______ _______ _______ _____ _____    ______ ____
ROOT
ATOM      1  N   UNL     1       6.750   6.433  18.149  0.00  0.00    +0.000 N 
ATOM      2  C   UNL     1       7.227   5.204  18.488  0.00  0.00    +0.000 C 
ATOM      3  N   UNL     1       8.455   4.830  18.449  0.00  0.00    +0.000 NA
ATOM      4  N   UNL     1       6.367   4.246  18.942  0.00  0.00    +0.000 N 
ATOM      5  C   UNL     1       4.998   4.235  18.771  0.00  0.00    +0.000 C 
ATOM      6  O   UNL     1       4.416   5.023  18.023  0.00  0.00    +0.000 OA
ATOM      7  N   UNL     1       4.376   3.271  19.546  0.00  0.00    +0.000 N 
ATOM      8  H   UNL     1       5.726   6.439  18.109  0.00  0.00    +0.000 HD
ATOM      9  H   UNL     1       9.021   5.615  18.120  0.00  0.00    +0.000 HD
ATOM     10  H   UNL     1       6.820   3.373  19.163  0.00  0.00    +0.000 HD
ATOM     11  H   UNL     1       4.773   3.199  20.472  0.00  0.00    +0.000 HD
ENDROOT
BRANCH   7  12
ATOM     12  C   UNL     1       2.983   3.052  19.431  0.00  0.00    +0.000 A 
ATOM     13  C   UNL     1       2.530   2.057  18.550  0.00  0.00    +0.000 A 
ATOM     14  C   UNL     1       1.168   1.798  18.407  0.00  0.00    +0.000 A 
ATOM     15  C   UNL     1       0.247   2.525  19.152  0.00  0.00    +0.000 A 
ATOM     16  C   UNL     1       0.688   3.513  20.034  0.00  0.00    +0.000 A 
ATOM     17  C   UNL     1       2.058   3.801  20.180  0.00  0.00    +0.000 A 
BRANCH  17  18
ATOM     18  C   UNL     1       2.449   4.995  21.022  0.00  0.00    +0.000 C 
ATOM     19  C   UNL     1       1.963   6.323  20.469  0.00  0.00    +0.000 C 
ENDBRANCH  17  18
ENDBRANCH   7  12
BRANCH   1  21
ATOM     20  C   UNL     1       8.008   8.484  17.761  0.00  0.00    +0.000 C 
ATOM     21  C   UNL     1       7.335   7.276  17.125  0.00  0.00    +0.000 C 
ENDBRANCH   1  21
TORSDOF 3
ENDMDL
