MODEL 1
REMARK VINA RESULT:      -7.6      0.000      0.000
REMARK  Name = 
REMARK  7 active torsions:
REMARK  status: ('A' for Active; 'I' for Inactive)
REMARK    1  A    between atoms: C_4  and  C_5
REMARK    2  A    between atoms: C_4  and  C_7
REMARK    3  A    between atoms: C_5  and  O_6
REMARK    4  A    between atoms: C_7  and  O_8
REMARK    5  A    between atoms: O_8  and  C_9
REMARK    6  A    between atoms: C_9  and  C_11
REMARK    7  A    between atoms: C_19  and  C_20
REMARK                            x       y       z     vdW  Elec       q    Type
REMARK                         _______ _______ _______ _____ _____    ______ ____
ROOT
ATOM      1  O   UNL     1       1.066   8.527  20.776  0.00  0.00    +0.000 OA
ATOM      2  C   UNL     1       1.703   7.801  20.041  0.00  0.00    +0.000 C 
ATOM      3  O   UNL     1       2.189   6.582  20.412  0.00  0.00    +0.000 OA
ATOM      4  C   UNL     1       2.769   5.879  19.293  0.00  0.00    +0.000 C 
ATOM      5  C   UNL     1       3.010   6.946  18.224  0.00  0.00    +0.000 C 
ATOM      6  C   UNL     1       2.101   8.048  18.637  0.00  0.00    +0.000 C 
ATOM      7  C   UNL     1       1.726   9.069  17.854  0.00  0.00    +0.000 C 
ENDROOT
BRANCH   7   8
ATOM      8  C   UNL     1       0.859  10.181  18.255  0.00  0.00    +0.000 A 
ATOM      9  C   UNL     1      -0.528  10.068  18.113  0.00  0.00    +0.000 A 
ATOM     10  C   UNL     1      -1.364  11.115  18.509  0.00  0.00    +0.000 A 
ATOM     11  C   UNL     1      -0.816  12.276  19.050  0.00  0.00    +0.000 A 
ATOM     12  C   UNL     1       0.567  12.396  19.189  0.00  0.00    +0.000 A 
ATOM     13  C   UNL     1       1.404  11.352  18.791  0.00  0.00    +0.000 A 
ENDBRANCH   7   8
BRANCH   4  14
ATOM     14  C   UNL     1       1.777   4.795  18.831  0.00  0.00    +0.000 C 
BRANCH  14  15
ATOM     15  O   UNL     1       2.285   3.481  19.061  0.00  0.00    +0.000 OA
ATOM     16  H   UNL     1       3.248   3.518  18.904  0.00  0.00    +0.000 HD
ENDBRANCH  14  15
ENDBRANCH   4  14
BRANCH   4  17
ATOM     17  C   UNL     1       4.100   5.257  19.755  0.00  0.00    +0.000 C 
BRANCH  17  18
ATOM     18  O   UNL     1       4.959   4.912  18.639  0.00  0.00    +0.000 OA
BRANCH  18  19
ATOM     19  C   UNL     1       6.268   5.226  18.787  0.00  0.00    +0.000 C 
ATOM     20  O   UNL     1       6.829   5.314  19.877  0.00  0.00    +0.000 OA
BRANCH  19  21
ATOM     21  C   UNL     1       6.998   5.538  17.489  0.00  0.00    +0.000 C 
ATOM     22  C   UNL     1       7.332   4.357  16.569  0.00  0.00    +0.000 C 
ATOM     23  C   UNL     1       6.262   4.021  15.532  0.00  0.00    +0.000 C 
ATOM     24  C   UNL     1       5.765   5.260  14.800  0.00  0.00    +0.000 C 
ATOM     25  C   UNL     1       5.237   6.289  15.787  0.00  0.00    +0.000 C 
ATOM     26  C   UNL     1       6.319   6.712  16.774  0.00  0.00    +0.000 C 
ENDBRANCH  19  21
ENDBRANCH  18  19
ENDBRANCH  17  18
ENDBRANCH   4  17
TORSDOF 7
ENDMDL
MODEL 2
REMARK VINA RESULT:      -7.5      0.865      1.329
REMARK  Name = 
REMARK  7 active torsions:
REMARK  status: ('A' for Active; 'I' for Inactive)
REMARK    1  A    between atoms: C_4  and  C_5
REMARK    2  A    between atoms: C_4  and  C_7
REMARK    3  A    between atoms: C_5  and  O_6
REMARK    4  A    between atoms: C_7  and  O_8
REMARK    5  A    between atoms: O_8  and  C_9
REMARK    6  A    between atoms: C_9  and  C_11
REMARK    7  A    between atoms: C_19  and  C_20
REMARK                            x       y       z     vdW  Elec       q    Type
REMARK                         _______ _______ _______ _____ _____    ______ ____
ROOT
ATOM      1  O   UNL     1       1.657   8.079  20.698  0.00  0.00    +0.000 OA
ATOM      2  C   UNL     1       2.039   7.187  19.969  0.00  0.00    +0.000 C 
ATOM      3  O   UNL     1       2.340   5.929  20.402  0.00  0.00    +0.000 OA
ATOM      4  C   UNL     1       2.615   5.040  19.298  0.00  0.00    +0.000 C 
ATOM      5  C   UNL     1       2.893   5.951  18.102  0.00  0.00    +0.000 C 
ATOM      6  C   UNL     1       2.271   7.239  18.508  0.00  0.00    +0.000 C 
ATOM      7  C   UNL     1       1.981   8.249  17.676  0.00  0.00    +0.000 C 
ENDROOT
BRANCH   7   8
ATOM      8  C   UNL     1       1.400   9.538  18.064  0.00  0.00    +0.000 A 
ATOM      9  C   UNL     1       2.237  10.628  18.326  0.00  0.00    +0.000 A 
ATOM     10  C   UNL     1       1.692  11.865  18.677  0.00  0.00    +0.000 A 
ATOM     11  C   UNL     1       0.310  12.017  18.765  0.00  0.00    +0.000 A 
ATOM     12  C   UNL     1      -0.528  10.932  18.509  0.00  0.00    +0.000 A 
ATOM     13  C   UNL     1       0.015   9.695  18.160  0.00  0.00    +0.000 A 
ENDBRANCH   7   8
BRANCH   4  14
ATOM     14  C   UNL     1       1.385   4.139  19.081  0.00  0.00    +0.000 C 
BRANCH  14  15
ATOM     15  O   UNL     1       0.639   3.964  20.284  0.00  0.00    +0.000 OA
ATOM     16  H   UNL     1       1.147   3.349  20.847  0.00  0.00    +0.000 HD
ENDBRANCH  14  15
ENDBRANCH   4  14
BRANCH   4  17
ATOM     17  C   UNL     1       3.861   4.207  19.652  0.00  0.00    +0.000 C 
BRANCH  17  18
ATOM     18  O   UNL     1       4.789   4.111  18.542  0.00  0.00    +0.000 OA
BRANCH  18  19
ATOM     19  C   UNL     1       5.972   4.749  18.709  0.00  0.00    +0.000 C 
ATOM     20  O   UNL     1       6.375   5.166  19.793  0.00  0.00    +0.000 OA
BRANCH  19  21
ATOM     21  C   UNL     1       6.755   4.982  17.426  0.00  0.00    +0.000 C 
ATOM     22  C   UNL     1       6.545   3.981  16.282  0.00  0.00    +0.000 C 
ATOM     23  C   UNL     1       5.425   4.338  15.306  0.00  0.00    +0.000 C 
ATOM     24  C   UNL     1       5.500   5.791  14.856  0.00  0.00    +0.000 C 
ATOM     25  C   UNL     1       5.470   6.724  16.056  0.00  0.00    +0.000 C 
ATOM     26  C   UNL     1       6.638   6.449  16.998  0.00  0.00    +0.000 C 
ENDBRANCH  19  21
ENDBRANCH  18  19
ENDBRANCH  17  18
ENDBRANCH   4  17
TORSDOF 7
ENDMDL
MODEL 3
REMARK VINA RESULT:      -7.4      1.007      1.850
REMARK  Name = 
REMARK  7 active torsions:
REMARK  status: ('A' for Active; 'I' for Inactive)
REMARK    1  A    between atoms: C_4  and  C_5
REMARK    2  A    between atoms: C_4  and  C_7
REMARK    3  A    between atoms: C_5  and  O_6
REMARK    4  A    between atoms: C_7  and  O_8
REMARK    5  A    between atoms: O_8  and  C_9
REMARK    6  A    between atoms: C_9  and  C_11
REMARK    7  A    between atoms: C_19  and  C_20
REMARK                            x       y       z     vdW  Elec       q    Type
REMARK                         _______ _______ _______ _____ _____    ______ ____
ROOT
ATOM      1  O   UNL     1       1.325   8.272  20.646  0.00  0.00    +0.000 OA
ATOM      2  C   UNL     1       1.820   7.420  19.937  0.00  0.00    +0.000 C 
ATOM      3  O   UNL     1       2.087   6.148  20.352  0.00  0.00    +0.000 OA
ATOM      4  C   UNL     1       2.526   5.315  19.259  0.00  0.00    +0.000 C 
ATOM      5  C   UNL     1       2.942   6.283  18.151  0.00  0.00    +0.000 C 
ATOM      6  C   UNL     1       2.243   7.542  18.524  0.00  0.00    +0.000 C 
ATOM      7  C   UNL     1       2.046   8.584  17.705  0.00  0.00    +0.000 C 
ENDROOT
BRANCH   7   8
ATOM      8  C   UNL     1       1.390   9.845  18.065  0.00  0.00    +0.000 A 
ATOM      9  C   UNL     1      -0.006   9.912  18.119  0.00  0.00    +0.000 A 
ATOM     10  C   UNL     1      -0.639  11.104  18.480  0.00  0.00    +0.000 A 
ATOM     11  C   UNL     1       0.121  12.230  18.789  0.00  0.00    +0.000 A 
ATOM     12  C   UNL     1       1.513  12.168  18.733  0.00  0.00    +0.000 A 
ATOM     13  C   UNL     1       2.148  10.979  18.370  0.00  0.00    +0.000 A 
ENDBRANCH   7   8
BRANCH   4  14
ATOM     14  C   UNL     1       1.356   4.405  18.840  0.00  0.00    +0.000 C 
BRANCH  14  15
ATOM     15  O   UNL     1       1.815   3.208  18.213  0.00  0.00    +0.000 OA
ATOM     16  H   UNL     1       2.554   2.869  18.754  0.00  0.00    +0.000 HD
ENDBRANCH  14  15
ENDBRANCH   4  14
BRANCH   4  17
ATOM     17  C   UNL     1       3.731   4.486  19.741  0.00  0.00    +0.000 C 
BRANCH  17  18
ATOM     18  O   UNL     1       4.964   4.882  19.088  0.00  0.00    +0.000 OA
BRANCH  18  19
ATOM     19  C   UNL     1       5.269   4.208  17.952  0.00  0.00    +0.000 C 
ATOM     20  O   UNL     1       4.683   3.192  17.584  0.00  0.00    +0.000 OA
BRANCH  19  21
ATOM     21  C   UNL     1       6.457   4.765  17.184  0.00  0.00    +0.000 C 
ATOM     22  C   UNL     1       6.230   6.044  16.367  0.00  0.00    +0.000 C 
ATOM     23  C   UNL     1       6.492   7.348  17.118  0.00  0.00    +0.000 C 
ATOM     24  C   UNL     1       7.814   7.317  17.873  0.00  0.00    +0.000 C 
ATOM     25  C   UNL     1       7.856   6.139  18.833  0.00  0.00    +0.000 C 
ATOM     26  C   UNL     1       7.692   4.817  18.090  0.00  0.00    +0.000 C 
ENDBRANCH  19  21
ENDBRANCH  18  19
ENDBRANCH  17  18
ENDBRANCH   4  17
TORSDOF 7
ENDMDL
MODEL 4
REMARK VINA RESULT:      -7.4      0.472      1.075
REMARK  Name = 
REMARK  7 active torsions:
REMARK  status: ('A' for Active; 'I' for Inactive)
REMARK    1  A    between atoms: C_4  and  C_5
REMARK    2  A    between atoms: C_4  and  C_7
REMARK    3  A    between atoms: C_5  and  O_6
REMARK    4  A    between atoms: C_7  and  O_8
REMARK    5  A    between atoms: O_8  and  C_9
REMARK    6  A    between atoms: C_9  and  C_11
REMARK    7  A    between atoms: C_19  and  C_20
REMARK                            x       y       z     vdW  Elec       q    Type
REMARK                         _______ _______ _______ _____ _____    ______ ____
ROOT
ATOM      1  O   UNL     1       1.048   8.471  20.885  0.00  0.00    +0.000 OA
ATOM      2  C   UNL     1       1.666   7.816  20.071  0.00  0.00    +0.000 C 
ATOM      3  O   UNL     1       2.194   6.585  20.330  0.00  0.00    +0.000 OA
ATOM      4  C   UNL     1       2.735   5.980  19.136  0.00  0.00    +0.000 C 
ATOM      5  C   UNL     1       2.903   7.126  18.138  0.00  0.00    +0.000 C 
ATOM      6  C   UNL     1       1.991   8.173  18.672  0.00  0.00    +0.000 C 
ATOM      7  C   UNL     1       1.557   9.237  17.984  0.00  0.00    +0.000 C 
ENDROOT
BRANCH   7   8
ATOM      8  C   UNL     1       0.686  10.296  18.504  0.00  0.00    +0.000 A 
ATOM      9  C   UNL     1       1.249  11.423  19.114  0.00  0.00    +0.000 A 
ATOM     10  C   UNL     1       0.429  12.445  19.596  0.00  0.00    +0.000 A 
ATOM     11  C   UNL     1      -0.955  12.347  19.466  0.00  0.00    +0.000 A 
ATOM     12  C   UNL     1      -1.521  11.225  18.862  0.00  0.00    +0.000 A 
ATOM     13  C   UNL     1      -0.703  10.200  18.383  0.00  0.00    +0.000 A 
ENDBRANCH   7   8
BRANCH   4  14
ATOM     14  C   UNL     1       1.746   4.907  18.644  0.00  0.00    +0.000 C 
BRANCH  14  15
ATOM     15  O   UNL     1       1.259   4.103  19.718  0.00  0.00    +0.000 OA
ATOM     16  H   UNL     1       1.597   3.199  19.572  0.00  0.00    +0.000 HD
ENDBRANCH  14  15
ENDBRANCH   4  14
BRANCH   4  17
ATOM     17  C   UNL     1       4.100   5.359  19.490  0.00  0.00    +0.000 C 
BRANCH  17  18
ATOM     18  O   UNL     1       5.207   6.190  19.059  0.00  0.00    +0.000 OA
BRANCH  18  19
ATOM     19  C   UNL     1       6.403   5.563  18.947  0.00  0.00    +0.000 C 
ATOM     20  O   UNL     1       6.940   4.952  19.868  0.00  0.00    +0.000 OA
BRANCH  19  21
ATOM     21  C   UNL     1       7.084   5.731  17.598  0.00  0.00    +0.000 C 
ATOM     22  C   UNL     1       7.355   4.459  16.784  0.00  0.00    +0.000 C 
ATOM     23  C   UNL     1       6.237   4.051  15.827  0.00  0.00    +0.000 C 
ATOM     24  C   UNL     1       5.736   5.227  14.998  0.00  0.00    +0.000 C 
ATOM     25  C   UNL     1       5.271   6.359  15.901  0.00  0.00    +0.000 C 
ATOM     26  C   UNL     1       6.402   6.847  16.799  0.00  0.00    +0.000 C 
ENDBRANCH  19  21
ENDBRANCH  18  19
ENDBRANCH  17  18
ENDBRANCH   4  17
TORSDOF 7
ENDMDL
MODEL 5
REMARK VINA RESULT:      -7.3      3.867      6.569
REMARK  Name = 
REMARK  7 active torsions:
REMARK  status: ('A' for Active; 'I' for Inactive)
REMARK    1  A    between atoms: C_4  and  C_5
REMARK    2  A    between atoms: C_4  and  C_7
REMARK    3  A    between atoms: C_5  and  O_6
REMARK    4  A    between atoms: C_7  and  O_8
REMARK    5  A    between atoms: O_8  and  C_9
REMARK    6  A    between atoms: C_9  and  C_11
REMARK    7  A    between atoms: C_19  and  C_20
REMARK                            x       y       z     vdW  Elec       q    Type
REMARK                         _______ _______ _______ _____ _____    ______ ____
ROOT
ATOM      1  O   UNL     1       5.258   4.070  19.393  0.00  0.00    +0.000 OA
ATOM      2  C   UNL     1       5.605   5.058  18.779  0.00  0.00    +0.000 C 
ATOM      3  O   UNL     1       6.906   5.368  18.511  0.00  0.00    +0.000 OA
ATOM      4  C   UNL     1       7.009   6.510  17.634  0.00  0.00    +0.000 C 
ATOM      5  C   UNL     1       5.644   7.196  17.697  0.00  0.00    +0.000 C 
ATOM      6  C   UNL     1       4.751   6.120  18.204  0.00  0.00    +0.000 C 
ATOM      7  C   UNL     1       3.412   6.138  18.137  0.00  0.00    +0.000 C 
ENDROOT
BRANCH   7   8
ATOM      8  C   UNL     1       2.514   5.104  18.661  0.00  0.00    +0.000 A 
ATOM      9  C   UNL     1       2.038   5.197  19.973  0.00  0.00    +0.000 A 
ATOM     10  C   UNL     1       1.168   4.227  20.476  0.00  0.00    +0.000 A 
ATOM     11  C   UNL     1       0.769   3.164  19.668  0.00  0.00    +0.000 A 
ATOM     12  C   UNL     1       1.244   3.065  18.361  0.00  0.00    +0.000 A 
ATOM     13  C   UNL     1       2.116   4.032  17.857  0.00  0.00    +0.000 A 
ENDBRANCH   7   8
BRANCH   4  14
ATOM     14  C   UNL     1       7.353   6.007  16.219  0.00  0.00    +0.000 C 
BRANCH  14  15
ATOM     15  O   UNL     1       7.592   4.600  16.201  0.00  0.00    +0.000 OA
ATOM     16  H   UNL     1       6.852   4.192  15.711  0.00  0.00    +0.000 HD
ENDBRANCH  14  15
ENDBRANCH   4  14
BRANCH   4  17
ATOM     17  C   UNL     1       8.112   7.435  18.180  0.00  0.00    +0.000 C 
BRANCH  17  18
ATOM     18  O   UNL     1       7.865   8.828  17.861  0.00  0.00    +0.000 OA
BRANCH  18  19
ATOM     19  C   UNL     1       8.675   9.724  18.475  0.00  0.00    +0.000 C 
ATOM     20  O   UNL     1       9.006   9.646  19.656  0.00  0.00    +0.000 OA
BRANCH  19  21
ATOM     21  C   UNL     1       9.099  10.897  17.605  0.00  0.00    +0.000 C 
ATOM     22  C   UNL     1       8.238  12.166  17.667  0.00  0.00    +0.000 C 
ATOM     23  C   UNL     1       8.663  13.186  18.722  0.00  0.00    +0.000 C 
ATOM     24  C   UNL     1      10.162  13.451  18.689  0.00  0.00    +0.000 C 
ATOM     25  C   UNL     1      10.939  12.156  18.866  0.00  0.00    +0.000 C 
ATOM     26  C   UNL     1      10.601  11.156  17.766  0.00  0.00    +0.000 C 
ENDBRANCH  19  21
ENDBRANCH  18  19
ENDBRANCH  17  18
ENDBRANCH   4  17
TORSDOF 7
ENDMDL
MODEL 6
REMARK VINA RESULT:      -7.3      1.026      2.025
REMARK  Name = 
REMARK  7 active torsions:
REMARK  status: ('A' for Active; 'I' for Inactive)
REMARK    1  A    between atoms: C_4  and  C_5
REMARK    2  A    between atoms: C_4  and  C_7
REMARK    3  A    between atoms: C_5  and  O_6
REMARK    4  A    between atoms: C_7  and  O_8
REMARK    5  A    between atoms: O_8  and  C_9
REMARK    6  A    between atoms: C_9  and  C_11
REMARK    7  A    between atoms: C_19  and  C_20
REMARK                            x       y       z     vdW  Elec       q    Type
REMARK                         _______ _______ _______ _____ _____    ______ ____
ROOT
ATOM      1  O   UNL     1       1.123   8.471  20.844  0.00  0.00    +0.000 OA
ATOM      2  C   UNL     1       1.642   7.613  20.161  0.00  0.00    +0.000 C 
ATOM      3  O   UNL     1       1.957   6.366  20.618  0.00  0.00    +0.000 OA
ATOM      4  C   UNL     1       2.416   5.511  19.549  0.00  0.00    +0.000 C 
ATOM      5  C   UNL     1       2.790   6.454  18.405  0.00  0.00    +0.000 C 
ATOM      6  C   UNL     1       2.051   7.700  18.741  0.00  0.00    +0.000 C 
ATOM      7  C   UNL     1       1.811   8.706  17.888  0.00  0.00    +0.000 C 
ENDROOT
BRANCH   7   8
ATOM      8  C   UNL     1       1.114   9.955  18.211  0.00  0.00    +0.000 A 
ATOM      9  C   UNL     1       1.851  11.091  18.563  0.00  0.00    +0.000 A 
ATOM     10  C   UNL     1       1.198  12.291  18.853  0.00  0.00    +0.000 A 
ATOM     11  C   UNL     1      -0.193  12.359  18.791  0.00  0.00    +0.000 A 
ATOM     12  C   UNL     1      -0.931  11.228  18.445  0.00  0.00    +0.000 A 
ATOM     13  C   UNL     1      -0.281  10.027  18.156  0.00  0.00    +0.000 A 
ENDBRANCH   7   8
BRANCH   4  14
ATOM     14  C   UNL     1       1.276   4.548  19.172  0.00  0.00    +0.000 C 
BRANCH  14  15
ATOM     15  O   UNL     1       0.701   3.932  20.325  0.00  0.00    +0.000 OA
ATOM     16  H   UNL     1       0.253   3.120  20.019  0.00  0.00    +0.000 HD
ENDBRANCH  14  15
ENDBRANCH   4  14
BRANCH   4  17
ATOM     17  C   UNL     1       3.653   4.742  20.049  0.00  0.00    +0.000 C 
BRANCH  17  18
ATOM     18  O   UNL     1       4.843   5.062  19.284  0.00  0.00    +0.000 OA
BRANCH  18  19
ATOM     19  C   UNL     1       5.129   4.218  18.264  0.00  0.00    +0.000 C 
ATOM     20  O   UNL     1       4.629   3.102  18.141  0.00  0.00    +0.000 OA
BRANCH  19  21
ATOM     21  C   UNL     1       6.188   4.727  17.297  0.00  0.00    +0.000 C 
ATOM     22  C   UNL     1       5.824   5.939  16.430  0.00  0.00    +0.000 C 
ATOM     23  C   UNL     1       6.163   7.297  17.040  0.00  0.00    +0.000 C 
ATOM     24  C   UNL     1       7.578   7.336  17.601  0.00  0.00    +0.000 C 
ATOM     25  C   UNL     1       7.775   6.233  18.629  0.00  0.00    +0.000 C 
ATOM     26  C   UNL     1       7.536   4.858  18.015  0.00  0.00    +0.000 C 
ENDBRANCH  19  21
ENDBRANCH  18  19
ENDBRANCH  17  18
ENDBRANCH   4  17
TORSDOF 7
ENDMDL
MODEL 7
REMARK VINA RESULT:      -7.1      3.428      7.855
REMARK  Name = 
REMARK  7 active torsions:
REMARK  status: ('A' for Active; 'I' for Inactive)
REMARK    1  A    between atoms: C_4  and  C_5
REMARK    2  A    between atoms: C_4  and  C_7
REMARK    3  A    between atoms: C_5  and  O_6
REMARK    4  A    between atoms: C_7  and  O_8
REMARK    5  A    between atoms: O_8  and  C_9
REMARK    6  A    between atoms: C_9  and  C_11
REMARK    7  A    between atoms: C_19  and  C_20
REMARK                            x       y       z     vdW  Elec       q    Type
REMARK                         _______ _______ _______ _____ _____    ______ ____
ROOT
ATOM      1  O   UNL     1       5.974   2.828  15.507  0.00  0.00    +0.000 OA
ATOM      2  C   UNL     1       5.820   3.985  15.843  0.00  0.00    +0.000 C 
ATOM      3  O   UNL     1       5.843   4.409  17.139  0.00  0.00    +0.000 OA
ATOM      4  C   UNL     1       5.790   5.849  17.227  0.00  0.00    +0.000 C 
ATOM      5  C   UNL     1       5.287   6.321  15.862  0.00  0.00    +0.000 C 
ATOM      6  C   UNL     1       5.574   5.160  14.978  0.00  0.00    +0.000 C 
ATOM      7  C   UNL     1       5.599   5.202  13.639  0.00  0.00    +0.000 C 
ENDROOT
BRANCH   7   8
ATOM      8  C   UNL     1       5.845   4.061  12.751  0.00  0.00    +0.000 A 
ATOM      9  C   UNL     1       7.155   3.742  12.375  0.00  0.00    +0.000 A 
ATOM     10  C   UNL     1       7.401   2.647  11.545  0.00  0.00    +0.000 A 
ATOM     11  C   UNL     1       6.341   1.865  11.090  0.00  0.00    +0.000 A 
ATOM     12  C   UNL     1       5.033   2.182  11.458  0.00  0.00    +0.000 A 
ATOM     13  C   UNL     1       4.785   3.278  12.286  0.00  0.00    +0.000 A 
ENDBRANCH   7   8
BRANCH   4  14
ATOM     14  C   UNL     1       7.203   6.369  17.548  0.00  0.00    +0.000 C 
BRANCH  14  15
ATOM     15  O   UNL     1       7.407   7.690  17.048  0.00  0.00    +0.000 OA
ATOM     16  H   UNL     1       7.566   7.609  16.088  0.00  0.00    +0.000 HD
ENDBRANCH  14  15
ENDBRANCH   4  14
BRANCH   4  17
ATOM     17  C   UNL     1       4.791   6.225  18.337  0.00  0.00    +0.000 C 
BRANCH  17  18
ATOM     18  O   UNL     1       3.418   6.180  17.876  0.00  0.00    +0.000 OA
BRANCH  18  19
ATOM     19  C   UNL     1       2.502   5.788  18.794  0.00  0.00    +0.000 C 
ATOM     20  O   UNL     1       2.383   6.306  19.902  0.00  0.00    +0.000 OA
BRANCH  19  21
ATOM     21  C   UNL     1       1.661   4.590  18.381  0.00  0.00    +0.000 C 
ATOM     22  C   UNL     1       2.254   3.644  17.328  0.00  0.00    +0.000 C 
ATOM     23  C   UNL     1       3.079   2.487  17.888  0.00  0.00    +0.000 C 
ATOM     24  C   UNL     1       2.366   1.778  19.033  0.00  0.00    +0.000 C 
ATOM     25  C   UNL     1       2.020   2.762  20.139  0.00  0.00    +0.000 C 
ATOM     26  C   UNL     1       1.116   3.876  19.622  0.00  0.00    +0.000 C 
ENDBRANCH  19  21
ENDBRANCH  18  19
ENDBRANCH  17  18
ENDBRANCH   4  17
TORSDOF 7
ENDMDL
MODEL 8
REMARK VINA RESULT:      -7.1      3.512      7.669
REMARK  Name = 
REMARK  7 active torsions:
REMARK  status: ('A' for Active; 'I' for Inactive)
REMARK    1  A    between atoms: C_4  and  C_5
REMARK    2  A    between atoms: C_4  and  C_7
REMARK    3  A    between atoms: C_5  and  O_6
REMARK    4  A    between atoms: C_7  and  O_8
REMARK    5  A    between atoms: O_8  and  C_9
REMARK    6  A    between atoms: C_9  and  C_11
REMARK    7  A    between atoms: C_19  and  C_20
REMARK                            x       y       z     vdW  Elec       q    Type
REMARK                         _______ _______ _______ _____ _____    ______ ____
ROOT
ATOM      1  O   UNL     1       5.564   2.750  15.651  0.00  0.00    +0.000 OA
ATOM      2  C   UNL     1       5.644   3.892  16.057  0.00  0.00    +0.000 C 
ATOM      3  O   UNL     1       5.685   4.227  17.379  0.00  0.00    +0.000 OA
ATOM      4  C   UNL     1       5.938   5.636  17.561  0.00  0.00    +0.000 C 
ATOM      5  C   UNL     1       5.626   6.283  16.210  0.00  0.00    +0.000 C 
ATOM      6  C   UNL     1       5.705   5.139  15.263  0.00  0.00    +0.000 C 
ATOM      7  C   UNL     1       5.814   5.250  13.932  0.00  0.00    +0.000 C 
ENDROOT
BRANCH   7   8
ATOM      8  C   UNL     1       5.859   4.135  12.981  0.00  0.00    +0.000 A 
ATOM      9  C   UNL     1       4.669   3.622  12.454  0.00  0.00    +0.000 A 
ATOM     10  C   UNL     1       4.702   2.573  11.533  0.00  0.00    +0.000 A 
ATOM     11  C   UNL     1       5.924   2.035  11.134  0.00  0.00    +0.000 A 
ATOM     12  C   UNL     1       7.113   2.540  11.660  0.00  0.00    +0.000 A 
ATOM     13  C   UNL     1       7.082   3.587  12.582  0.00  0.00    +0.000 A 
ENDBRANCH   7   8
BRANCH   4  14
ATOM     14  C   UNL     1       7.410   5.816  17.976  0.00  0.00    +0.000 C 
BRANCH  14  15
ATOM     15  O   UNL     1       7.951   4.621  18.538  0.00  0.00    +0.000 OA
ATOM     16  H   UNL     1       7.413   4.408  19.325  0.00  0.00    +0.000 HD
ENDBRANCH  14  15
ENDBRANCH   4  14
BRANCH   4  17
ATOM     17  C   UNL     1       4.983   6.158  18.650  0.00  0.00    +0.000 C 
BRANCH  17  18
ATOM     18  O   UNL     1       4.023   5.153  19.063  0.00  0.00    +0.000 OA
BRANCH  18  19
ATOM     19  C   UNL     1       2.766   5.602  19.295  0.00  0.00    +0.000 C 
ATOM     20  O   UNL     1       2.514   6.628  19.924  0.00  0.00    +0.000 OA
BRANCH  19  21
ATOM     21  C   UNL     1       1.661   4.694  18.777  0.00  0.00    +0.000 C 
ATOM     22  C   UNL     1       1.979   3.831  17.549  0.00  0.00    +0.000 C 
ATOM     23  C   UNL     1       2.552   2.449  17.860  0.00  0.00    +0.000 C 
ATOM     24  C   UNL     1       1.756   1.729  18.939  0.00  0.00    +0.000 C 
ATOM     25  C   UNL     1       1.689   2.568  20.205  0.00  0.00    +0.000 C 
ATOM     26  C   UNL     1       1.031   3.917  19.938  0.00  0.00    +0.000 C 
ENDBRANCH  19  21
ENDBRANCH  18  19
ENDBRANCH  17  18
ENDBRANCH   4  17
TORSDOF 7
ENDMDL
MODEL 9
REMARK VINA RESULT:      -7.1      0.840      1.040
REMARK  Name = 
REMARK  7 active torsions:
REMARK  status: ('A' for Active; 'I' for Inactive)
REMARK    1  A    between atoms: C_4  and  C_5
REMARK    2  A    between atoms: C_4  and  C_7
REMARK    3  A    between atoms: C_5  and  O_6
REMARK    4  A    between atoms: C_7  and  O_8
REMARK    5  A    between atoms: O_8  and  C_9
REMARK    6  A    between atoms: C_9  and  C_11
REMARK    7  A    between atoms: C_19  and  C_20
REMARK                            x       y       z     vdW  Elec       q    Type
REMARK                         _______ _______ _______ _____ _____    ______ ____
ROOT
ATOM      1  O   UNL     1       1.079   8.666  20.816  0.00  0.00    +0.000 OA
ATOM      2  C   UNL     1       1.659   7.894  20.080  0.00  0.00    +0.000 C 
ATOM      3  O   UNL     1       2.141   6.682  20.478  0.00  0.00    +0.000 OA
ATOM      4  C   UNL     1       2.640   5.917  19.360  0.00  0.00    +0.000 C 
ATOM      5  C   UNL     1       2.839   6.929  18.231  0.00  0.00    +0.000 C 
ATOM      6  C   UNL     1       1.978   8.069  18.645  0.00  0.00    +0.000 C 
ATOM      7  C   UNL     1       1.577   9.062  17.839  0.00  0.00    +0.000 C 
ENDROOT
BRANCH   7   8
ATOM      8  C   UNL     1       0.757  10.210  18.237  0.00  0.00    +0.000 A 
ATOM      9  C   UNL     1      -0.637  10.132  18.153  0.00  0.00    +0.000 A 
ATOM     10  C   UNL     1      -1.428  11.213  18.547  0.00  0.00    +0.000 A 
ATOM     11  C   UNL     1      -0.827  12.375  19.030  0.00  0.00    +0.000 A 
ATOM     12  C   UNL     1       0.562  12.459  19.112  0.00  0.00    +0.000 A 
ATOM     13  C   UNL     1       1.354  11.380  18.715  0.00  0.00    +0.000 A 
ENDBRANCH   7   8
BRANCH   4  14
ATOM     14  C   UNL     1       1.602   4.836  19.008  0.00  0.00    +0.000 C 
BRANCH  14  15
ATOM     15  O   UNL     1       1.470   4.669  17.596  0.00  0.00    +0.000 OA
ATOM     16  H   UNL     1       0.544   4.880  17.370  0.00  0.00    +0.000 HD
ENDBRANCH  14  15
ENDBRANCH   4  14
BRANCH   4  17
ATOM     17  C   UNL     1       3.984   5.287  19.772  0.00  0.00    +0.000 C 
BRANCH  17  18
ATOM     18  O   UNL     1       5.108   5.901  19.093  0.00  0.00    +0.000 OA
BRANCH  18  19
ATOM     19  C   UNL     1       6.254   5.179  19.084  0.00  0.00    +0.000 C 
ATOM     20  O   UNL     1       7.163   5.335  19.896  0.00  0.00    +0.000 OA
BRANCH  19  21
ATOM     21  C   UNL     1       6.374   4.192  17.934  0.00  0.00    +0.000 C 
ATOM     22  C   UNL     1       5.078   3.773  17.228  0.00  0.00    +0.000 C 
ATOM     23  C   UNL     1       4.678   4.644  16.039  0.00  0.00    +0.000 C 
ATOM     24  C   UNL     1       5.847   4.897  15.096  0.00  0.00    +0.000 C 
ATOM     25  C   UNL     1       7.010   5.529  15.844  0.00  0.00    +0.000 C 
ATOM     26  C   UNL     1       7.490   4.630  16.978  0.00  0.00    +0.000 C 
ENDBRANCH  19  21
ENDBRANCH  18  19
ENDBRANCH  17  18
ENDBRANCH   4  17
TORSDOF 7
ENDMDL
