MODEL 1
REMARK VINA RESULT:      -6.1      0.000      0.000
REMARK  Name = 
REMARK  9 active torsions:
REMARK  status: ('A' for Active; 'I' for Inactive)
REMARK    1  A    between atoms: C_1  and  C_2
REMARK    2  A    between atoms: C_2  and  S_3
REMARK    3  A    between atoms: S_3  and  C_4
REMARK    4  A    between atoms: C_7  and  C_8
REMARK    5  A    between atoms: C_8  and  C_9
REMARK    6  A    between atoms: C_9  and  C_10
REMARK    7  A    between atoms: C_9  and  N_12
REMARK    8  A    between atoms: C_10  and  C_11
REMARK    9  A    between atoms: N_12  and  O_13
REMARK                            x       y       z     vdW  Elec       q    Type
REMARK                         _______ _______ _______ _____ _____    ______ ____
ROOT
ATOM      1  C   UNL     1       2.292   3.916  18.370  0.00  0.00    +0.000 A 
ATOM      2  C   UNL     1       2.524   5.273  18.596  0.00  0.00    +0.000 A 
ATOM      3  C   UNL     1       3.554   5.942  17.925  0.00  0.00    +0.000 A 
ATOM      4  C   UNL     1       4.384   5.254  17.031  0.00  0.00    +0.000 A 
ATOM      5  C   UNL     1       4.184   3.878  16.851  0.00  0.00    +0.000 A 
ATOM      6  C   UNL     1       3.151   3.214  17.518  0.00  0.00    +0.000 A 
ENDROOT
BRANCH   1   7
ATOM      7  S   UNL     1       0.929   3.063  19.143  0.00  0.00    +0.000 S 
BRANCH   7   9
ATOM      8  C   UNL     1       2.462   2.814  21.415  0.00  0.00    +0.000 C 
ATOM      9  C   UNL     1       1.229   3.525  20.886  0.00  0.00    +0.000 C 
ENDBRANCH   7   9
ENDBRANCH   1   7
BRANCH   4  10
ATOM     10  C   UNL     1       5.394   5.991  16.177  0.00  0.00    +0.000 C 
BRANCH  10  11
ATOM     11  C   UNL     1       6.883   5.836  16.571  0.00  0.00    +0.000 C 
BRANCH  11  12
ATOM     12  C   UNL     1       7.090   5.401  18.038  0.00  0.00    +0.000 C 
ATOM     13  C   UNL     1       7.972   6.315  18.880  0.00  0.00    +0.000 C 
ENDBRANCH  11  12
BRANCH  11  14
ATOM     14  N   UNL     1       7.581   4.869  15.692  0.00  0.00    +0.000 NA
ATOM     15  H   UNL     1       6.935   4.117  15.433  0.00  0.00    +0.000 HD
BRANCH  14  16
ATOM     16  O   UNL     1       7.785   5.546  14.420  0.00  0.00    +0.000 OA
ATOM     17  H   UNL     1       8.598   6.062  14.596  0.00  0.00    +0.000 HD
ENDBRANCH  14  16
ENDBRANCH  11  14
ENDBRANCH  10  11
ENDBRANCH   4  10
TORSDOF 7
ENDMDL
MODEL 2
REMARK VINA RESULT:      -6.1      1.671      1.771
REMARK  Name = 
REMARK  9 active torsions:
REMARK  status: ('A' for Active; 'I' for Inactive)
REMARK    1  A    between atoms: C_1  and  C_2
REMARK    2  A    between atoms: C_2  and  S_3
REMARK    3  A    between atoms: S_3  and  C_4
REMARK    4  A    between atoms: C_7  and  C_8
REMARK    5  A    between atoms: C_8  and  C_9
REMARK    6  A    between atoms: C_9  and  C_10
REMARK    7  A    between atoms: C_9  and  N_12
REMARK    8  A    between atoms: C_10  and  C_11
REMARK    9  A    between atoms: N_12  and  O_13
REMARK                            x       y       z     vdW  Elec       q    Type
REMARK                         _______ _______ _______ _____ _____    ______ ____
ROOT
ATOM      1  C   UNL     1       3.142   4.512  19.869  0.00  0.00    +0.000 A 
ATOM      2  C   UNL     1       3.003   5.753  19.247  0.00  0.00    +0.000 A 
ATOM      3  C   UNL     1       3.778   6.080  18.128  0.00  0.00    +0.000 A 
ATOM      4  C   UNL     1       4.722   5.175  17.628  0.00  0.00    +0.000 A 
ATOM      5  C   UNL     1       4.899   3.953  18.292  0.00  0.00    +0.000 A 
ATOM      6  C   UNL     1       4.120   3.626  19.406  0.00  0.00    +0.000 A 
ENDROOT
BRANCH   1   7
ATOM      7  S   UNL     1       2.103   4.037  21.239  0.00  0.00    +0.000 S 
BRANCH   7   9
ATOM      8  C   UNL     1       0.765   2.799  19.178  0.00  0.00    +0.000 C 
ATOM      9  C   UNL     1       1.359   2.518  20.546  0.00  0.00    +0.000 C 
ENDBRANCH   7   9
ENDBRANCH   1   7
BRANCH   4  10
ATOM     10  C   UNL     1       5.450   5.443  16.328  0.00  0.00    +0.000 C 
BRANCH  10  11
ATOM     11  C   UNL     1       6.976   5.688  16.423  0.00  0.00    +0.000 C 
BRANCH  11  12
ATOM     12  C   UNL     1       7.404   6.414  17.717  0.00  0.00    +0.000 C 
ATOM     13  C   UNL     1       7.711   7.899  17.571  0.00  0.00    +0.000 C 
ENDBRANCH  11  12
BRANCH  11  14
ATOM     14  N   UNL     1       7.738   4.422  16.320  0.00  0.00    +0.000 NA
ATOM     15  H   UNL     1       8.613   4.592  15.815  0.00  0.00    +0.000 HD
BRANCH  14  16
ATOM     16  O   UNL     1       8.214   4.122  17.662  0.00  0.00    +0.000 OA
ATOM     17  H   UNL     1       9.184   4.185  17.550  0.00  0.00    +0.000 HD
ENDBRANCH  14  16
ENDBRANCH  11  14
ENDBRANCH  10  11
ENDBRANCH   4  10
TORSDOF 7
ENDMDL
MODEL 3
REMARK VINA RESULT:      -6.0      0.432      1.312
REMARK  Name = 
REMARK  9 active torsions:
REMARK  status: ('A' for Active; 'I' for Inactive)
REMARK    1  A    between atoms: C_1  and  C_2
REMARK    2  A    between atoms: C_2  and  S_3
REMARK    3  A    between atoms: S_3  and  C_4
REMARK    4  A    between atoms: C_7  and  C_8
REMARK    5  A    between atoms: C_8  and  C_9
REMARK    6  A    between atoms: C_9  and  C_10
REMARK    7  A    between atoms: C_9  and  N_12
REMARK    8  A    between atoms: C_10  and  C_11
REMARK    9  A    between atoms: N_12  and  O_13
REMARK                            x       y       z     vdW  Elec       q    Type
REMARK                         _______ _______ _______ _____ _____    ______ ____
ROOT
ATOM      1  C   UNL     1       2.348   3.810  18.137  0.00  0.00    +0.000 A 
ATOM      2  C   UNL     1       3.287   3.213  17.295  0.00  0.00    +0.000 A 
ATOM      3  C   UNL     1       4.290   3.978  16.690  0.00  0.00    +0.000 A 
ATOM      4  C   UNL     1       4.356   5.360  16.903  0.00  0.00    +0.000 A 
ATOM      5  C   UNL     1       3.376   5.965  17.703  0.00  0.00    +0.000 A 
ATOM      6  C   UNL     1       2.378   5.197  18.311  0.00  0.00    +0.000 A 
ENDROOT
BRANCH   1   7
ATOM      7  S   UNL     1       1.116   2.843  18.991  0.00  0.00    +0.000 S 
BRANCH   7   9
ATOM      8  C   UNL     1       2.005   3.083  21.584  0.00  0.00    +0.000 C 
ATOM      9  C   UNL     1       1.072   3.740  20.582  0.00  0.00    +0.000 C 
ENDBRANCH   7   9
ENDBRANCH   1   7
BRANCH   4  10
ATOM     10  C   UNL     1       5.526   6.176  16.392  0.00  0.00    +0.000 C 
BRANCH  10  11
ATOM     11  C   UNL     1       6.903   5.900  17.041  0.00  0.00    +0.000 C 
BRANCH  11  12
ATOM     12  C   UNL     1       6.809   5.424  18.507  0.00  0.00    +0.000 C 
ATOM     13  C   UNL     1       7.989   5.790  19.398  0.00  0.00    +0.000 C 
ENDBRANCH  11  12
BRANCH  11  14
ATOM     14  N   UNL     1       7.677   4.898  16.272  0.00  0.00    +0.000 NA
ATOM     15  H   UNL     1       7.174   4.006  16.270  0.00  0.00    +0.000 HD
BRANCH  14  16
ATOM     16  O   UNL     1       7.590   5.299  14.876  0.00  0.00    +0.000 OA
ATOM     17  H   UNL     1       6.627   5.249  14.712  0.00  0.00    +0.000 HD
ENDBRANCH  14  16
ENDBRANCH  11  14
ENDBRANCH  10  11
ENDBRANCH   4  10
TORSDOF 7
ENDMDL
MODEL 4
REMARK VINA RESULT:      -6.0      1.824      2.714
REMARK  Name = 
REMARK  9 active torsions:
REMARK  status: ('A' for Active; 'I' for Inactive)
REMARK    1  A    between atoms: C_1  and  C_2
REMARK    2  A    between atoms: C_2  and  S_3
REMARK    3  A    between atoms: S_3  and  C_4
REMARK    4  A    between atoms: C_7  and  C_8
REMARK    5  A    between atoms: C_8  and  C_9
REMARK    6  A    between atoms: C_9  and  C_10
REMARK    7  A    between atoms: C_9  and  N_12
REMARK    8  A    between atoms: C_10  and  C_11
REMARK    9  A    between atoms: N_12  and  O_13
REMARK                            x       y       z     vdW  Elec       q    Type
REMARK                         _______ _______ _______ _____ _____    ______ ____
ROOT
ATOM      1  C   UNL     1       2.613   5.346  19.143  0.00  0.00    +0.000 A 
ATOM      2  C   UNL     1       3.048   4.223  18.437  0.00  0.00    +0.000 A 
ATOM      3  C   UNL     1       3.934   4.357  17.363  0.00  0.00    +0.000 A 
ATOM      4  C   UNL     1       4.384   5.622  16.965  0.00  0.00    +0.000 A 
ATOM      5  C   UNL     1       3.899   6.750  17.640  0.00  0.00    +0.000 A 
ATOM      6  C   UNL     1       3.017   6.614  18.716  0.00  0.00    +0.000 A 
ENDROOT
BRANCH   1   7
ATOM      7  S   UNL     1       1.555   5.194  20.572  0.00  0.00    +0.000 S 
BRANCH   7   9
ATOM      8  C   UNL     1       1.657   2.646  21.606  0.00  0.00    +0.000 C 
ATOM      9  C   UNL     1       1.101   3.429  20.430  0.00  0.00    +0.000 C 
ENDBRANCH   7   9
ENDBRANCH   1   7
BRANCH   4  10
ATOM     10  C   UNL     1       5.465   5.773  15.915  0.00  0.00    +0.000 C 
BRANCH  10  11
ATOM     11  C   UNL     1       6.451   4.590  15.756  0.00  0.00    +0.000 C 
BRANCH  11  12
ATOM     12  C   UNL     1       6.794   4.268  14.286  0.00  0.00    +0.000 C 
ATOM     13  C   UNL     1       5.627   3.808  13.421  0.00  0.00    +0.000 C 
ENDBRANCH  11  12
BRANCH  11  14
ATOM     14  N   UNL     1       7.714   4.833  16.491  0.00  0.00    +0.000 NA
ATOM     15  H   UNL     1       7.713   5.786  16.865  0.00  0.00    +0.000 HD
BRANCH  14  16
ATOM     16  O   UNL     1       7.643   4.030  17.702  0.00  0.00    +0.000 OA
ATOM     17  H   UNL     1       6.891   4.442  18.173  0.00  0.00    +0.000 HD
ENDBRANCH  14  16
ENDBRANCH  11  14
ENDBRANCH  10  11
ENDBRANCH   4  10
TORSDOF 7
ENDMDL
MODEL 5
REMARK VINA RESULT:      -5.9      2.008      2.468
REMARK  Name = 
REMARK  9 active torsions:
REMARK  status: ('A' for Active; 'I' for Inactive)
REMARK    1  A    between atoms: C_1  and  C_2
REMARK    2  A    between atoms: C_2  and  S_3
REMARK    3  A    between atoms: S_3  and  C_4
REMARK    4  A    between atoms: C_7  and  C_8
REMARK    5  A    between atoms: C_8  and  C_9
REMARK    6  A    between atoms: C_9  and  C_10
REMARK    7  A    between atoms: C_9  and  N_12
REMARK    8  A    between atoms: C_10  and  C_11
REMARK    9  A    between atoms: N_12  and  O_13
REMARK                            x       y       z     vdW  Elec       q    Type
REMARK                         _______ _______ _______ _____ _____    ______ ____
ROOT
ATOM      1  C   UNL     1       2.742   3.939  17.977  0.00  0.00    +0.000 A 
ATOM      2  C   UNL     1       3.717   3.453  17.105  0.00  0.00    +0.000 A 
ATOM      3  C   UNL     1       4.832   4.231  16.778  0.00  0.00    +0.000 A 
ATOM      4  C   UNL     1       4.979   5.520  17.304  0.00  0.00    +0.000 A 
ATOM      5  C   UNL     1       3.969   6.027  18.133  0.00  0.00    +0.000 A 
ATOM      6  C   UNL     1       2.857   5.245  18.463  0.00  0.00    +0.000 A 
ENDROOT
BRANCH   1   7
ATOM      7  S   UNL     1       1.358   2.933  18.480  0.00  0.00    +0.000 S 
BRANCH   7   9
ATOM      8  C   UNL     1       1.367   3.101  21.227  0.00  0.00    +0.000 C 
ATOM      9  C   UNL     1       1.990   2.322  20.082  0.00  0.00    +0.000 C 
ENDBRANCH   7   9
ENDBRANCH   1   7
BRANCH   4  10
ATOM     10  C   UNL     1       6.254   6.311  17.093  0.00  0.00    +0.000 C 
BRANCH  10  11
ATOM     11  C   UNL     1       7.450   5.961  18.011  0.00  0.00    +0.000 C 
BRANCH  11  12
ATOM     12  C   UNL     1       8.192   7.201  18.556  0.00  0.00    +0.000 C 
ATOM     13  C   UNL     1       7.950   8.500  17.798  0.00  0.00    +0.000 C 
ENDBRANCH  11  12
BRANCH  11  14
ATOM     14  N   UNL     1       7.028   5.124  19.159  0.00  0.00    +0.000 NA
ATOM     15  H   UNL     1       7.349   4.162  19.015  0.00  0.00    +0.000 HD
BRANCH  14  16
ATOM     16  O   UNL     1       7.836   5.548  20.292  0.00  0.00    +0.000 OA
ATOM     17  H   UNL     1       7.422   6.403  20.526  0.00  0.00    +0.000 HD
ENDBRANCH  14  16
ENDBRANCH  11  14
ENDBRANCH  10  11
ENDBRANCH   4  10
TORSDOF 7
ENDMDL
MODEL 6
REMARK VINA RESULT:      -5.9      2.029      2.127
REMARK  Name = 
REMARK  9 active torsions:
REMARK  status: ('A' for Active; 'I' for Inactive)
REMARK    1  A    between atoms: C_1  and  C_2
REMARK    2  A    between atoms: C_2  and  S_3
REMARK    3  A    between atoms: S_3  and  C_4
REMARK    4  A    between atoms: C_7  and  C_8
REMARK    5  A    between atoms: C_8  and  C_9
REMARK    6  A    between atoms: C_9  and  C_10
REMARK    7  A    between atoms: C_9  and  N_12
REMARK    8  A    between atoms: C_10  and  C_11
REMARK    9  A    between atoms: N_12  and  O_13
REMARK                            x       y       z     vdW  Elec       q    Type
REMARK                         _______ _______ _______ _____ _____    ______ ____
ROOT
ATOM      1  C   UNL     1       2.913   3.691  18.502  0.00  0.00    +0.000 A 
ATOM      2  C   UNL     1       3.375   4.623  19.432  0.00  0.00    +0.000 A 
ATOM      3  C   UNL     1       4.431   5.484  19.114  0.00  0.00    +0.000 A 
ATOM      4  C   UNL     1       5.057   5.410  17.863  0.00  0.00    +0.000 A 
ATOM      5  C   UNL     1       4.628   4.434  16.954  0.00  0.00    +0.000 A 
ATOM      6  C   UNL     1       3.568   3.578  17.272  0.00  0.00    +0.000 A 
ENDROOT
BRANCH   1   7
ATOM      7  S   UNL     1       1.510   2.646  18.850  0.00  0.00    +0.000 S 
BRANCH   7   9
ATOM      8  C   UNL     1       1.495   2.614  21.602  0.00  0.00    +0.000 C 
ATOM      9  C   UNL     1       0.951   3.397  20.420  0.00  0.00    +0.000 C 
ENDBRANCH   7   9
ENDBRANCH   1   7
BRANCH   4  10
ATOM     10  C   UNL     1       6.088   6.437  17.443  0.00  0.00    +0.000 C 
BRANCH  10  11
ATOM     11  C   UNL     1       7.550   6.173  17.877  0.00  0.00    +0.000 C 
BRANCH  11  12
ATOM     12  C   UNL     1       8.223   7.391  18.546  0.00  0.00    +0.000 C 
ATOM     13  C   UNL     1       8.031   8.725  17.834  0.00  0.00    +0.000 C 
ENDBRANCH  11  12
BRANCH  11  14
ATOM     14  N   UNL     1       7.643   5.019  18.801  0.00  0.00    +0.000 NA
ATOM     15  H   UNL     1       8.522   4.519  18.634  0.00  0.00    +0.000 HD
BRANCH  14  16
ATOM     16  O   UNL     1       7.858   5.575  20.129  0.00  0.00    +0.000 OA
ATOM     17  H   UNL     1       8.508   4.949  20.505  0.00  0.00    +0.000 HD
ENDBRANCH  14  16
ENDBRANCH  11  14
ENDBRANCH  10  11
ENDBRANCH   4  10
TORSDOF 7
ENDMDL
MODEL 7
REMARK VINA RESULT:      -5.9      1.317      1.805
REMARK  Name = 
REMARK  9 active torsions:
REMARK  status: ('A' for Active; 'I' for Inactive)
REMARK    1  A    between atoms: C_1  and  C_2
REMARK    2  A    between atoms: C_2  and  S_3
REMARK    3  A    between atoms: S_3  and  C_4
REMARK    4  A    between atoms: C_7  and  C_8
REMARK    5  A    between atoms: C_8  and  C_9
REMARK    6  A    between atoms: C_9  and  C_10
REMARK    7  A    between atoms: C_9  and  N_12
REMARK    8  A    between atoms: C_10  and  C_11
REMARK    9  A    between atoms: N_12  and  O_13
REMARK                            x       y       z     vdW  Elec       q    Type
REMARK                         _______ _______ _______ _____ _____    ______ ____
ROOT
ATOM      1  C   UNL     1       2.325   3.589  18.234  0.00  0.00    +0.000 A 
ATOM      2  C   UNL     1       3.294   3.042  17.391  0.00  0.00    +0.000 A 
ATOM      3  C   UNL     1       4.242   3.861  16.769  0.00  0.00    +0.000 A 
ATOM      4  C   UNL     1       4.222   5.248  16.966  0.00  0.00    +0.000 A 
ATOM      5  C   UNL     1       3.211   5.799  17.766  0.00  0.00    +0.000 A 
ATOM      6  C   UNL     1       2.268   4.977  18.391  0.00  0.00    +0.000 A 
ENDROOT
BRANCH   1   7
ATOM      7  S   UNL     1       1.162   2.557  19.109  0.00  0.00    +0.000 S 
BRANCH   7   9
ATOM      8  C   UNL     1       2.258   2.996  21.595  0.00  0.00    +0.000 C 
ATOM      9  C   UNL     1       1.110   3.442  20.707  0.00  0.00    +0.000 C 
ENDBRANCH   7   9
ENDBRANCH   1   7
BRANCH   4  10
ATOM     10  C   UNL     1       5.333   6.129  16.435  0.00  0.00    +0.000 C 
BRANCH  10  11
ATOM     11  C   UNL     1       6.442   6.530  17.439  0.00  0.00    +0.000 C 
BRANCH  11  12
ATOM     12  C   UNL     1       6.912   5.364  18.335  0.00  0.00    +0.000 C 
ATOM     13  C   UNL     1       7.917   5.730  19.421  0.00  0.00    +0.000 C 
ENDBRANCH  11  12
BRANCH  11  14
ATOM     14  N   UNL     1       7.623   7.096  16.747  0.00  0.00    +0.000 NA
ATOM     15  H   UNL     1       7.381   7.305  15.774  0.00  0.00    +0.000 HD
BRANCH  14  16
ATOM     16  O   UNL     1       7.824   8.426  17.303  0.00  0.00    +0.000 OA
ATOM     17  H   UNL     1       7.108   8.934  16.871  0.00  0.00    +0.000 HD
ENDBRANCH  14  16
ENDBRANCH  11  14
ENDBRANCH  10  11
ENDBRANCH   4  10
TORSDOF 7
ENDMDL
MODEL 8
REMARK VINA RESULT:      -5.8      2.072      2.757
REMARK  Name = 
REMARK  9 active torsions:
REMARK  status: ('A' for Active; 'I' for Inactive)
REMARK    1  A    between atoms: C_1  and  C_2
REMARK    2  A    between atoms: C_2  and  S_3
REMARK    3  A    between atoms: S_3  and  C_4
REMARK    4  A    between atoms: C_7  and  C_8
REMARK    5  A    between atoms: C_8  and  C_9
REMARK    6  A    between atoms: C_9  and  C_10
REMARK    7  A    between atoms: C_9  and  N_12
REMARK    8  A    between atoms: C_10  and  C_11
REMARK    9  A    between atoms: N_12  and  O_13
REMARK                            x       y       z     vdW  Elec       q    Type
REMARK                         _______ _______ _______ _____ _____    ______ ____
ROOT
ATOM      1  C   UNL     1       3.763   3.329  19.414  0.00  0.00    +0.000 A 
ATOM      2  C   UNL     1       4.687   4.371  19.498  0.00  0.00    +0.000 A 
ATOM      3  C   UNL     1       5.220   4.945  18.339  0.00  0.00    +0.000 A 
ATOM      4  C   UNL     1       4.851   4.469  17.075  0.00  0.00    +0.000 A 
ATOM      5  C   UNL     1       3.967   3.384  16.997  0.00  0.00    +0.000 A 
ATOM      6  C   UNL     1       3.432   2.815  18.157  0.00  0.00    +0.000 A 
ENDROOT
BRANCH   1   7
ATOM      7  S   UNL     1       3.001   2.642  20.874  0.00  0.00    +0.000 S 
BRANCH   7   9
ATOM      8  C   UNL     1       1.148   4.637  20.482  0.00  0.00    +0.000 C 
ATOM      9  C   UNL     1       1.266   3.126  20.570  0.00  0.00    +0.000 C 
ENDBRANCH   7   9
ENDBRANCH   1   7
BRANCH   4  10
ATOM     10  C   UNL     1       5.289   5.181  15.812  0.00  0.00    +0.000 C 
BRANCH  10  11
ATOM     11  C   UNL     1       6.252   4.410  14.877  0.00  0.00    +0.000 C 
BRANCH  11  12
ATOM     12  C   UNL     1       5.605   3.990  13.539  0.00  0.00    +0.000 C 
ATOM     13  C   UNL     1       6.576   3.635  12.419  0.00  0.00    +0.000 C 
ENDBRANCH  11  12
BRANCH  11  14
ATOM     14  N   UNL     1       7.471   5.197  14.582  0.00  0.00    +0.000 NA
ATOM     15  H   UNL     1       7.278   5.853  13.819  0.00  0.00    +0.000 HD
BRANCH  14  16
ATOM     16  O   UNL     1       7.662   6.093  15.712  0.00  0.00    +0.000 OA
ATOM     17  H   UNL     1       6.780   6.075  16.134  0.00  0.00    +0.000 HD
ENDBRANCH  14  16
ENDBRANCH  11  14
ENDBRANCH  10  11
ENDBRANCH   4  10
TORSDOF 7
ENDMDL
MODEL 9
REMARK VINA RESULT:      -5.8      1.589      2.248
REMARK  Name = 
REMARK  9 active torsions:
REMARK  status: ('A' for Active; 'I' for Inactive)
REMARK    1  A    between atoms: C_1  and  C_2
REMARK    2  A    between atoms: C_2  and  S_3
REMARK    3  A    between atoms: S_3  and  C_4
REMARK    4  A    between atoms: C_7  and  C_8
REMARK    5  A    between atoms: C_8  and  C_9
REMARK    6  A    between atoms: C_9  and  C_10
REMARK    7  A    between atoms: C_9  and  N_12
REMARK    8  A    between atoms: C_10  and  C_11
REMARK    9  A    between atoms: N_12  and  O_13
REMARK                            x       y       z     vdW  Elec       q    Type
REMARK                         _______ _______ _______ _____ _____    ______ ____
ROOT
ATOM      1  C   UNL     1       2.378   4.767  19.033  0.00  0.00    +0.000 A 
ATOM      2  C   UNL     1       3.220   5.876  19.129  0.00  0.00    +0.000 A 
ATOM      3  C   UNL     1       4.164   6.141  18.130  0.00  0.00    +0.000 A 
ATOM      4  C   UNL     1       4.293   5.287  17.028  0.00  0.00    +0.000 A 
ATOM      5  C   UNL     1       3.485   4.143  16.966  0.00  0.00    +0.000 A 
ATOM      6  C   UNL     1       2.539   3.883  17.962  0.00  0.00    +0.000 A 
ENDROOT
BRANCH   1   7
ATOM      7  S   UNL     1       1.106   4.458  20.246  0.00  0.00    +0.000 S 
BRANCH   7   9
ATOM      8  C   UNL     1       2.726   2.603  21.473  0.00  0.00    +0.000 C 
ATOM      9  C   UNL     1       1.468   2.708  20.629  0.00  0.00    +0.000 C 
ENDBRANCH   7   9
ENDBRANCH   1   7
BRANCH   4  10
ATOM     10  C   UNL     1       5.191   5.645  15.863  0.00  0.00    +0.000 C 
BRANCH  10  11
ATOM     11  C   UNL     1       6.371   4.685  15.573  0.00  0.00    +0.000 C 
BRANCH  11  12
ATOM     12  C   UNL     1       6.826   4.696  14.098  0.00  0.00    +0.000 C 
ATOM     13  C   UNL     1       6.161   3.666  13.194  0.00  0.00    +0.000 C 
ENDBRANCH  11  12
BRANCH  11  14
ATOM     14  N   UNL     1       7.542   4.990  16.428  0.00  0.00    +0.000 NA
ATOM     15  H   UNL     1       8.402   4.759  15.922  0.00  0.00    +0.000 HD
BRANCH  14  16
ATOM     16  O   UNL     1       7.620   6.440  16.514  0.00  0.00    +0.000 OA
ATOM     17  H   UNL     1       8.226   6.653  15.776  0.00  0.00    +0.000 HD
ENDBRANCH  14  16
ENDBRANCH  11  14
ENDBRANCH  10  11
ENDBRANCH   4  10
TORSDOF 7
ENDMDL
