MODEL 1
REMARK VINA RESULT:      -6.8      0.000      0.000
REMARK  Name = 
REMARK  6 active torsions:
REMARK  status: ('A' for Active; 'I' for Inactive)
REMARK    1  A    between atoms: C_2  and  C_4
REMARK    2  A    between atoms: C_4  and  N_5
REMARK    3  A    between atoms: C_11  and  C_12
REMARK    4  A    between atoms: C_19  and  C_20
REMARK    5  A    between atoms: C_20  and  O_22
REMARK    6  A    between atoms: O_22  and  C_23
REMARK                            x       y       z     vdW  Elec       q    Type
REMARK                         _______ _______ _______ _____ _____    ______ ____
ROOT
ATOM      1  N   UNL     1       5.052   3.692  16.792  0.00  0.00    +0.000 NA
ATOM      2  C   UNL     1       4.316   4.964  16.928  0.00  0.00    +0.000 C 
ATOM      3  C   UNL     1       2.853   4.281  16.887  0.00  0.00    +0.000 C 
ATOM      4  C   UNL     1       2.915   2.951  17.609  0.00  0.00    +0.000 C 
ATOM      5  C   UNL     1       4.364   2.990  17.958  0.00  0.00    +0.000 C 
ATOM      6  C   UNL     1       4.305   3.897  19.448  0.00  0.00    +0.000 C 
ATOM      7  C   UNL     1       4.429   5.505  19.316  0.00  0.00    +0.000 C 
ATOM      8  C   UNL     1       5.235   5.496  18.057  0.00  0.00    +0.000 C 
ENDROOT
BRANCH   7   9
ATOM      9  C   UNL     1       3.248   6.466  19.109  0.00  0.00    +0.000 A 
ATOM     10  C   UNL     1       3.142   7.354  18.037  0.00  0.00    +0.000 A 
ATOM     11  C   UNL     1       2.305   8.486  18.129  0.00  0.00    +0.000 A 
ATOM     12  C   UNL     1       1.496   8.684  19.246  0.00  0.00    +0.000 A 
ATOM     13  I   UNL     1       0.382  10.426  19.447  0.00  0.00    +0.000 I 
ATOM     14  C   UNL     1       1.456   7.721  20.240  0.00  0.00    +0.000 A 
ATOM     15  C   UNL     1       2.301   6.609  20.150  0.00  0.00    +0.000 A 
ENDBRANCH   7   9
BRANCH   8  16
ATOM     16  C   UNL     1       6.360   6.409  17.563  0.00  0.00    +0.000 C 
ATOM     17  O   UNL     1       6.290   7.318  16.753  0.00  0.00    +0.000 OA
BRANCH  16  18
ATOM     18  O   UNL     1       7.504   6.028  18.227  0.00  0.00    +0.000 OA
ATOM     19  C   UNL     1       7.949   4.678  18.179  0.00  0.00    +0.000 C 
ENDBRANCH  16  18
ENDBRANCH   8  16
BRANCH   1  20
ATOM     20  C   UNL     1       5.127   3.687  15.321  0.00  0.00    +0.000 C 
BRANCH  20  22
ATOM     21  C   UNL     1       7.111   4.907  14.260  0.00  0.00    +0.000 C 
ATOM     22  C   UNL     1       6.022   4.137  14.233  0.00  0.00    +0.000 C 
ATOM     23 BR   UNL     1       5.519   3.354  12.553  0.00  0.00    +0.000 Br
ENDBRANCH  20  22
ENDBRANCH   1  20
TORSDOF 5
ENDMDL
MODEL 2
REMARK VINA RESULT:      -6.5      1.059      1.443
REMARK  Name = 
REMARK  6 active torsions:
REMARK  status: ('A' for Active; 'I' for Inactive)
REMARK    1  A    between atoms: C_2  and  C_4
REMARK    2  A    between atoms: C_4  and  N_5
REMARK    3  A    between atoms: C_11  and  C_12
REMARK    4  A    between atoms: C_19  and  C_20
REMARK    5  A    between atoms: C_20  and  O_22
REMARK    6  A    between atoms: O_22  and  C_23
REMARK                            x       y       z     vdW  Elec       q    Type
REMARK                         _______ _______ _______ _____ _____    ______ ____
ROOT
ATOM      1  N   UNL     1       4.706   3.307  17.103  0.00  0.00    +0.000 NA
ATOM      2  C   UNL     1       4.089   4.587  17.501  0.00  0.00    +0.000 C 
ATOM      3  C   UNL     1       2.587   4.144  17.105  0.00  0.00    +0.000 C 
ATOM      4  C   UNL     1       2.408   2.676  17.433  0.00  0.00    +0.000 C 
ATOM      5  C   UNL     1       3.787   2.424  17.943  0.00  0.00    +0.000 C 
ATOM      6  C   UNL     1       3.601   2.911  19.608  0.00  0.00    +0.000 C 
ATOM      7  C   UNL     1       3.903   4.465  19.942  0.00  0.00    +0.000 C 
ATOM      8  C   UNL     1       4.879   4.676  18.831  0.00  0.00    +0.000 C 
ENDROOT
BRANCH   7   9
ATOM      9  C   UNL     1       2.867   5.598  19.876  0.00  0.00    +0.000 A 
ATOM     10  C   UNL     1       3.018   6.751  19.102  0.00  0.00    +0.000 A 
ATOM     11  C   UNL     1       2.289   7.918  19.412  0.00  0.00    +0.000 A 
ATOM     12  C   UNL     1       1.334   7.913  20.427  0.00  0.00    +0.000 A 
ATOM     13  I   UNL     1       0.374   9.669  20.983  0.00  0.00    +0.000 I 
ATOM     14  C   UNL     1       1.045   6.730  21.086  0.00  0.00    +0.000 A 
ATOM     15  C   UNL     1       1.784   5.580  20.786  0.00  0.00    +0.000 A 
ENDBRANCH   7   9
BRANCH   8  16
ATOM     16  C   UNL     1       6.150   5.525  18.741  0.00  0.00    +0.000 C 
ATOM     17  O   UNL     1       7.168   5.429  19.405  0.00  0.00    +0.000 OA
BRANCH  16  18
ATOM     18  O   UNL     1       5.949   6.439  17.730  0.00  0.00    +0.000 OA
ATOM     19  C   UNL     1       6.904   7.463  17.485  0.00  0.00    +0.000 C 
ENDBRANCH  16  18
ENDBRANCH   8  16
BRANCH   1  20
ATOM     20  C   UNL     1       4.996   3.676  15.708  0.00  0.00    +0.000 C 
BRANCH  20  22
ATOM     21  C   UNL     1       7.269   4.734  15.194  0.00  0.00    +0.000 C 
ATOM     22  C   UNL     1       6.128   4.125  14.868  0.00  0.00    +0.000 C 
ATOM     23 BR   UNL     1       5.873   3.619  13.032  0.00  0.00    +0.000 Br
ENDBRANCH  20  22
ENDBRANCH   1  20
TORSDOF 5
ENDMDL
MODEL 3
REMARK VINA RESULT:      -6.2      6.943     10.257
REMARK  Name = 
REMARK  6 active torsions:
REMARK  status: ('A' for Active; 'I' for Inactive)
REMARK    1  A    between atoms: C_2  and  C_4
REMARK    2  A    between atoms: C_4  and  N_5
REMARK    3  A    between atoms: C_11  and  C_12
REMARK    4  A    between atoms: C_19  and  C_20
REMARK    5  A    between atoms: C_20  and  O_22
REMARK    6  A    between atoms: O_22  and  C_23
REMARK                            x       y       z     vdW  Elec       q    Type
REMARK                         _______ _______ _______ _____ _____    ______ ____
ROOT
ATOM      1  N   UNL     1      -1.985  13.137  20.084  0.00  0.00    +0.000 NA
ATOM      2  C   UNL     1      -1.573  11.733  20.276  0.00  0.00    +0.000 C 
ATOM      3  C   UNL     1      -1.551  11.380  18.700  0.00  0.00    +0.000 C 
ATOM      4  C   UNL     1      -1.052  12.589  17.935  0.00  0.00    +0.000 C 
ATOM      5  C   UNL     1      -0.868  13.493  19.107  0.00  0.00    +0.000 C 
ATOM      6  C   UNL     1       0.739  13.035  19.610  0.00  0.00    +0.000 C 
ATOM      7  C   UNL     1       0.841  11.834  20.689  0.00  0.00    +0.000 C 
ATOM      8  C   UNL     1      -0.488  12.084  21.325  0.00  0.00    +0.000 C 
ENDROOT
BRANCH   7   9
ATOM      9  C   UNL     1       0.919  10.340  20.340  0.00  0.00    +0.000 A 
ATOM     10  C   UNL     1       0.818   9.311  21.279  0.00  0.00    +0.000 A 
ATOM     11  C   UNL     1       1.329   8.029  20.990  0.00  0.00    +0.000 A 
ATOM     12  C   UNL     1       1.851   7.738  19.731  0.00  0.00    +0.000 A 
ATOM     13  I   UNL     1       2.743   5.899  19.357  0.00  0.00    +0.000 I 
ATOM     14  C   UNL     1       1.797   8.694  18.731  0.00  0.00    +0.000 A 
ATOM     15  C   UNL     1       1.303   9.969  19.030  0.00  0.00    +0.000 A 
ENDBRANCH   7   9
BRANCH   8  16
ATOM     16  C   UNL     1      -0.963  11.954  22.775  0.00  0.00    +0.000 C 
ATOM     17  O   UNL     1      -1.611  11.051  23.276  0.00  0.00    +0.000 OA
BRANCH  16  18
ATOM     18  O   UNL     1      -0.499  13.062  23.448  0.00  0.00    +0.000 OA
ATOM     19  C   UNL     1      -1.232  14.280  23.420  0.00  0.00    +0.000 C 
ENDBRANCH  16  18
ENDBRANCH   8  16
BRANCH   1  20
ATOM     20  C   UNL     1      -3.437  12.906  20.144  0.00  0.00    +0.000 C 
BRANCH  20  22
ATOM     21  C   UNL     1      -4.534  12.878  22.456  0.00  0.00    +0.000 C 
ATOM     22  C   UNL     1      -4.503  12.663  21.140  0.00  0.00    +0.000 C 
ATOM     23 BR   UNL     1      -6.108  12.025  20.298  0.00  0.00    +0.000 Br
ENDBRANCH  20  22
ENDBRANCH   1  20
TORSDOF 5
ENDMDL
MODEL 4
REMARK VINA RESULT:      -6.1      1.420      1.536
REMARK  Name = 
REMARK  6 active torsions:
REMARK  status: ('A' for Active; 'I' for Inactive)
REMARK    1  A    between atoms: C_2  and  C_4
REMARK    2  A    between atoms: C_4  and  N_5
REMARK    3  A    between atoms: C_11  and  C_12
REMARK    4  A    between atoms: C_19  and  C_20
REMARK    5  A    between atoms: C_20  and  O_22
REMARK    6  A    between atoms: O_22  and  C_23
REMARK                            x       y       z     vdW  Elec       q    Type
REMARK                         _______ _______ _______ _____ _____    ______ ____
ROOT
ATOM      1  N   UNL     1       4.110   3.486  17.831  0.00  0.00    +0.000 NA
ATOM      2  C   UNL     1       3.626   4.879  17.795  0.00  0.00    +0.000 C 
ATOM      3  C   UNL     1       2.097   4.484  17.455  0.00  0.00    +0.000 C 
ATOM      4  C   UNL     1       1.748   3.205  18.189  0.00  0.00    +0.000 C 
ATOM      5  C   UNL     1       3.075   2.988  18.835  0.00  0.00    +0.000 C 
ATOM      6  C   UNL     1       2.892   3.967  20.268  0.00  0.00    +0.000 C 
ATOM      7  C   UNL     1       3.352   5.513  20.147  0.00  0.00    +0.000 C 
ATOM      8  C   UNL     1       4.380   5.286  19.086  0.00  0.00    +0.000 C 
ENDROOT
BRANCH   7   9
ATOM      9  C   UNL     1       2.450   6.668  19.685  0.00  0.00    +0.000 A 
ATOM     10  C   UNL     1       2.596   7.335  18.468  0.00  0.00    +0.000 A 
ATOM     11  C   UNL     1       2.061   8.628  18.294  0.00  0.00    +0.000 A 
ATOM     12  C   UNL     1       1.292   9.220  19.295  0.00  0.00    +0.000 A 
ATOM     13  I   UNL     1       0.635  11.181  19.100  0.00  0.00    +0.000 I 
ATOM     14  C   UNL     1       0.988   8.501  20.439  0.00  0.00    +0.000 A 
ATOM     15  C   UNL     1       1.537   7.225  20.611  0.00  0.00    +0.000 A 
ENDBRANCH   7   9
BRANCH   8  16
ATOM     16  C   UNL     1       5.739   5.943  18.829  0.00  0.00    +0.000 C 
ATOM     17  O   UNL     1       6.015   6.806  18.013  0.00  0.00    +0.000 OA
BRANCH  16  18
ATOM     18  O   UNL     1       6.627   5.386  19.722  0.00  0.00    +0.000 OA
ATOM     19  C   UNL     1       8.018   5.659  19.619  0.00  0.00    +0.000 C 
ENDBRANCH  16  18
ENDBRANCH   8  16
BRANCH   1  20
ATOM     20  C   UNL     1       4.482   3.390  16.410  0.00  0.00    +0.000 C 
BRANCH  20  22
ATOM     21  C   UNL     1       5.226   4.447  14.201  0.00  0.00    +0.000 C 
ATOM     22  C   UNL     1       5.420   3.999  15.443  0.00  0.00    +0.000 C 
ATOM     23 BR   UNL     1       7.160   4.238  16.221  0.00  0.00    +0.000 Br
ENDBRANCH  20  22
ENDBRANCH   1  20
TORSDOF 5
ENDMDL
MODEL 5
REMARK VINA RESULT:      -6.1      6.652      9.841
REMARK  Name = 
REMARK  6 active torsions:
REMARK  status: ('A' for Active; 'I' for Inactive)
REMARK    1  A    between atoms: C_2  and  C_4
REMARK    2  A    between atoms: C_4  and  N_5
REMARK    3  A    between atoms: C_11  and  C_12
REMARK    4  A    between atoms: C_19  and  C_20
REMARK    5  A    between atoms: C_20  and  O_22
REMARK    6  A    between atoms: O_22  and  C_23
REMARK                            x       y       z     vdW  Elec       q    Type
REMARK                         _______ _______ _______ _____ _____    ______ ____
ROOT
ATOM      1  N   UNL     1      -2.065  12.482  19.743  0.00  0.00    +0.000 NA
ATOM      2  C   UNL     1      -1.487  11.134  19.906  0.00  0.00    +0.000 C 
ATOM      3  C   UNL     1      -1.626  10.735  18.347  0.00  0.00    +0.000 C 
ATOM      4  C   UNL     1      -1.357  11.964  17.503  0.00  0.00    +0.000 C 
ATOM      5  C   UNL     1      -1.124  12.919  18.624  0.00  0.00    +0.000 C 
ATOM      6  C   UNL     1       0.573  12.644  18.924  0.00  0.00    +0.000 C 
ATOM      7  C   UNL     1       0.936  11.495  20.004  0.00  0.00    +0.000 C 
ATOM      8  C   UNL     1      -0.322  11.628  20.800  0.00  0.00    +0.000 C 
ENDROOT
BRANCH   7   9
ATOM      9  C   UNL     1       1.126  10.006  19.675  0.00  0.00    +0.000 A 
ATOM     10  C   UNL     1       1.104   8.986  20.628  0.00  0.00    +0.000 A 
ATOM     11  C   UNL     1       1.711   7.742  20.357  0.00  0.00    +0.000 A 
ATOM     12  C   UNL     1       2.252   7.473  19.101  0.00  0.00    +0.000 A 
ATOM     13  I   UNL     1       3.280   5.702  18.751  0.00  0.00    +0.000 I 
ATOM     14  C   UNL     1       2.124   8.409  18.087  0.00  0.00    +0.000 A 
ATOM     15  C   UNL     1       1.536   9.647  18.369  0.00  0.00    +0.000 A 
ENDBRANCH   7   9
BRANCH   8  16
ATOM     16  C   UNL     1      -0.593  11.496  22.301  0.00  0.00    +0.000 C 
ATOM     17  O   UNL     1      -0.949  10.505  22.917  0.00  0.00    +0.000 OA
BRANCH  16  18
ATOM     18  O   UNL     1      -0.341  12.728  22.863  0.00  0.00    +0.000 OA
ATOM     19  C   UNL     1      -1.412  13.544  23.319  0.00  0.00    +0.000 C 
ENDBRANCH  16  18
ENDBRANCH   8  16
BRANCH   1  20
ATOM     20  C   UNL     1      -3.466  12.106  19.993  0.00  0.00    +0.000 C 
BRANCH  20  22
ATOM     21  C   UNL     1      -5.321  12.166  18.232  0.00  0.00    +0.000 C 
ATOM     22  C   UNL     1      -4.819  12.359  19.452  0.00  0.00    +0.000 C 
ATOM     23 BR   UNL     1      -6.013  12.971  20.827  0.00  0.00    +0.000 Br
ENDBRANCH  20  22
ENDBRANCH   1  20
TORSDOF 5
ENDMDL
MODEL 6
REMARK VINA RESULT:      -6.0      6.476      9.561
REMARK  Name = 
REMARK  6 active torsions:
REMARK  status: ('A' for Active; 'I' for Inactive)
REMARK    1  A    between atoms: C_2  and  C_4
REMARK    2  A    between atoms: C_4  and  N_5
REMARK    3  A    between atoms: C_11  and  C_12
REMARK    4  A    between atoms: C_19  and  C_20
REMARK    5  A    between atoms: C_20  and  O_22
REMARK    6  A    between atoms: O_22  and  C_23
REMARK                            x       y       z     vdW  Elec       q    Type
REMARK                         _______ _______ _______ _____ _____    ______ ____
ROOT
ATOM      1  N   UNL     1      -2.092  12.424  19.421  0.00  0.00    +0.000 NA
ATOM      2  C   UNL     1      -1.476  11.105  19.666  0.00  0.00    +0.000 C 
ATOM      3  C   UNL     1      -1.694  10.571  18.157  0.00  0.00    +0.000 C 
ATOM      4  C   UNL     1      -1.500  11.726  17.197  0.00  0.00    +0.000 C 
ATOM      5  C   UNL     1      -1.225  12.779  18.217  0.00  0.00    +0.000 C 
ATOM      6  C   UNL     1       0.492  12.560  18.441  0.00  0.00    +0.000 C 
ATOM      7  C   UNL     1       0.940  11.514  19.591  0.00  0.00    +0.000 C 
ATOM      8  C   UNL     1      -0.273  11.694  20.445  0.00  0.00    +0.000 C 
ENDROOT
BRANCH   7   9
ATOM      9  C   UNL     1       1.144  10.006  19.381  0.00  0.00    +0.000 A 
ATOM     10  C   UNL     1       1.166   9.068  20.415  0.00  0.00    +0.000 A 
ATOM     11  C   UNL     1       1.784   7.814  20.228  0.00  0.00    +0.000 A 
ATOM     12  C   UNL     1       2.293   7.450  18.982  0.00  0.00    +0.000 A 
ATOM     13  I   UNL     1       3.338   5.670  18.748  0.00  0.00    +0.000 I 
ATOM     14  C   UNL     1       2.121   8.297  17.900  0.00  0.00    +0.000 A 
ATOM     15  C   UNL     1       1.522   9.546  18.097  0.00  0.00    +0.000 A 
ENDBRANCH   7   9
BRANCH   8  16
ATOM     16  C   UNL     1      -0.457  11.688  21.966  0.00  0.00    +0.000 C 
ATOM     17  O   UNL     1      -0.182  12.570  22.760  0.00  0.00    +0.000 OA
BRANCH  16  18
ATOM     18  O   UNL     1      -1.025  10.477  22.293  0.00  0.00    +0.000 OA
ATOM     19  C   UNL     1      -0.445   9.659  23.301  0.00  0.00    +0.000 C 
ENDBRANCH  16  18
ENDBRANCH   8  16
BRANCH   1  20
ATOM     20  C   UNL     1      -3.468  12.048  19.784  0.00  0.00    +0.000 C 
BRANCH  20  22
ATOM     21  C   UNL     1      -5.304  12.080  18.002  0.00  0.00    +0.000 C 
ATOM     22  C   UNL     1      -4.844  12.144  19.253  0.00  0.00    +0.000 C 
ATOM     23 BR   UNL     1      -6.129  12.285  20.674  0.00  0.00    +0.000 Br
ENDBRANCH  20  22
ENDBRANCH   1  20
TORSDOF 5
ENDMDL
MODEL 7
REMARK VINA RESULT:      -5.9      6.619      9.879
REMARK  Name = 
REMARK  6 active torsions:
REMARK  status: ('A' for Active; 'I' for Inactive)
REMARK    1  A    between atoms: C_2  and  C_4
REMARK    2  A    between atoms: C_4  and  N_5
REMARK    3  A    between atoms: C_11  and  C_12
REMARK    4  A    between atoms: C_19  and  C_20
REMARK    5  A    between atoms: C_20  and  O_22
REMARK    6  A    between atoms: O_22  and  C_23
REMARK                            x       y       z     vdW  Elec       q    Type
REMARK                         _______ _______ _______ _____ _____    ______ ____
ROOT
ATOM      1  N   UNL     1      -1.980  12.614  19.617  0.00  0.00    +0.000 NA
ATOM      2  C   UNL     1      -1.402  11.283  19.891  0.00  0.00    +0.000 C 
ATOM      3  C   UNL     1      -1.728  10.688  18.425  0.00  0.00    +0.000 C 
ATOM      4  C   UNL     1      -1.547  11.788  17.399  0.00  0.00    +0.000 C 
ATOM      5  C   UNL     1      -1.172  12.876  18.349  0.00  0.00    +0.000 C 
ATOM      6  C   UNL     1       0.545  12.597  18.486  0.00  0.00    +0.000 C 
ATOM      7  C   UNL     1       1.019  11.590  19.659  0.00  0.00    +0.000 C 
ATOM      8  C   UNL     1      -0.134  11.859  20.571  0.00  0.00    +0.000 C 
ENDROOT
BRANCH   7   9
ATOM      9  C   UNL     1       1.153  10.066  19.512  0.00  0.00    +0.000 A 
ATOM     10  C   UNL     1       1.095   9.169  20.581  0.00  0.00    +0.000 A 
ATOM     11  C   UNL     1       1.654   7.880  20.462  0.00  0.00    +0.000 A 
ATOM     12  C   UNL     1       2.182   7.443  19.248  0.00  0.00    +0.000 A 
ATOM     13  I   UNL     1       3.143   5.605  19.116  0.00  0.00    +0.000 I 
ATOM     14  C   UNL     1       2.088   8.254  18.130  0.00  0.00    +0.000 A 
ATOM     15  C   UNL     1       1.548   9.538  18.260  0.00  0.00    +0.000 A 
ENDBRANCH   7   9
BRANCH   8  16
ATOM     16  C   UNL     1      -0.228  11.932  22.097  0.00  0.00    +0.000 C 
ATOM     17  O   UNL     1      -0.245  11.010  22.895  0.00  0.00    +0.000 OA
BRANCH  16  18
ATOM     18  O   UNL     1      -0.274  13.267  22.431  0.00  0.00    +0.000 OA
ATOM     19  C   UNL     1       0.654  14.183  21.864  0.00  0.00    +0.000 C 
ENDBRANCH  16  18
ENDBRANCH   8  16
BRANCH   1  20
ATOM     20  C   UNL     1      -3.346  12.311  20.075  0.00  0.00    +0.000 C 
BRANCH  20  22
ATOM     21  C   UNL     1      -5.618  13.325  20.672  0.00  0.00    +0.000 C 
ATOM     22  C   UNL     1      -4.395  12.874  20.953  0.00  0.00    +0.000 C 
ATOM     23 BR   UNL     1      -3.861  12.816  22.797  0.00  0.00    +0.000 Br
ENDBRANCH  20  22
ENDBRANCH   1  20
TORSDOF 5
ENDMDL
MODEL 8
REMARK VINA RESULT:      -5.9      6.459      9.771
REMARK  Name = 
REMARK  6 active torsions:
REMARK  status: ('A' for Active; 'I' for Inactive)
REMARK    1  A    between atoms: C_2  and  C_4
REMARK    2  A    between atoms: C_4  and  N_5
REMARK    3  A    between atoms: C_11  and  C_12
REMARK    4  A    between atoms: C_19  and  C_20
REMARK    5  A    between atoms: C_20  and  O_22
REMARK    6  A    between atoms: O_22  and  C_23
REMARK                            x       y       z     vdW  Elec       q    Type
REMARK                         _______ _______ _______ _____ _____    ______ ____
ROOT
ATOM      1  N   UNL     1      -2.123  12.565  19.639  0.00  0.00    +0.000 NA
ATOM      2  C   UNL     1      -1.533  11.248  19.946  0.00  0.00    +0.000 C 
ATOM      3  C   UNL     1      -1.811  10.628  18.480  0.00  0.00    +0.000 C 
ATOM      4  C   UNL     1      -1.619  11.718  17.445  0.00  0.00    +0.000 C 
ATOM      5  C   UNL     1      -1.286  12.823  18.390  0.00  0.00    +0.000 C 
ATOM      6  C   UNL     1       0.431  12.572  18.575  0.00  0.00    +0.000 C 
ATOM      7  C   UNL     1       0.889  11.588  19.775  0.00  0.00    +0.000 C 
ATOM      8  C   UNL     1      -0.292  11.851  20.652  0.00  0.00    +0.000 C 
ENDROOT
BRANCH   7   9
ATOM      9  C   UNL     1       1.050  10.064  19.651  0.00  0.00    +0.000 A 
ATOM     10  C   UNL     1       0.944   9.178  20.725  0.00  0.00    +0.000 A 
ATOM     11  C   UNL     1       1.525   7.895  20.651  0.00  0.00    +0.000 A 
ATOM     12  C   UNL     1       2.124   7.452  19.472  0.00  0.00    +0.000 A 
ATOM     13  I   UNL     1       3.112   5.626  19.412  0.00  0.00    +0.000 I 
ATOM     14  C   UNL     1       2.080   8.251  18.342  0.00  0.00    +0.000 A 
ATOM     15  C   UNL     1       1.518   9.529  18.428  0.00  0.00    +0.000 A 
ENDBRANCH   7   9
BRANCH   8  16
ATOM     16  C   UNL     1      -0.428  11.943  22.174  0.00  0.00    +0.000 C 
ATOM     17  O   UNL     1      -0.330  11.045  22.993  0.00  0.00    +0.000 OA
BRANCH  16  18
ATOM     18  O   UNL     1      -0.671  13.264  22.474  0.00  0.00    +0.000 OA
ATOM     19  C   UNL     1       0.285  14.265  22.146  0.00  0.00    +0.000 C 
ENDBRANCH  16  18
ENDBRANCH   8  16
BRANCH   1  20
ATOM     20  C   UNL     1      -3.496  12.248  20.065  0.00  0.00    +0.000 C 
BRANCH  20  22
ATOM     21  C   UNL     1      -5.892  13.117  20.291  0.00  0.00    +0.000 C 
ATOM     22  C   UNL     1      -4.894  12.501  19.656  0.00  0.00    +0.000 C 
ATOM     23 BR   UNL     1      -5.211  11.898  17.859  0.00  0.00    +0.000 Br
ENDBRANCH  20  22
ENDBRANCH   1  20
TORSDOF 5
ENDMDL
MODEL 9
REMARK VINA RESULT:      -5.7      6.466      9.729
REMARK  Name = 
REMARK  6 active torsions:
REMARK  status: ('A' for Active; 'I' for Inactive)
REMARK    1  A    between atoms: C_2  and  C_4
REMARK    2  A    between atoms: C_4  and  N_5
REMARK    3  A    between atoms: C_11  and  C_12
REMARK    4  A    between atoms: C_19  and  C_20
REMARK    5  A    between atoms: C_20  and  O_22
REMARK    6  A    between atoms: O_22  and  C_23
REMARK                            x       y       z     vdW  Elec       q    Type
REMARK                         _______ _______ _______ _____ _____    ______ ____
ROOT
ATOM      1  N   UNL     1      -1.993  12.640  19.692  0.00  0.00    +0.000 NA
ATOM      2  C   UNL     1      -1.459  11.264  19.733  0.00  0.00    +0.000 C 
ATOM      3  C   UNL     1      -1.440  11.077  18.129  0.00  0.00    +0.000 C 
ATOM      4  C   UNL     1      -1.063  12.397  17.487  0.00  0.00    +0.000 C 
ATOM      5  C   UNL     1      -0.932  13.190  18.743  0.00  0.00    +0.000 C 
ATOM      6  C   UNL     1       0.719  12.825  19.175  0.00  0.00    +0.000 C 
ATOM      7  C   UNL     1       0.946  11.534  20.123  0.00  0.00    +0.000 C 
ATOM      8  C   UNL     1      -0.385  11.601  20.799  0.00  0.00    +0.000 C 
ENDROOT
BRANCH   7   9
ATOM      9  C   UNL     1       1.144  10.096  19.620  0.00  0.00    +0.000 A 
ATOM     10  C   UNL     1       1.113   8.968  20.444  0.00  0.00    +0.000 A 
ATOM     11  C   UNL     1       1.726   7.767  20.032  0.00  0.00    +0.000 A 
ATOM     12  C   UNL     1       2.283   7.652  18.760  0.00  0.00    +0.000 A 
ATOM     13  I   UNL     1       3.320   5.937  18.212  0.00  0.00    +0.000 I 
ATOM     14  C   UNL     1       2.166   8.702  17.865  0.00  0.00    +0.000 A 
ATOM     15  C   UNL     1       1.572   9.897  18.286  0.00  0.00    +0.000 A 
ENDBRANCH   7   9
BRANCH   8  16
ATOM     16  C   UNL     1      -0.815  11.282  22.233  0.00  0.00    +0.000 C 
ATOM     17  O   UNL     1      -1.895  11.491  22.759  0.00  0.00    +0.000 OA
BRANCH  16  18
ATOM     18  O   UNL     1       0.260  10.679  22.847  0.00  0.00    +0.000 OA
ATOM     19  C   UNL     1       0.087   9.474  23.581  0.00  0.00    +0.000 C 
ENDBRANCH  16  18
ENDBRANCH   8  16
BRANCH   1  20
ATOM     20  C   UNL     1      -3.419  12.277  19.747  0.00  0.00    +0.000 C 
BRANCH  20  22
ATOM     21  C   UNL     1      -4.791  13.242  21.680  0.00  0.00    +0.000 C 
ATOM     22  C   UNL     1      -4.636  12.591  20.527  0.00  0.00    +0.000 C 
ATOM     23 BR   UNL     1      -6.219  12.015  19.602  0.00  0.00    +0.000 Br
ENDBRANCH  20  22
ENDBRANCH   1  20
TORSDOF 5
ENDMDL
