MODEL 1
REMARK VINA RESULT:      -8.5      0.000      0.000
REMARK  Name = 
REMARK  5 active torsions:
REMARK  status: ('A' for Active; 'I' for Inactive)
REMARK    1  A    between atoms: C_12  and  N_13
REMARK    2  A    between atoms: C_12  and  C_27
REMARK    3  A    between atoms: N_13  and  C_14
REMARK    4  A    between atoms: C_17  and  C_18
REMARK    5  A    between atoms: C_18  and  N_19
REMARK                            x       y       z     vdW  Elec       q    Type
REMARK                         _______ _______ _______ _____ _____    ______ ____
ROOT
ATOM      1  O   UNL     1      -1.238   9.506  16.879  0.00  0.00    +0.000 OA
ATOM      2  C   UNL     1      -2.004  10.358  17.291  0.00  0.00    +0.000 C 
ATOM      3  N   UNL     1      -3.293  10.544  16.816  0.00  0.00    +0.000 N 
ATOM      4  C   UNL     1      -4.051  11.290  17.706  0.00  0.00    +0.000 A 
ATOM      5  C   UNL     1      -5.410  11.523  17.601  0.00  0.00    +0.000 A 
ATOM      6  C   UNL     1      -6.016  12.213  18.644  0.00  0.00    +0.000 A 
ATOM      7 CL   UNL     1      -7.715  12.490  18.604  0.00  0.00    +0.000 Cl
ATOM      8  C   UNL     1      -5.267  12.665  19.741  0.00  0.00    +0.000 A 
ATOM      9  C   UNL     1      -3.885  12.427  19.813  0.00  0.00    +0.000 A 
ATOM     10  C   UNL     1      -3.270  11.726  18.786  0.00  0.00    +0.000 A 
ATOM     11  C   UNL     1      -1.887  11.277  18.493  0.00  0.00    +0.000 C 
ATOM     12  C   UNL     1      -0.705  11.588  19.091  0.00  0.00    +0.000 C 
ATOM     13  H   UNL     1      -3.647  10.020  16.030  0.00  0.00    +0.000 HD
ENDROOT
BRANCH  12  14
ATOM     14  C   UNL     1      -0.726  12.210  20.432  0.00  0.00    +0.000 A 
ATOM     15  C   UNL     1      -0.994  11.412  21.556  0.00  0.00    +0.000 A 
ATOM     16  C   UNL     1      -1.094  11.989  22.823  0.00  0.00    +0.000 A 
ATOM     17  C   UNL     1      -0.919  13.365  22.975  0.00  0.00    +0.000 A 
ATOM     18  C   UNL     1      -0.616  14.159  21.869  0.00  0.00    +0.000 A 
ATOM     19  C   UNL     1      -0.508  13.582  20.600  0.00  0.00    +0.000 A 
ENDBRANCH  12  14
BRANCH  12  20
ATOM     20  N   UNL     1       0.587  11.362  18.636  0.00  0.00    +0.000 N 
ATOM     21  H   UNL     1       1.078  12.176  18.282  0.00  0.00    +0.000 HD
BRANCH  20  22
ATOM     22  C   UNL     1       1.356  10.189  18.780  0.00  0.00    +0.000 A 
ATOM     23  C   UNL     1       2.259   9.771  17.793  0.00  0.00    +0.000 A 
ATOM     24  C   UNL     1       2.722   8.454  17.755  0.00  0.00    +0.000 A 
ATOM     25  C   UNL     1       2.299   7.535  18.721  0.00  0.00    +0.000 A 
ATOM     26  C   UNL     1       1.532   7.994  19.800  0.00  0.00    +0.000 A 
ATOM     27  C   UNL     1       1.067   9.312  19.831  0.00  0.00    +0.000 A 
BRANCH  25  28
ATOM     28  C   UNL     1       2.487   6.052  18.496  0.00  0.00    +0.000 C 
BRANCH  28  29
ATOM     29  N   UNL     1       1.768   5.167  19.436  0.00  0.00    +0.000 NA
ATOM     30  C   UNL     1       1.292   3.969  18.727  0.00  0.00    +0.000 C 
ATOM     31  C   UNL     1       0.725   2.903  19.664  0.00  0.00    +0.000 C 
ATOM     32  C   UNL     1       1.735   2.530  20.738  0.00  0.00    +0.000 C 
ATOM     33  C   UNL     1       2.133   3.782  21.503  0.00  0.00    +0.000 C 
ATOM     34  C   UNL     1       2.676   4.848  20.553  0.00  0.00    +0.000 C 
ENDBRANCH  28  29
ENDBRANCH  25  28
ENDBRANCH  20  22
ENDBRANCH  12  20
TORSDOF 5
ENDMDL
MODEL 2
REMARK VINA RESULT:      -8.5      2.109      3.948
REMARK  Name = 
REMARK  5 active torsions:
REMARK  status: ('A' for Active; 'I' for Inactive)
REMARK    1  A    between atoms: C_12  and  N_13
REMARK    2  A    between atoms: C_12  and  C_27
REMARK    3  A    between atoms: N_13  and  C_14
REMARK    4  A    between atoms: C_17  and  C_18
REMARK    5  A    between atoms: C_18  and  N_19
REMARK                            x       y       z     vdW  Elec       q    Type
REMARK                         _______ _______ _______ _____ _____    ______ ____
ROOT
ATOM      1  O   UNL     1       1.282  13.138  21.343  0.00  0.00    +0.000 OA
ATOM      2  C   UNL     1       0.105  12.866  21.494  0.00  0.00    +0.000 C 
ATOM      3  N   UNL     1      -0.672  13.321  22.548  0.00  0.00    +0.000 N 
ATOM      4  C   UNL     1      -2.022  13.193  22.265  0.00  0.00    +0.000 A 
ATOM      5  C   UNL     1      -3.054  13.690  23.041  0.00  0.00    +0.000 A 
ATOM      6  C   UNL     1      -4.344  13.548  22.544  0.00  0.00    +0.000 A 
ATOM      7 CL   UNL     1      -5.671  14.193  23.431  0.00  0.00    +0.000 Cl
ATOM      8  C   UNL     1      -4.578  12.908  21.317  0.00  0.00    +0.000 A 
ATOM      9  C   UNL     1      -3.512  12.399  20.559  0.00  0.00    +0.000 A 
ATOM     10  C   UNL     1      -2.218  12.548  21.036  0.00  0.00    +0.000 A 
ATOM     11  C   UNL     1      -0.865  12.172  20.555  0.00  0.00    +0.000 C 
ATOM     12  C   UNL     1      -0.477  11.367  19.531  0.00  0.00    +0.000 C 
ATOM     13  H   UNL     1      -0.272  13.854  23.306  0.00  0.00    +0.000 HD
ENDROOT
BRANCH  12  14
ATOM     14  C   UNL     1      -1.463  11.014  18.487  0.00  0.00    +0.000 A 
ATOM     15  C   UNL     1      -1.676  11.896  17.416  0.00  0.00    +0.000 A 
ATOM     16  C   UNL     1      -2.655  11.620  16.460  0.00  0.00    +0.000 A 
ATOM     17  C   UNL     1      -3.421  10.459  16.565  0.00  0.00    +0.000 A 
ATOM     18  C   UNL     1      -3.190   9.559  17.606  0.00  0.00    +0.000 A 
ATOM     19  C   UNL     1      -2.205   9.829  18.560  0.00  0.00    +0.000 A 
ENDBRANCH  12  14
BRANCH  12  20
ATOM     20  N   UNL     1       0.778  10.830  19.272  0.00  0.00    +0.000 N 
ATOM     21  H   UNL     1       1.542  11.496  19.238  0.00  0.00    +0.000 HD
BRANCH  20  22
ATOM     22  C   UNL     1       1.139   9.469  19.236  0.00  0.00    +0.000 A 
ATOM     23  C   UNL     1       1.174   8.682  20.396  0.00  0.00    +0.000 A 
ATOM     24  C   UNL     1       1.880   7.477  20.424  0.00  0.00    +0.000 A 
ATOM     25  C   UNL     1       2.550   7.030  19.280  0.00  0.00    +0.000 A 
ATOM     26  C   UNL     1       2.375   7.730  18.079  0.00  0.00    +0.000 A 
ATOM     27  C   UNL     1       1.672   8.938  18.056  0.00  0.00    +0.000 A 
BRANCH  25  28
ATOM     28  C   UNL     1       3.598   5.946  19.385  0.00  0.00    +0.000 C 
BRANCH  28  29
ATOM     29  N   UNL     1       3.080   4.564  19.468  0.00  0.00    +0.000 NA
ATOM     30  C   UNL     1       2.302   4.398  20.705  0.00  0.00    +0.000 C 
ATOM     31  C   UNL     1       1.554   3.066  20.770  0.00  0.00    +0.000 C 
ATOM     32  C   UNL     1       0.670   2.880  19.546  0.00  0.00    +0.000 C 
ATOM     33  C   UNL     1       1.527   2.972  18.294  0.00  0.00    +0.000 C 
ATOM     34  C   UNL     1       2.288   4.297  18.254  0.00  0.00    +0.000 C 
ENDBRANCH  28  29
ENDBRANCH  25  28
ENDBRANCH  20  22
ENDBRANCH  12  20
TORSDOF 5
ENDMDL
MODEL 3
REMARK VINA RESULT:      -8.5      1.051      1.522
REMARK  Name = 
REMARK  5 active torsions:
REMARK  status: ('A' for Active; 'I' for Inactive)
REMARK    1  A    between atoms: C_12  and  N_13
REMARK    2  A    between atoms: C_12  and  C_27
REMARK    3  A    between atoms: N_13  and  C_14
REMARK    4  A    between atoms: C_17  and  C_18
REMARK    5  A    between atoms: C_18  and  N_19
REMARK                            x       y       z     vdW  Elec       q    Type
REMARK                         _______ _______ _______ _____ _____    ______ ____
ROOT
ATOM      1  O   UNL     1      -1.609   9.513  16.962  0.00  0.00    +0.000 OA
ATOM      2  C   UNL     1      -2.309  10.428  17.357  0.00  0.00    +0.000 C 
ATOM      3  N   UNL     1      -3.586  10.692  16.887  0.00  0.00    +0.000 N 
ATOM      4  C   UNL     1      -4.280  11.512  17.763  0.00  0.00    +0.000 A 
ATOM      5  C   UNL     1      -5.621  11.838  17.662  0.00  0.00    +0.000 A 
ATOM      6  C   UNL     1      -6.166  12.597  18.691  0.00  0.00    +0.000 A 
ATOM      7 CL   UNL     1      -7.842  12.992  18.658  0.00  0.00    +0.000 Cl
ATOM      8  C   UNL     1      -5.376  13.024  19.769  0.00  0.00    +0.000 A 
ATOM      9  C   UNL     1      -4.014  12.691  19.837  0.00  0.00    +0.000 A 
ATOM     10  C   UNL     1      -3.460  11.921  18.824  0.00  0.00    +0.000 A 
ATOM     11  C   UNL     1      -2.115  11.368  18.533  0.00  0.00    +0.000 C 
ATOM     12  C   UNL     1      -0.909  11.611  19.112  0.00  0.00    +0.000 C 
ATOM     13  H   UNL     1      -3.983  10.173  16.119  0.00  0.00    +0.000 HD
ENDROOT
BRANCH  12  14
ATOM     14  C   UNL     1      -0.872  12.268  20.436  0.00  0.00    +0.000 A 
ATOM     15  C   UNL     1      -1.228  11.533  21.579  0.00  0.00    +0.000 A 
ATOM     16  C   UNL     1      -1.274  12.152  22.828  0.00  0.00    +0.000 A 
ATOM     17  C   UNL     1      -0.958  13.506  22.945  0.00  0.00    +0.000 A 
ATOM     18  C   UNL     1      -0.568  14.234  21.820  0.00  0.00    +0.000 A 
ATOM     19  C   UNL     1      -0.513  13.615  20.569  0.00  0.00    +0.000 A 
ENDBRANCH  12  14
BRANCH  12  20
ATOM     20  N   UNL     1       0.360  11.282  18.653  0.00  0.00    +0.000 N 
ATOM     21  H   UNL     1       0.830  11.997  18.109  0.00  0.00    +0.000 HD
BRANCH  20  22
ATOM     22  C   UNL     1       1.138  10.161  19.006  0.00  0.00    +0.000 A 
ATOM     23  C   UNL     1       1.837   9.414  18.047  0.00  0.00    +0.000 A 
ATOM     24  C   UNL     1       2.279   8.120  18.330  0.00  0.00    +0.000 A 
ATOM     25  C   UNL     1       2.043   7.557  19.588  0.00  0.00    +0.000 A 
ATOM     26  C   UNL     1       1.495   8.362  20.596  0.00  0.00    +0.000 A 
ATOM     27  C   UNL     1       1.050   9.656  20.308  0.00  0.00    +0.000 A 
BRANCH  25  28
ATOM     28  C   UNL     1       2.180   6.066  19.795  0.00  0.00    +0.000 C 
BRANCH  28  29
ATOM     29  N   UNL     1       2.802   5.321  18.681  0.00  0.00    +0.000 NA
ATOM     30  C   UNL     1       4.108   4.792  19.102  0.00  0.00    +0.000 C 
ATOM     31  C   UNL     1       4.723   3.831  18.085  0.00  0.00    +0.000 C 
ATOM     32  C   UNL     1       3.763   2.699  17.757  0.00  0.00    +0.000 C 
ATOM     33  C   UNL     1       2.458   3.285  17.243  0.00  0.00    +0.000 C 
ATOM     34  C   UNL     1       1.866   4.262  18.258  0.00  0.00    +0.000 C 
ENDBRANCH  28  29
ENDBRANCH  25  28
ENDBRANCH  20  22
ENDBRANCH  12  20
TORSDOF 5
ENDMDL
MODEL 4
REMARK VINA RESULT:      -8.4      2.166      3.943
REMARK  Name = 
REMARK  5 active torsions:
REMARK  status: ('A' for Active; 'I' for Inactive)
REMARK    1  A    between atoms: C_12  and  N_13
REMARK    2  A    between atoms: C_12  and  C_27
REMARK    3  A    between atoms: N_13  and  C_14
REMARK    4  A    between atoms: C_17  and  C_18
REMARK    5  A    between atoms: C_18  and  N_19
REMARK                            x       y       z     vdW  Elec       q    Type
REMARK                         _______ _______ _______ _____ _____    ______ ____
ROOT
ATOM      1  O   UNL     1       1.893  13.020  20.419  0.00  0.00    +0.000 OA
ATOM      2  C   UNL     1       0.732  12.859  20.749  0.00  0.00    +0.000 C 
ATOM      3  N   UNL     1       0.153  13.431  21.871  0.00  0.00    +0.000 N 
ATOM      4  C   UNL     1      -1.231  13.407  21.787  0.00  0.00    +0.000 A 
ATOM      5  C   UNL     1      -2.098  14.030  22.667  0.00  0.00    +0.000 A 
ATOM      6  C   UNL     1      -3.453  13.977  22.364  0.00  0.00    +0.000 A 
ATOM      7 CL   UNL     1      -4.583  14.778  23.386  0.00  0.00    +0.000 Cl
ATOM      8  C   UNL     1      -3.911  13.302  21.222  0.00  0.00    +0.000 A 
ATOM      9  C   UNL     1      -3.008  12.666  20.354  0.00  0.00    +0.000 A 
ATOM     10  C   UNL     1      -1.651  12.724  20.637  0.00  0.00    +0.000 A 
ATOM     11  C   UNL     1      -0.416  12.209  19.997  0.00  0.00    +0.000 C 
ATOM     12  C   UNL     1      -0.244  11.324  18.979  0.00  0.00    +0.000 C 
ATOM     13  H   UNL     1       0.698  13.963  22.533  0.00  0.00    +0.000 HD
ENDROOT
BRANCH  12  14
ATOM     14  C   UNL     1      -1.394  11.009  18.105  0.00  0.00    +0.000 A 
ATOM     15  C   UNL     1      -2.164   9.864  18.367  0.00  0.00    +0.000 A 
ATOM     16  C   UNL     1      -3.207   9.505  17.512  0.00  0.00    +0.000 A 
ATOM     17  C   UNL     1      -3.492  10.291  16.395  0.00  0.00    +0.000 A 
ATOM     18  C   UNL     1      -2.755  11.450  16.148  0.00  0.00    +0.000 A 
ATOM     19  C   UNL     1      -1.715  11.816  17.007  0.00  0.00    +0.000 A 
ENDBRANCH  12  14
BRANCH  12  20
ATOM     20  N   UNL     1       0.914  10.668  18.580  0.00  0.00    +0.000 N 
ATOM     21  H   UNL     1       1.658  11.263  18.230  0.00  0.00    +0.000 HD
BRANCH  20  22
ATOM     22  C   UNL     1       1.244   9.312  18.776  0.00  0.00    +0.000 A 
ATOM     23  C   UNL     1       1.231   8.724  20.048  0.00  0.00    +0.000 A 
ATOM     24  C   UNL     1       1.907   7.526  20.292  0.00  0.00    +0.000 A 
ATOM     25  C   UNL     1       2.595   6.887  19.255  0.00  0.00    +0.000 A 
ATOM     26  C   UNL     1       2.467   7.385  17.952  0.00  0.00    +0.000 A 
ATOM     27  C   UNL     1       1.793   8.587  17.713  0.00  0.00    +0.000 A 
BRANCH  25  28
ATOM     28  C   UNL     1       3.614   5.814  19.564  0.00  0.00    +0.000 C 
BRANCH  28  29
ATOM     29  N   UNL     1       3.081   4.440  19.673  0.00  0.00    +0.000 NA
ATOM     30  C   UNL     1       2.073   4.379  20.743  0.00  0.00    +0.000 C 
ATOM     31  C   UNL     1       1.319   3.051  20.783  0.00  0.00    +0.000 C 
ATOM     32  C   UNL     1       0.691   2.742  19.433  0.00  0.00    +0.000 C 
ATOM     33  C   UNL     1       1.778   2.728  18.370  0.00  0.00    +0.000 C 
ATOM     34  C   UNL     1       2.540   4.052  18.357  0.00  0.00    +0.000 C 
ENDBRANCH  28  29
ENDBRANCH  25  28
ENDBRANCH  20  22
ENDBRANCH  12  20
TORSDOF 5
ENDMDL
MODEL 5
REMARK VINA RESULT:      -8.3      0.679      1.380
REMARK  Name = 
REMARK  5 active torsions:
REMARK  status: ('A' for Active; 'I' for Inactive)
REMARK    1  A    between atoms: C_12  and  N_13
REMARK    2  A    between atoms: C_12  and  C_27
REMARK    3  A    between atoms: N_13  and  C_14
REMARK    4  A    between atoms: C_17  and  C_18
REMARK    5  A    between atoms: C_18  and  N_19
REMARK                            x       y       z     vdW  Elec       q    Type
REMARK                         _______ _______ _______ _____ _____    ______ ____
ROOT
ATOM      1  O   UNL     1      -1.750   9.484  17.163  0.00  0.00    +0.000 OA
ATOM      2  C   UNL     1      -2.396  10.451  17.526  0.00  0.00    +0.000 C 
ATOM      3  N   UNL     1      -3.612  10.828  16.978  0.00  0.00    +0.000 N 
ATOM      4  C   UNL     1      -4.292  11.694  17.819  0.00  0.00    +0.000 A 
ATOM      5  C   UNL     1      -5.591  12.134  17.636  0.00  0.00    +0.000 A 
ATOM      6  C   UNL     1      -6.139  12.924  18.639  0.00  0.00    +0.000 A 
ATOM      7 CL   UNL     1      -7.769  13.460  18.502  0.00  0.00    +0.000 Cl
ATOM      8  C   UNL     1      -5.390  13.270  19.775  0.00  0.00    +0.000 A 
ATOM      9  C   UNL     1      -4.069  12.822  19.927  0.00  0.00    +0.000 A 
ATOM     10  C   UNL     1      -3.514  12.019  18.940  0.00  0.00    +0.000 A 
ATOM     11  C   UNL     1      -2.203  11.358  18.729  0.00  0.00    +0.000 C 
ATOM     12  C   UNL     1      -1.023  11.490  19.390  0.00  0.00    +0.000 C 
ATOM     13  H   UNL     1      -3.999  10.353  16.176  0.00  0.00    +0.000 HD
ENDROOT
BRANCH  12  14
ATOM     14  C   UNL     1      -1.021  12.126  20.726  0.00  0.00    +0.000 A 
ATOM     15  C   UNL     1      -1.377  11.365  21.851  0.00  0.00    +0.000 A 
ATOM     16  C   UNL     1      -1.456  11.963  23.109  0.00  0.00    +0.000 A 
ATOM     17  C   UNL     1      -1.172  13.321  23.253  0.00  0.00    +0.000 A 
ATOM     18  C   UNL     1      -0.782  14.076  22.145  0.00  0.00    +0.000 A 
ATOM     19  C   UNL     1      -0.695  13.478  20.885  0.00  0.00    +0.000 A 
ENDBRANCH  12  14
BRANCH  12  20
ATOM     20  N   UNL     1       0.242  11.060  19.012  0.00  0.00    +0.000 N 
ATOM     21  H   UNL     1       0.927  11.792  18.856  0.00  0.00    +0.000 HD
BRANCH  20  22
ATOM     22  C   UNL     1       0.732   9.739  18.998  0.00  0.00    +0.000 A 
ATOM     23  C   UNL     1       0.801   8.964  20.165  0.00  0.00    +0.000 A 
ATOM     24  C   UNL     1       1.617   7.831  20.226  0.00  0.00    +0.000 A 
ATOM     25  C   UNL     1       2.365   7.446  19.109  0.00  0.00    +0.000 A 
ATOM     26  C   UNL     1       2.166   8.120  17.897  0.00  0.00    +0.000 A 
ATOM     27  C   UNL     1       1.352   9.256  17.841  0.00  0.00    +0.000 A 
BRANCH  25  28
ATOM     28  C   UNL     1       3.507   6.466  19.257  0.00  0.00    +0.000 C 
BRANCH  28  29
ATOM     29  N   UNL     1       3.117   5.046  19.385  0.00  0.00    +0.000 NA
ATOM     30  C   UNL     1       2.529   4.808  20.712  0.00  0.00    +0.000 C 
ATOM     31  C   UNL     1       1.905   3.420  20.852  0.00  0.00    +0.000 C 
ATOM     32  C   UNL     1       0.882   3.171  19.755  0.00  0.00    +0.000 C 
ATOM     33  C   UNL     1       1.551   3.341  18.401  0.00  0.00    +0.000 C 
ATOM     34  C   UNL     1       2.192   4.723  18.283  0.00  0.00    +0.000 C 
ENDBRANCH  28  29
ENDBRANCH  25  28
ENDBRANCH  20  22
ENDBRANCH  12  20
TORSDOF 5
ENDMDL
MODEL 6
REMARK VINA RESULT:      -8.3      2.243      3.915
REMARK  Name = 
REMARK  5 active torsions:
REMARK  status: ('A' for Active; 'I' for Inactive)
REMARK    1  A    between atoms: C_12  and  N_13
REMARK    2  A    between atoms: C_12  and  C_27
REMARK    3  A    between atoms: N_13  and  C_14
REMARK    4  A    between atoms: C_17  and  C_18
REMARK    5  A    between atoms: C_18  and  N_19
REMARK                            x       y       z     vdW  Elec       q    Type
REMARK                         _______ _______ _______ _____ _____    ______ ____
ROOT
ATOM      1  O   UNL     1       1.250  13.515  21.060  0.00  0.00    +0.000 OA
ATOM      2  C   UNL     1       0.080  13.232  21.240  0.00  0.00    +0.000 C 
ATOM      3  N   UNL     1      -0.705  13.762  22.252  0.00  0.00    +0.000 N 
ATOM      4  C   UNL     1      -2.053  13.579  21.986  0.00  0.00    +0.000 A 
ATOM      5  C   UNL     1      -3.095  14.121  22.718  0.00  0.00    +0.000 A 
ATOM      6  C   UNL     1      -4.382  13.906  22.241  0.00  0.00    +0.000 A 
ATOM      7 CL   UNL     1      -5.721  14.599  23.072  0.00  0.00    +0.000 Cl
ATOM      8  C   UNL     1      -4.604  13.155  21.077  0.00  0.00    +0.000 A 
ATOM      9  C   UNL     1      -3.528  12.604  20.363  0.00  0.00    +0.000 A 
ATOM     10  C   UNL     1      -2.237  12.823  20.820  0.00  0.00    +0.000 A 
ATOM     11  C   UNL     1      -0.877  12.436  20.370  0.00  0.00    +0.000 C 
ATOM     12  C   UNL     1      -0.472  11.552  19.420  0.00  0.00    +0.000 C 
ATOM     13  H   UNL     1      -0.316  14.369  22.958  0.00  0.00    +0.000 HD
ENDROOT
BRANCH  12  14
ATOM     14  C   UNL     1      -1.452  11.086  18.415  0.00  0.00    +0.000 A 
ATOM     15  C   UNL     1      -1.678  11.858  17.264  0.00  0.00    +0.000 A 
ATOM     16  C   UNL     1      -2.651  11.478  16.340  0.00  0.00    +0.000 A 
ATOM     17  C   UNL     1      -3.400  10.320  16.556  0.00  0.00    +0.000 A 
ATOM     18  C   UNL     1      -3.156   9.528  17.678  0.00  0.00    +0.000 A 
ATOM     19  C   UNL     1      -2.176   9.902  18.601  0.00  0.00    +0.000 A 
ENDBRANCH  12  14
BRANCH  12  20
ATOM     20  N   UNL     1       0.793  11.023  19.204  0.00  0.00    +0.000 N 
ATOM     21  H   UNL     1       1.564  11.676  19.292  0.00  0.00    +0.000 HD
BRANCH  20  22
ATOM     22  C   UNL     1       1.144   9.665  19.065  0.00  0.00    +0.000 A 
ATOM     23  C   UNL     1       1.208   8.800  20.166  0.00  0.00    +0.000 A 
ATOM     24  C   UNL     1       1.906   7.593  20.091  0.00  0.00    +0.000 A 
ATOM     25  C   UNL     1       2.539   7.222  18.900  0.00  0.00    +0.000 A 
ATOM     26  C   UNL     1       2.333   8.003  17.754  0.00  0.00    +0.000 A 
ATOM     27  C   UNL     1       1.638   9.214  17.836  0.00  0.00    +0.000 A 
BRANCH  25  28
ATOM     28  C   UNL     1       3.582   6.128  18.898  0.00  0.00    +0.000 C 
BRANCH  28  29
ATOM     29  N   UNL     1       3.076   4.764  19.158  0.00  0.00    +0.000 NA
ATOM     30  C   UNL     1       2.101   4.388  18.122  0.00  0.00    +0.000 C 
ATOM     31  C   UNL     1       1.688   2.918  18.191  0.00  0.00    +0.000 C 
ATOM     32  C   UNL     1       2.906   2.009  18.141  0.00  0.00    +0.000 C 
ATOM     33  C   UNL     1       3.846   2.372  19.279  0.00  0.00    +0.000 C 
ATOM     34  C   UNL     1       4.232   3.849  19.213  0.00  0.00    +0.000 C 
ENDBRANCH  28  29
ENDBRANCH  25  28
ENDBRANCH  20  22
ENDBRANCH  12  20
TORSDOF 5
ENDMDL
MODEL 7
REMARK VINA RESULT:      -8.3      2.634      4.457
REMARK  Name = 
REMARK  5 active torsions:
REMARK  status: ('A' for Active; 'I' for Inactive)
REMARK    1  A    between atoms: C_12  and  N_13
REMARK    2  A    between atoms: C_12  and  C_27
REMARK    3  A    between atoms: N_13  and  C_14
REMARK    4  A    between atoms: C_17  and  C_18
REMARK    5  A    between atoms: C_18  and  N_19
REMARK                            x       y       z     vdW  Elec       q    Type
REMARK                         _______ _______ _______ _____ _____    ______ ____
ROOT
ATOM      1  O   UNL     1       1.192  13.201  21.469  0.00  0.00    +0.000 OA
ATOM      2  C   UNL     1       0.021  12.898  21.607  0.00  0.00    +0.000 C 
ATOM      3  N   UNL     1      -0.770  13.305  22.669  0.00  0.00    +0.000 N 
ATOM      4  C   UNL     1      -2.117  13.154  22.376  0.00  0.00    +0.000 A 
ATOM      5  C   UNL     1      -3.163  13.606  23.160  0.00  0.00    +0.000 A 
ATOM      6  C   UNL     1      -4.447  13.448  22.654  0.00  0.00    +0.000 A 
ATOM      7 CL   UNL     1      -5.792  14.037  23.552  0.00  0.00    +0.000 Cl
ATOM      8  C   UNL     1      -4.661  12.838  21.408  0.00  0.00    +0.000 A 
ATOM      9  C   UNL     1      -3.581  12.375  20.641  0.00  0.00    +0.000 A 
ATOM     10  C   UNL     1      -2.292  12.540  21.128  0.00  0.00    +0.000 A 
ATOM     11  C   UNL     1      -0.929  12.209  20.644  0.00  0.00    +0.000 C 
ATOM     12  C   UNL     1      -0.518  11.442  19.600  0.00  0.00    +0.000 C 
ATOM     13  H   UNL     1      -0.387  13.825  23.444  0.00  0.00    +0.000 HD
ENDROOT
BRANCH  12  14
ATOM     14  C   UNL     1      -1.491  11.096  18.541  0.00  0.00    +0.000 A 
ATOM     15  C   UNL     1      -2.223   9.902  18.642  0.00  0.00    +0.000 A 
ATOM     16  C   UNL     1      -3.090   9.518  17.619  0.00  0.00    +0.000 A 
ATOM     17  C   UNL     1      -3.238  10.328  16.493  0.00  0.00    +0.000 A 
ATOM     18  C   UNL     1      -2.542  11.534  16.401  0.00  0.00    +0.000 A 
ATOM     19  C   UNL     1      -1.679  11.925  17.428  0.00  0.00    +0.000 A 
ENDBRANCH  12  14
BRANCH  12  20
ATOM     20  N   UNL     1       0.750  10.942  19.331  0.00  0.00    +0.000 N 
ATOM     21  H   UNL     1       1.510  11.611  19.398  0.00  0.00    +0.000 HD
BRANCH  20  22
ATOM     22  C   UNL     1       1.123   9.594  19.162  0.00  0.00    +0.000 A 
ATOM     23  C   UNL     1       1.186   8.702  20.242  0.00  0.00    +0.000 A 
ATOM     24  C   UNL     1       1.903   7.508  20.145  0.00  0.00    +0.000 A 
ATOM     25  C   UNL     1       2.557   7.178  18.954  0.00  0.00    +0.000 A 
ATOM     26  C   UNL     1       2.356   7.985  17.826  0.00  0.00    +0.000 A 
ATOM     27  C   UNL     1       1.640   9.182  17.929  0.00  0.00    +0.000 A 
BRANCH  25  28
ATOM     28  C   UNL     1       3.617   6.100  18.939  0.00  0.00    +0.000 C 
BRANCH  28  29
ATOM     29  N   UNL     1       4.324   5.917  17.655  0.00  0.00    +0.000 NA
ATOM     30  C   UNL     1       5.744   6.267  17.813  0.00  0.00    +0.000 C 
ATOM     31  C   UNL     1       6.591   5.904  16.594  0.00  0.00    +0.000 C 
ATOM     32  C   UNL     1       6.434   4.434  16.240  0.00  0.00    +0.000 C 
ATOM     33  C   UNL     1       4.963   4.134  15.999  0.00  0.00    +0.000 C 
ATOM     34  C   UNL     1       4.124   4.523  17.215  0.00  0.00    +0.000 C 
ENDBRANCH  28  29
ENDBRANCH  25  28
ENDBRANCH  20  22
ENDBRANCH  12  20
TORSDOF 5
ENDMDL
MODEL 8
REMARK VINA RESULT:      -8.2      1.774      2.642
REMARK  Name = 
REMARK  5 active torsions:
REMARK  status: ('A' for Active; 'I' for Inactive)
REMARK    1  A    between atoms: C_12  and  N_13
REMARK    2  A    between atoms: C_12  and  C_27
REMARK    3  A    between atoms: N_13  and  C_14
REMARK    4  A    between atoms: C_17  and  C_18
REMARK    5  A    between atoms: C_18  and  N_19
REMARK                            x       y       z     vdW  Elec       q    Type
REMARK                         _______ _______ _______ _____ _____    ______ ____
ROOT
ATOM      1  O   UNL     1      -1.391   9.391  16.927  0.00  0.00    +0.000 OA
ATOM      2  C   UNL     1      -2.075  10.322  17.315  0.00  0.00    +0.000 C 
ATOM      3  N   UNL     1      -3.280  10.696  16.743  0.00  0.00    +0.000 N 
ATOM      4  C   UNL     1      -4.012  11.501  17.602  0.00  0.00    +0.000 A 
ATOM      5  C   UNL     1      -5.315  11.917  17.394  0.00  0.00    +0.000 A 
ATOM      6  C   UNL     1      -5.918  12.642  18.416  0.00  0.00    +0.000 A 
ATOM      7 CL   UNL     1      -7.556  13.143  18.247  0.00  0.00    +0.000 Cl
ATOM      8  C   UNL     1      -5.219  12.947  19.593  0.00  0.00    +0.000 A 
ATOM      9  C   UNL     1      -3.892  12.525  19.770  0.00  0.00    +0.000 A 
ATOM     10  C   UNL     1      -3.283  11.788  18.764  0.00  0.00    +0.000 A 
ATOM     11  C   UNL     1      -1.948  11.170  18.568  0.00  0.00    +0.000 C 
ATOM     12  C   UNL     1      -0.795  11.298  19.277  0.00  0.00    +0.000 C 
ATOM     13  H   UNL     1      -3.626  10.254  15.905  0.00  0.00    +0.000 HD
ENDROOT
BRANCH  12  14
ATOM     14  C   UNL     1      -0.856  11.864  20.642  0.00  0.00    +0.000 A 
ATOM     15  C   UNL     1      -1.211  11.034  21.717  0.00  0.00    +0.000 A 
ATOM     16  C   UNL     1      -1.349  11.563  23.001  0.00  0.00    +0.000 A 
ATOM     17  C   UNL     1      -1.127  12.922  23.220  0.00  0.00    +0.000 A 
ATOM     18  C   UNL     1      -0.739  13.747  22.164  0.00  0.00    +0.000 A 
ATOM     19  C   UNL     1      -0.592  13.219  20.878  0.00  0.00    +0.000 A 
ENDBRANCH  12  14
BRANCH  12  20
ATOM     20  N   UNL     1       0.493  10.919  18.923  0.00  0.00    +0.000 N 
ATOM     21  H   UNL     1       1.167  11.673  18.846  0.00  0.00    +0.000 HD
BRANCH  20  22
ATOM     22  C   UNL     1       1.012   9.611  18.842  0.00  0.00    +0.000 A 
ATOM     23  C   UNL     1       1.099   8.779  19.967  0.00  0.00    +0.000 A 
ATOM     24  C   UNL     1       1.939   7.663  19.971  0.00  0.00    +0.000 A 
ATOM     25  C   UNL     1       2.696   7.353  18.836  0.00  0.00    +0.000 A 
ATOM     26  C   UNL     1       2.483   8.085  17.660  0.00  0.00    +0.000 A 
ATOM     27  C   UNL     1       1.644   9.203  17.663  0.00  0.00    +0.000 A 
BRANCH  25  28
ATOM     28  C   UNL     1       3.860   6.392  18.935  0.00  0.00    +0.000 C 
BRANCH  28  29
ATOM     29  N   UNL     1       4.573   6.121  17.670  0.00  0.00    +0.000 NA
ATOM     30  C   UNL     1       6.020   6.302  17.866  0.00  0.00    +0.000 C 
ATOM     31  C   UNL     1       6.851   5.837  16.670  0.00  0.00    +0.000 C 
ATOM     32  C   UNL     1       6.530   4.393  16.314  0.00  0.00    +0.000 C 
ATOM     33  C   UNL     1       5.041   4.269  16.034  0.00  0.00    +0.000 C 
ATOM     34  C   UNL     1       4.222   4.760  17.227  0.00  0.00    +0.000 C 
ENDBRANCH  28  29
ENDBRANCH  25  28
ENDBRANCH  20  22
ENDBRANCH  12  20
TORSDOF 5
ENDMDL
MODEL 9
REMARK VINA RESULT:      -8.1      2.677      4.591
REMARK  Name = 
REMARK  5 active torsions:
REMARK  status: ('A' for Active; 'I' for Inactive)
REMARK    1  A    between atoms: C_12  and  N_13
REMARK    2  A    between atoms: C_12  and  C_27
REMARK    3  A    between atoms: N_13  and  C_14
REMARK    4  A    between atoms: C_17  and  C_18
REMARK    5  A    between atoms: C_18  and  N_19
REMARK                            x       y       z     vdW  Elec       q    Type
REMARK                         _______ _______ _______ _____ _____    ______ ____
ROOT
ATOM      1  O   UNL     1       1.669  13.198  21.090  0.00  0.00    +0.000 OA
ATOM      2  C   UNL     1       0.490  12.978  21.300  0.00  0.00    +0.000 C 
ATOM      3  N   UNL     1      -0.230  13.524  22.352  0.00  0.00    +0.000 N 
ATOM      4  C   UNL     1      -1.594  13.429  22.127  0.00  0.00    +0.000 A 
ATOM      5  C   UNL     1      -2.578  14.009  22.907  0.00  0.00    +0.000 A 
ATOM      6  C   UNL     1      -3.890  13.885  22.468  0.00  0.00    +0.000 A 
ATOM      7 CL   UNL     1      -5.158  14.630  23.362  0.00  0.00    +0.000 Cl
ATOM      8  C   UNL     1      -4.193  13.182  21.291  0.00  0.00    +0.000 A 
ATOM      9  C   UNL     1      -3.175  12.590  20.527  0.00  0.00    +0.000 A 
ATOM     10  C   UNL     1      -1.859  12.720  20.946  0.00  0.00    +0.000 A 
ATOM     11  C   UNL     1      -0.540  12.267  20.441  0.00  0.00    +0.000 C 
ATOM     12  C   UNL     1      -0.219  11.388  19.454  0.00  0.00    +0.000 C 
ATOM     13  H   UNL     1       0.217  14.086  23.061  0.00  0.00    +0.000 HD
ENDROOT
BRANCH  12  14
ATOM     14  C   UNL     1      -1.256  11.010  18.470  0.00  0.00    +0.000 A 
ATOM     15  C   UNL     1      -1.516  11.860  17.383  0.00  0.00    +0.000 A 
ATOM     16  C   UNL     1      -2.541  11.562  16.485  0.00  0.00    +0.000 A 
ATOM     17  C   UNL     1      -3.307  10.410  16.662  0.00  0.00    +0.000 A 
ATOM     18  C   UNL     1      -3.032   9.541  17.719  0.00  0.00    +0.000 A 
ATOM     19  C   UNL     1      -2.000   9.833  18.616  0.00  0.00    +0.000 A 
ENDBRANCH  12  14
BRANCH  12  20
ATOM     20  N   UNL     1       1.006  10.792  19.183  0.00  0.00    +0.000 N 
ATOM     21  H   UNL     1       1.807  11.414  19.180  0.00  0.00    +0.000 HD
BRANCH  20  22
ATOM     22  C   UNL     1       1.290   9.414  19.096  0.00  0.00    +0.000 A 
ATOM     23  C   UNL     1       1.327   8.594  20.232  0.00  0.00    +0.000 A 
ATOM     24  C   UNL     1       1.966   7.352  20.199  0.00  0.00    +0.000 A 
ATOM     25  C   UNL     1       2.564   6.903  19.018  0.00  0.00    +0.000 A 
ATOM     26  C   UNL     1       2.381   7.645  17.843  0.00  0.00    +0.000 A 
ATOM     27  C   UNL     1       1.744   8.889  17.881  0.00  0.00    +0.000 A 
BRANCH  25  28
ATOM     28  C   UNL     1       3.554   5.760  19.050  0.00  0.00    +0.000 C 
BRANCH  28  29
ATOM     29  N   UNL     1       4.778   5.952  18.245  0.00  0.00    +0.000 NA
ATOM     30  C   UNL     1       5.959   5.568  19.033  0.00  0.00    +0.000 C 
ATOM     31  C   UNL     1       7.245   5.532  18.209  0.00  0.00    +0.000 C 
ATOM     32  C   UNL     1       7.089   4.629  16.996  0.00  0.00    +0.000 C 
ATOM     33  C   UNL     1       5.913   5.113  16.162  0.00  0.00    +0.000 C 
ATOM     34  C   UNL     1       4.638   5.168  17.004  0.00  0.00    +0.000 C 
ENDBRANCH  28  29
ENDBRANCH  25  28
ENDBRANCH  20  22
ENDBRANCH  12  20
TORSDOF 5
ENDMDL
