MODEL 1
REMARK VINA RESULT:      -8.7      0.000      0.000
REMARK  Name = 
REMARK  5 active torsions:
REMARK  status: ('A' for Active; 'I' for Inactive)
REMARK    1  A    between atoms: C_2  and  C_27
REMARK    2  A    between atoms: N_3  and  C_4
REMARK    3  A    between atoms: C_7  and  C_8
REMARK    4  A    between atoms: C_8  and  C_9
REMARK    5  A    between atoms: C_9  and  N_10
REMARK                            x       y       z     vdW  Elec       q    Type
REMARK                         _______ _______ _______ _____ _____    ______ ____
ROOT
ATOM      1  C   UNL     1       8.297   8.600  18.591  0.00  0.00    +0.000 C 
ENDROOT
BRANCH   1   5
ATOM      2  C   UNL     1       9.154  12.861  18.562  0.00  0.00    +0.000 C 
ATOM      3  C   UNL     1       8.394  12.301  17.359  0.00  0.00    +0.000 C 
ATOM      4  C   UNL     1       7.808  10.933  17.689  0.00  0.00    +0.000 C 
ATOM      5  C   UNL     1       8.896   9.949  18.152  0.00  0.00    +0.000 C 
ATOM      6  C   UNL     1       9.721  10.538  19.313  0.00  0.00    +0.000 C 
ATOM      7  C   UNL     1      10.279  11.914  18.978  0.00  0.00    +0.000 C 
BRANCH   2  10
ATOM      8  O   UNL     1       7.821  15.348  18.880  0.00  0.00    +0.000 OA
ATOM      9  C   UNL     1       8.973  15.327  18.451  0.00  0.00    +0.000 C 
ATOM     10  N   UNL     1       9.682  14.166  18.247  0.00  0.00    +0.000 N 
ATOM     11  H   UNL     1      10.676  14.242  18.088  0.00  0.00    +0.000 HD
BRANCH   9  12
ATOM     12  C   UNL     1       9.702  16.522  18.108  0.00  0.00    +0.000 A 
ATOM     13  C   UNL     1       9.313  17.854  18.087  0.00  0.00    +0.000 A 
ATOM     14  C   UNL     1      10.428  18.631  17.692  0.00  0.00    +0.000 A 
ATOM     15  C   UNL     1      11.473  17.767  17.489  0.00  0.00    +0.000 A 
ATOM     16  N   UNL     1      11.030  16.494  17.745  0.00  0.00    +0.000 N 
ATOM     17  H   UNL     1      11.580  15.645  17.690  0.00  0.00    +0.000 HD
ENDBRANCH   9  12
ENDBRANCH   2  10
ENDBRANCH   1   5
BRANCH   1  18
ATOM     18  C   UNL     1       7.607   7.790  17.478  0.00  0.00    +0.000 C 
BRANCH  18  19
ATOM     19  N   UNL     1       7.865   6.344  17.533  0.00  0.00    +0.000 NA
ATOM     20  C   UNL     1       7.377   5.711  18.776  0.00  0.00    +0.000 C 
ATOM     21  C   UNL     1       5.848   5.660  18.893  0.00  0.00    +0.000 C 
ATOM     22  N   UNL     1       5.259   4.981  17.740  0.00  0.00    +0.000 N 
ATOM     23  C   UNL     1       4.148   4.193  17.850  0.00  0.00    +0.000 A 
ATOM     24  N   UNL     1       3.935   3.150  17.050  0.00  0.00    +0.000 NA
ATOM     25  S   UNL     1       2.610   2.316  17.562  0.00  0.00    +0.000 S 
ATOM     26  C   UNL     1       2.188   3.382  18.839  0.00  0.00    +0.000 A 
ATOM     27  C   UNL     1       1.118   3.313  19.747  0.00  0.00    +0.000 A 
ATOM     28  C   UNL     1       0.984   4.329  20.697  0.00  0.00    +0.000 A 
ATOM     29  C   UNL     1       1.868   5.391  20.732  0.00  0.00    +0.000 A 
ATOM     30  C   UNL     1       2.914   5.452  19.814  0.00  0.00    +0.000 A 
ATOM     31  C   UNL     1       3.122   4.420  18.860  0.00  0.00    +0.000 A 
ATOM     32  C   UNL     1       5.704   5.449  16.424  0.00  0.00    +0.000 C 
ATOM     33  C   UNL     1       7.244   5.631  16.384  0.00  0.00    +0.000 C 
ENDBRANCH  18  19
ENDBRANCH   1  18
TORSDOF 5
ENDMDL
MODEL 2
REMARK VINA RESULT:      -8.6      1.011      1.359
REMARK  Name = 
REMARK  5 active torsions:
REMARK  status: ('A' for Active; 'I' for Inactive)
REMARK    1  A    between atoms: C_2  and  C_27
REMARK    2  A    between atoms: N_3  and  C_4
REMARK    3  A    between atoms: C_7  and  C_8
REMARK    4  A    between atoms: C_8  and  C_9
REMARK    5  A    between atoms: C_9  and  N_10
REMARK                            x       y       z     vdW  Elec       q    Type
REMARK                         _______ _______ _______ _____ _____    ______ ____
ROOT
ATOM      1  C   UNL     1       8.741   8.528  18.810  0.00  0.00    +0.000 C 
ENDROOT
BRANCH   1   5
ATOM      2  C   UNL     1       9.797  12.724  18.400  0.00  0.00    +0.000 C 
ATOM      3  C   UNL     1       9.827  12.139  19.812  0.00  0.00    +0.000 C 
ATOM      4  C   UNL     1       9.853  10.616  19.757  0.00  0.00    +0.000 C 
ATOM      5  C   UNL     1       8.661  10.058  18.962  0.00  0.00    +0.000 C 
ATOM      6  C   UNL     1       8.575  10.701  17.565  0.00  0.00    +0.000 C 
ATOM      7  C   UNL     1       8.573  12.223  17.634  0.00  0.00    +0.000 C 
BRANCH   2  10
ATOM      8  O   UNL     1      11.425  14.483  16.878  0.00  0.00    +0.000 OA
ATOM      9  C   UNL     1      10.609  14.946  17.673  0.00  0.00    +0.000 C 
ATOM     10  N   UNL     1       9.798  14.165  18.463  0.00  0.00    +0.000 N 
ATOM     11  H   UNL     1       9.025  14.612  18.934  0.00  0.00    +0.000 HD
BRANCH   9  12
ATOM     12  C   UNL     1      10.422  16.362  17.867  0.00  0.00    +0.000 A 
ATOM     13  C   UNL     1      10.048  17.088  18.988  0.00  0.00    +0.000 A 
ATOM     14  C   UNL     1      10.032  18.459  18.638  0.00  0.00    +0.000 A 
ATOM     15  C   UNL     1      10.404  18.546  17.321  0.00  0.00    +0.000 A 
ATOM     16  N   UNL     1      10.641  17.276  16.861  0.00  0.00    +0.000 N 
ATOM     17  H   UNL     1      10.942  17.024  15.926  0.00  0.00    +0.000 HD
ENDBRANCH   9  12
ENDBRANCH   2  10
ENDBRANCH   1   5
BRANCH   1  18
ATOM     18  C   UNL     1       7.688   7.901  17.878  0.00  0.00    +0.000 C 
BRANCH  18  19
ATOM     19  N   UNL     1       7.893   6.469  17.610  0.00  0.00    +0.000 NA
ATOM     20  C   UNL     1       7.476   5.601  18.731  0.00  0.00    +0.000 C 
ATOM     21  C   UNL     1       5.960   5.562  18.962  0.00  0.00    +0.000 C 
ATOM     22  N   UNL     1       5.258   5.153  17.747  0.00  0.00    +0.000 N 
ATOM     23  C   UNL     1       4.128   4.385  17.783  0.00  0.00    +0.000 A 
ATOM     24  N   UNL     1       3.813   3.539  16.805  0.00  0.00    +0.000 NA
ATOM     25  S   UNL     1       2.499   2.646  17.242  0.00  0.00    +0.000 S 
ATOM     26  C   UNL     1       2.219   3.430  18.742  0.00  0.00    +0.000 A 
ATOM     27  C   UNL     1       1.220   3.196  19.702  0.00  0.00    +0.000 A 
ATOM     28  C   UNL     1       1.200   3.993  20.850  0.00  0.00    +0.000 A 
ATOM     29  C   UNL     1       2.125   5.004  21.031  0.00  0.00    +0.000 A 
ATOM     30  C   UNL     1       3.100   5.232  20.061  0.00  0.00    +0.000 A 
ATOM     31  C   UNL     1       3.192   4.418  18.901  0.00  0.00    +0.000 A 
ATOM     32  C   UNL     1       5.619   5.876  16.524  0.00  0.00    +0.000 C 
ATOM     33  C   UNL     1       7.157   6.028  16.394  0.00  0.00    +0.000 C 
ENDBRANCH  18  19
ENDBRANCH   1  18
TORSDOF 5
ENDMDL
MODEL 3
REMARK VINA RESULT:      -7.8      1.784      2.055
REMARK  Name = 
REMARK  5 active torsions:
REMARK  status: ('A' for Active; 'I' for Inactive)
REMARK    1  A    between atoms: C_2  and  C_27
REMARK    2  A    between atoms: N_3  and  C_4
REMARK    3  A    between atoms: C_7  and  C_8
REMARK    4  A    between atoms: C_8  and  C_9
REMARK    5  A    between atoms: C_9  and  N_10
REMARK                            x       y       z     vdW  Elec       q    Type
REMARK                         _______ _______ _______ _____ _____    ______ ____
ROOT
ATOM      1  C   UNL     1       8.449   8.991  17.562  0.00  0.00    +0.000 C 
ENDROOT
BRANCH   1   5
ATOM      2  C   UNL     1       9.824  12.667  19.431  0.00  0.00    +0.000 C 
ATOM      3  C   UNL     1       9.659  11.449  20.340  0.00  0.00    +0.000 C 
ATOM      4  C   UNL     1       9.588  10.172  19.513  0.00  0.00    +0.000 C 
ATOM      5  C   UNL     1       8.456  10.232  18.474  0.00  0.00    +0.000 C 
ATOM      6  C   UNL     1       8.567  11.499  17.603  0.00  0.00    +0.000 C 
ATOM      7  C   UNL     1       8.661  12.765  18.444  0.00  0.00    +0.000 C 
BRANCH   2  10
ATOM      8  O   UNL     1      11.069  15.105  18.678  0.00  0.00    +0.000 OA
ATOM      9  C   UNL     1      10.522  15.017  19.775  0.00  0.00    +0.000 C 
ATOM     10  N   UNL     1       9.914  13.867  20.226  0.00  0.00    +0.000 N 
ATOM     11  H   UNL     1       9.320  13.935  21.039  0.00  0.00    +0.000 HD
BRANCH   9  12
ATOM     12  C   UNL     1      10.464  16.111  20.712  0.00  0.00    +0.000 A 
ATOM     13  C   UNL     1       9.885  17.367  20.612  0.00  0.00    +0.000 A 
ATOM     14  C   UNL     1      10.104  18.050  21.832  0.00  0.00    +0.000 A 
ATOM     15  C   UNL     1      10.801  17.200  22.653  0.00  0.00    +0.000 A 
ATOM     16  N   UNL     1      11.013  16.029  21.972  0.00  0.00    +0.000 N 
ATOM     17  H   UNL     1      11.492  15.208  22.325  0.00  0.00    +0.000 HD
ENDBRANCH   9  12
ENDBRANCH   2  10
ENDBRANCH   1   5
BRANCH   1  18
ATOM     18  C   UNL     1       7.320   7.979  17.832  0.00  0.00    +0.000 C 
BRANCH  18  19
ATOM     19  N   UNL     1       7.730   6.572  17.721  0.00  0.00    +0.000 NA
ATOM     20  C   UNL     1       7.395   5.771  18.917  0.00  0.00    +0.000 C 
ATOM     21  C   UNL     1       5.891   5.542  19.116  0.00  0.00    +0.000 C 
ATOM     22  N   UNL     1       5.299   4.918  17.934  0.00  0.00    +0.000 N 
ATOM     23  C   UNL     1       4.284   4.006  18.025  0.00  0.00    +0.000 A 
ATOM     24  N   UNL     1       4.126   3.029  17.134  0.00  0.00    +0.000 NA
ATOM     25  S   UNL     1       2.932   2.009  17.632  0.00  0.00    +0.000 S 
ATOM     26  C   UNL     1       2.490   2.893  19.034  0.00  0.00    +0.000 A 
ATOM     27  C   UNL     1       1.498   2.619  19.990  0.00  0.00    +0.000 A 
ATOM     28  C   UNL     1       1.324   3.517  21.047  0.00  0.00    +0.000 A 
ATOM     29  C   UNL     1       2.094   4.661  21.142  0.00  0.00    +0.000 A 
ATOM     30  C   UNL     1       3.064   4.925  20.177  0.00  0.00    +0.000 A 
ATOM     31  C   UNL     1       3.311   4.020  19.110  0.00  0.00    +0.000 A 
ATOM     32  C   UNL     1       5.602   5.558  16.651  0.00  0.00    +0.000 C 
ATOM     33  C   UNL     1       7.109   5.911  16.542  0.00  0.00    +0.000 C 
ENDBRANCH  18  19
ENDBRANCH   1  18
TORSDOF 5
ENDMDL
MODEL 4
REMARK VINA RESULT:      -7.7      6.427     11.165
REMARK  Name = 
REMARK  5 active torsions:
REMARK  status: ('A' for Active; 'I' for Inactive)
REMARK    1  A    between atoms: C_2  and  C_27
REMARK    2  A    between atoms: N_3  and  C_4
REMARK    3  A    between atoms: C_7  and  C_8
REMARK    4  A    between atoms: C_8  and  C_9
REMARK    5  A    between atoms: C_9  and  N_10
REMARK                            x       y       z     vdW  Elec       q    Type
REMARK                         _______ _______ _______ _____ _____    ______ ____
ROOT
ATOM      1  C   UNL     1       0.206   9.089  21.281  0.00  0.00    +0.000 C 
ENDROOT
BRANCH   1   5
ATOM      2  C   UNL     1       2.547   6.994  18.277  0.00  0.00    +0.000 C 
ATOM      3  C   UNL     1       2.776   6.593  19.734  0.00  0.00    +0.000 C 
ATOM      4  C   UNL     1       1.628   7.084  20.608  0.00  0.00    +0.000 C 
ATOM      5  C   UNL     1       1.433   8.604  20.486  0.00  0.00    +0.000 C 
ATOM      6  C   UNL     1       1.281   9.028  19.013  0.00  0.00    +0.000 C 
ATOM      7  C   UNL     1       2.423   8.512  18.147  0.00  0.00    +0.000 C 
BRANCH   2  10
ATOM      8  O   UNL     1       3.159   4.275  17.732  0.00  0.00    +0.000 OA
ATOM      9  C   UNL     1       3.842   5.164  17.227  0.00  0.00    +0.000 C 
ATOM     10  N   UNL     1       3.627   6.503  17.455  0.00  0.00    +0.000 N 
ATOM     11  H   UNL     1       4.093   7.166  16.853  0.00  0.00    +0.000 HD
BRANCH   9  12
ATOM     12  C   UNL     1       4.948   4.894  16.343  0.00  0.00    +0.000 A 
ATOM     13  C   UNL     1       5.530   5.665  15.348  0.00  0.00    +0.000 A 
ATOM     14  C   UNL     1       6.605   4.930  14.794  0.00  0.00    +0.000 A 
ATOM     15  C   UNL     1       6.666   3.735  15.464  0.00  0.00    +0.000 A 
ATOM     16  N   UNL     1       5.665   3.720  16.401  0.00  0.00    +0.000 N 
ATOM     17  H   UNL     1       5.467   2.971  17.055  0.00  0.00    +0.000 HD
ENDBRANCH   9  12
ENDBRANCH   2  10
ENDBRANCH   1   5
BRANCH   1  18
ATOM     18  C   UNL     1      -0.750  10.022  20.516  0.00  0.00    +0.000 C 
BRANCH  18  19
ATOM     19  N   UNL     1      -1.087  11.262  21.231  0.00  0.00    +0.000 NA
ATOM     20  C   UNL     1       0.101  12.032  21.654  0.00  0.00    +0.000 C 
ATOM     21  C   UNL     1       0.885  12.660  20.495  0.00  0.00    +0.000 C 
ATOM     22  N   UNL     1       0.020  13.512  19.681  0.00  0.00    +0.000 N 
ATOM     23  C   UNL     1       0.473  14.664  19.100  0.00  0.00    +0.000 A 
ATOM     24  N   UNL     1      -0.322  15.709  18.882  0.00  0.00    +0.000 NA
ATOM     25  S   UNL     1       0.570  16.984  18.340  0.00  0.00    +0.000 S 
ATOM     26  C   UNL     1       2.071  16.158  18.270  0.00  0.00    +0.000 A 
ATOM     27  C   UNL     1       3.335  16.627  17.874  0.00  0.00    +0.000 A 
ATOM     28  C   UNL     1       4.413  15.738  17.893  0.00  0.00    +0.000 A 
ATOM     29  C   UNL     1       4.240  14.419  18.271  0.00  0.00    +0.000 A 
ATOM     30  C   UNL     1       2.977  13.966  18.647  0.00  0.00    +0.000 A 
ATOM     31  C   UNL     1       1.860  14.843  18.690  0.00  0.00    +0.000 A 
ATOM     32  C   UNL     1      -1.243  12.911  19.242  0.00  0.00    +0.000 C 
ATOM     33  C   UNL     1      -1.940  12.157  20.404  0.00  0.00    +0.000 C 
ENDBRANCH  18  19
ENDBRANCH   1  18
TORSDOF 5
ENDMDL
MODEL 5
REMARK VINA RESULT:      -7.7      2.106      2.216
REMARK  Name = 
REMARK  5 active torsions:
REMARK  status: ('A' for Active; 'I' for Inactive)
REMARK    1  A    between atoms: C_2  and  C_27
REMARK    2  A    between atoms: N_3  and  C_4
REMARK    3  A    between atoms: C_7  and  C_8
REMARK    4  A    between atoms: C_8  and  C_9
REMARK    5  A    between atoms: C_9  and  N_10
REMARK                            x       y       z     vdW  Elec       q    Type
REMARK                         _______ _______ _______ _____ _____    ______ ____
ROOT
ATOM      1  C   UNL     1       8.212   9.102  17.535  0.00  0.00    +0.000 C 
ENDROOT
BRANCH   1   5
ATOM      2  C   UNL     1       9.271  12.627  19.846  0.00  0.00    +0.000 C 
ATOM      3  C   UNL     1       9.162  12.802  18.331  0.00  0.00    +0.000 C 
ATOM      4  C   UNL     1       8.395  11.638  17.715  0.00  0.00    +0.000 C 
ATOM      5  C   UNL     1       9.043  10.287  18.062  0.00  0.00    +0.000 C 
ATOM      6  C   UNL     1       9.231  10.135  19.584  0.00  0.00    +0.000 C 
ATOM      7  C   UNL     1       9.978  11.316  20.189  0.00  0.00    +0.000 C 
BRANCH   2  10
ATOM      8  O   UNL     1       8.426  14.211  22.046  0.00  0.00    +0.000 OA
ATOM      9  C   UNL     1       9.503  14.451  21.504  0.00  0.00    +0.000 C 
ATOM     10  N   UNL     1       9.977  13.747  20.421  0.00  0.00    +0.000 N 
ATOM     11  H   UNL     1      10.946  13.870  20.166  0.00  0.00    +0.000 HD
BRANCH   9  12
ATOM     12  C   UNL     1      10.383  15.504  21.944  0.00  0.00    +0.000 A 
ATOM     13  C   UNL     1      10.532  16.110  23.183  0.00  0.00    +0.000 A 
ATOM     14  C   UNL     1      11.558  17.080  23.076  0.00  0.00    +0.000 A 
ATOM     15  C   UNL     1      12.020  17.042  21.786  0.00  0.00    +0.000 A 
ATOM     16  N   UNL     1      11.309  16.086  21.107  0.00  0.00    +0.000 N 
ATOM     17  H   UNL     1      11.433  15.823  20.136  0.00  0.00    +0.000 HD
ENDBRANCH   9  12
ENDBRANCH   2  10
ENDBRANCH   1   5
BRANCH   1  18
ATOM     18  C   UNL     1       7.814   8.053  18.590  0.00  0.00    +0.000 C 
BRANCH  18  19
ATOM     19  N   UNL     1       8.033   6.661  18.171  0.00  0.00    +0.000 NA
ATOM     20  C   UNL     1       7.549   5.672  19.157  0.00  0.00    +0.000 C 
ATOM     21  C   UNL     1       6.021   5.619  19.291  0.00  0.00    +0.000 C 
ATOM     22  N   UNL     1       5.393   5.359  17.996  0.00  0.00    +0.000 N 
ATOM     23  C   UNL     1       4.262   4.601  17.876  0.00  0.00    +0.000 A 
ATOM     24  N   UNL     1       4.006   3.876  16.789  0.00  0.00    +0.000 NA
ATOM     25  S   UNL     1       2.667   2.950  17.040  0.00  0.00    +0.000 S 
ATOM     26  C   UNL     1       2.298   3.557  18.602  0.00  0.00    +0.000 A 
ATOM     27  C   UNL     1       1.243   3.222  19.467  0.00  0.00    +0.000 A 
ATOM     28  C   UNL     1       1.154   3.881  20.696  0.00  0.00    +0.000 A 
ATOM     29  C   UNL     1       2.068   4.857  21.048  0.00  0.00    +0.000 A 
ATOM     30  C   UNL     1       3.099   5.187  20.171  0.00  0.00    +0.000 A 
ATOM     31  C   UNL     1       3.261   4.512  18.931  0.00  0.00    +0.000 A 
ATOM     32  C   UNL     1       5.828   6.215  16.889  0.00  0.00    +0.000 C 
ATOM     33  C   UNL     1       7.371   6.369  16.870  0.00  0.00    +0.000 C 
ENDBRANCH  18  19
ENDBRANCH   1  18
TORSDOF 5
ENDMDL
MODEL 6
REMARK VINA RESULT:      -7.7      2.270      2.655
REMARK  Name = 
REMARK  5 active torsions:
REMARK  status: ('A' for Active; 'I' for Inactive)
REMARK    1  A    between atoms: C_2  and  C_27
REMARK    2  A    between atoms: N_3  and  C_4
REMARK    3  A    between atoms: C_7  and  C_8
REMARK    4  A    between atoms: C_8  and  C_9
REMARK    5  A    between atoms: C_9  and  N_10
REMARK                            x       y       z     vdW  Elec       q    Type
REMARK                         _______ _______ _______ _____ _____    ______ ____
ROOT
ATOM      1  C   UNL     1       8.360   9.114  17.489  0.00  0.00    +0.000 C 
ENDROOT
BRANCH   1   5
ATOM      2  C   UNL     1      10.091  12.357  19.808  0.00  0.00    +0.000 C 
ATOM      3  C   UNL     1       9.629  11.123  20.583  0.00  0.00    +0.000 C 
ATOM      4  C   UNL     1       9.447   9.939  19.641  0.00  0.00    +0.000 C 
ATOM      5  C   UNL     1       8.464  10.266  18.505  0.00  0.00    +0.000 C 
ATOM      6  C   UNL     1       8.876  11.555  17.767  0.00  0.00    +0.000 C 
ATOM      7  C   UNL     1       9.078  12.723  18.723  0.00  0.00    +0.000 C 
BRANCH   2  10
ATOM      8  O   UNL     1       8.150  13.476  21.552  0.00  0.00    +0.000 OA
ATOM      9  C   UNL     1       9.292  13.933  21.541  0.00  0.00    +0.000 C 
ATOM     10  N   UNL     1      10.284  13.464  20.712  0.00  0.00    +0.000 N 
ATOM     11  H   UNL     1      11.233  13.749  20.904  0.00  0.00    +0.000 HD
BRANCH   9  12
ATOM     12  C   UNL     1       9.709  15.018  22.393  0.00  0.00    +0.000 A 
ATOM     13  C   UNL     1       9.264  15.418  23.645  0.00  0.00    +0.000 A 
ATOM     14  C   UNL     1      10.030  16.538  24.046  0.00  0.00    +0.000 A 
ATOM     15  C   UNL     1      10.929  16.795  23.043  0.00  0.00    +0.000 A 
ATOM     16  N   UNL     1      10.733  15.871  22.048  0.00  0.00    +0.000 N 
ATOM     17  H   UNL     1      11.256  15.802  21.183  0.00  0.00    +0.000 HD
ENDBRANCH   9  12
ENDBRANCH   2  10
ENDBRANCH   1   5
BRANCH   1  18
ATOM     18  C   UNL     1       7.247   8.086  17.768  0.00  0.00    +0.000 C 
BRANCH  18  19
ATOM     19  N   UNL     1       7.683   6.685  17.689  0.00  0.00    +0.000 NA
ATOM     20  C   UNL     1       7.358   5.903  18.900  0.00  0.00    +0.000 C 
ATOM     21  C   UNL     1       5.858   5.650  19.097  0.00  0.00    +0.000 C 
ATOM     22  N   UNL     1       5.282   4.991  17.927  0.00  0.00    +0.000 N 
ATOM     23  C   UNL     1       4.285   4.061  18.033  0.00  0.00    +0.000 A 
ATOM     24  N   UNL     1       4.149   3.063  17.162  0.00  0.00    +0.000 NA
ATOM     25  S   UNL     1       2.972   2.032  17.676  0.00  0.00    +0.000 S 
ATOM     26  C   UNL     1       2.508   2.936  19.058  0.00  0.00    +0.000 A 
ATOM     27  C   UNL     1       1.516   2.664  20.015  0.00  0.00    +0.000 A 
ATOM     28  C   UNL     1       1.321   3.580  21.052  0.00  0.00    +0.000 A 
ATOM     29  C   UNL     1       2.069   4.741  21.126  0.00  0.00    +0.000 A 
ATOM     30  C   UNL     1       3.038   5.002  20.159  0.00  0.00    +0.000 A 
ATOM     31  C   UNL     1       3.307   4.079  19.114  0.00  0.00    +0.000 A 
ATOM     32  C   UNL     1       5.580   5.608  16.631  0.00  0.00    +0.000 C 
ATOM     33  C   UNL     1       7.080   5.988  16.521  0.00  0.00    +0.000 C 
ENDBRANCH  18  19
ENDBRANCH   1  18
TORSDOF 5
ENDMDL
MODEL 7
REMARK VINA RESULT:      -7.6      6.507     11.029
REMARK  Name = 
REMARK  5 active torsions:
REMARK  status: ('A' for Active; 'I' for Inactive)
REMARK    1  A    between atoms: C_2  and  C_27
REMARK    2  A    between atoms: N_3  and  C_4
REMARK    3  A    between atoms: C_7  and  C_8
REMARK    4  A    between atoms: C_8  and  C_9
REMARK    5  A    between atoms: C_9  and  N_10
REMARK                            x       y       z     vdW  Elec       q    Type
REMARK                         _______ _______ _______ _____ _____    ______ ____
ROOT
ATOM      1  C   UNL     1       0.651   9.001  20.806  0.00  0.00    +0.000 C 
ENDROOT
BRANCH   1   5
ATOM      2  C   UNL     1       3.538   7.171  18.122  0.00  0.00    +0.000 C 
ATOM      3  C   UNL     1       2.516   8.120  17.495  0.00  0.00    +0.000 C 
ATOM      4  C   UNL     1       1.867   8.987  18.567  0.00  0.00    +0.000 C 
ATOM      5  C   UNL     1       1.213   8.133  19.666  0.00  0.00    +0.000 C 
ATOM      6  C   UNL     1       2.214   7.117  20.250  0.00  0.00    +0.000 C 
ATOM      7  C   UNL     1       2.872   6.274  19.166  0.00  0.00    +0.000 C 
BRANCH   2  10
ATOM      8  O   UNL     1       6.260   7.277  17.323  0.00  0.00    +0.000 OA
ATOM      9  C   UNL     1       5.500   6.475  16.784  0.00  0.00    +0.000 C 
ATOM     10  N   UNL     1       4.165   6.374  17.097  0.00  0.00    +0.000 N 
ATOM     11  H   UNL     1       3.662   5.565  16.761  0.00  0.00    +0.000 HD
BRANCH   9  12
ATOM     12  C   UNL     1       5.930   5.558  15.759  0.00  0.00    +0.000 A 
ATOM     13  C   UNL     1       5.290   4.472  15.180  0.00  0.00    +0.000 A 
ATOM     14  C   UNL     1       6.154   3.923  14.203  0.00  0.00    +0.000 A 
ATOM     15  C   UNL     1       7.295   4.684  14.196  0.00  0.00    +0.000 A 
ATOM     16  N   UNL     1       7.153   5.672  15.136  0.00  0.00    +0.000 N 
ATOM     17  H   UNL     1       7.829   6.395  15.352  0.00  0.00    +0.000 HD
ENDBRANCH   9  12
ENDBRANCH   2  10
ENDBRANCH   1   5
BRANCH   1  18
ATOM     18  C   UNL     1      -0.466   9.982  20.401  0.00  0.00    +0.000 C 
BRANCH  18  19
ATOM     19  N   UNL     1      -0.691  11.072  21.361  0.00  0.00    +0.000 NA
ATOM     20  C   UNL     1       0.505  11.912  21.581  0.00  0.00    +0.000 C 
ATOM     21  C   UNL     1       0.900  12.768  20.371  0.00  0.00    +0.000 C 
ATOM     22  N   UNL     1      -0.214  13.614  19.947  0.00  0.00    +0.000 N 
ATOM     23  C   UNL     1      -0.022  14.875  19.454  0.00  0.00    +0.000 A 
ATOM     24  N   UNL     1      -0.923  15.843  19.610  0.00  0.00    +0.000 NA
ATOM     25  S   UNL     1      -0.309  17.270  19.062  0.00  0.00    +0.000 S 
ATOM     26  C   UNL     1       1.177  16.636  18.485  0.00  0.00    +0.000 A 
ATOM     27  C   UNL     1       2.248  17.293  17.857  0.00  0.00    +0.000 A 
ATOM     28  C   UNL     1       3.356  16.537  17.463  0.00  0.00    +0.000 A 
ATOM     29  C   UNL     1       3.391  15.169  17.665  0.00  0.00    +0.000 A 
ATOM     30  C   UNL     1       2.313  14.531  18.275  0.00  0.00    +0.000 A 
ATOM     31  C   UNL     1       1.186  15.262  18.737  0.00  0.00    +0.000 A 
ATOM     32  C   UNL     1      -1.499  12.936  19.756  0.00  0.00    +0.000 C 
ATOM     33  C   UNL     1      -1.800  11.964  20.928  0.00  0.00    +0.000 C 
ENDBRANCH  18  19
ENDBRANCH   1  18
TORSDOF 5
ENDMDL
MODEL 8
REMARK VINA RESULT:      -7.5      1.064      1.238
REMARK  Name = 
REMARK  5 active torsions:
REMARK  status: ('A' for Active; 'I' for Inactive)
REMARK    1  A    between atoms: C_2  and  C_27
REMARK    2  A    between atoms: N_3  and  C_4
REMARK    3  A    between atoms: C_7  and  C_8
REMARK    4  A    between atoms: C_8  and  C_9
REMARK    5  A    between atoms: C_9  and  N_10
REMARK                            x       y       z     vdW  Elec       q    Type
REMARK                         _______ _______ _______ _____ _____    ______ ____
ROOT
ATOM      1  C   UNL     1       7.511   8.217  18.010  0.00  0.00    +0.000 C 
ENDROOT
BRANCH   1   5
ATOM      2  C   UNL     1       9.144  12.122  18.998  0.00  0.00    +0.000 C 
ATOM      3  C   UNL     1       8.532  11.961  17.607  0.00  0.00    +0.000 C 
ATOM      4  C   UNL     1       7.648  10.721  17.554  0.00  0.00    +0.000 C 
ATOM      5  C   UNL     1       8.424   9.456  17.956  0.00  0.00    +0.000 C 
ATOM      6  C   UNL     1       9.113   9.636  19.322  0.00  0.00    +0.000 C 
ATOM      7  C   UNL     1       9.973  10.892  19.368  0.00  0.00    +0.000 C 
BRANCH   2  10
ATOM      8  O   UNL     1       8.282  14.736  19.696  0.00  0.00    +0.000 OA
ATOM      9  C   UNL     1       9.462  14.541  19.413  0.00  0.00    +0.000 C 
ATOM     10  N   UNL     1       9.958  13.312  19.044  0.00  0.00    +0.000 N 
ATOM     11  H   UNL     1      10.960  13.194  19.026  0.00  0.00    +0.000 HD
BRANCH   9  12
ATOM     12  C   UNL     1      10.454  15.587  19.432  0.00  0.00    +0.000 A 
ATOM     13  C   UNL     1      11.833  15.535  19.572  0.00  0.00    +0.000 A 
ATOM     14  C   UNL     1      12.332  16.857  19.502  0.00  0.00    +0.000 A 
ATOM     15  C   UNL     1      11.257  17.687  19.312  0.00  0.00    +0.000 A 
ATOM     16  N   UNL     1      10.125  16.914  19.268  0.00  0.00    +0.000 N 
ATOM     17  H   UNL     1       9.178  17.246  19.128  0.00  0.00    +0.000 HD
ENDBRANCH   9  12
ENDBRANCH   2  10
ENDBRANCH   1   5
BRANCH   1  18
ATOM     18  C   UNL     1       7.666   7.230  16.838  0.00  0.00    +0.000 C 
BRANCH  18  19
ATOM     19  N   UNL     1       7.895   5.837  17.247  0.00  0.00    +0.000 NA
ATOM     20  C   UNL     1       7.376   5.532  18.596  0.00  0.00    +0.000 C 
ATOM     21  C   UNL     1       5.844   5.535  18.693  0.00  0.00    +0.000 C 
ATOM     22  N   UNL     1       5.259   4.606  17.728  0.00  0.00    +0.000 N 
ATOM     23  C   UNL     1       4.131   3.886  18.005  0.00  0.00    +0.000 A 
ATOM     24  N   UNL     1       3.909   2.684  17.477  0.00  0.00    +0.000 NA
ATOM     25  S   UNL     1       2.560   2.020  18.151  0.00  0.00    +0.000 S 
ATOM     26  C   UNL     1       2.141   3.370  19.123  0.00  0.00    +0.000 A 
ATOM     27  C   UNL     1       1.057   3.540  20.000  0.00  0.00    +0.000 A 
ATOM     28  C   UNL     1       0.929   4.758  20.673  0.00  0.00    +0.000 A 
ATOM     29  C   UNL     1       1.833   5.784  20.467  0.00  0.00    +0.000 A 
ATOM     30  C   UNL     1       2.894   5.603  19.581  0.00  0.00    +0.000 A 
ATOM     31  C   UNL     1       3.095   4.367  18.910  0.00  0.00    +0.000 A 
ATOM     32  C   UNL     1       5.732   4.734  16.347  0.00  0.00    +0.000 C 
ATOM     33  C   UNL     1       7.276   4.877  16.293  0.00  0.00    +0.000 C 
ENDBRANCH  18  19
ENDBRANCH   1  18
TORSDOF 5
ENDMDL
MODEL 9
REMARK VINA RESULT:      -7.5      6.628     11.773
REMARK  Name = 
REMARK  5 active torsions:
REMARK  status: ('A' for Active; 'I' for Inactive)
REMARK    1  A    between atoms: C_2  and  C_27
REMARK    2  A    between atoms: N_3  and  C_4
REMARK    3  A    between atoms: C_7  and  C_8
REMARK    4  A    between atoms: C_8  and  C_9
REMARK    5  A    between atoms: C_9  and  N_10
REMARK                            x       y       z     vdW  Elec       q    Type
REMARK                         _______ _______ _______ _____ _____    ______ ____
ROOT
ATOM      1  C   UNL     1       3.869  15.756  20.317  0.00  0.00    +0.000 C 
ENDROOT
BRANCH   1   5
ATOM      2  C   UNL     1       0.668  13.213  18.840  0.00  0.00    +0.000 C 
ATOM      3  C   UNL     1       2.063  12.974  18.262  0.00  0.00    +0.000 C 
ATOM      4  C   UNL     1       3.124  13.618  19.146  0.00  0.00    +0.000 C 
ATOM      5  C   UNL     1       2.864  15.122  19.337  0.00  0.00    +0.000 C 
ATOM      6  C   UNL     1       1.432  15.379  19.844  0.00  0.00    +0.000 C 
ATOM      7  C   UNL     1       0.384  14.710  18.964  0.00  0.00    +0.000 C 
BRANCH   2  10
ATOM      8  O   UNL     1      -1.531  11.651  19.726  0.00  0.00    +0.000 OA
ATOM      9  C   UNL     1      -1.374  11.851  18.523  0.00  0.00    +0.000 C 
ATOM     10  N   UNL     1      -0.325  12.578  18.009  0.00  0.00    +0.000 N 
ATOM     11  H   UNL     1      -0.379  12.865  17.043  0.00  0.00    +0.000 HD
BRANCH   9  12
ATOM     12  C   UNL     1      -2.274  11.338  17.521  0.00  0.00    +0.000 A 
ATOM     13  C   UNL     1      -2.154  10.263  16.652  0.00  0.00    +0.000 A 
ATOM     14  C   UNL     1      -3.340  10.185  15.884  0.00  0.00    +0.000 A 
ATOM     15  C   UNL     1      -4.161  11.201  16.301  0.00  0.00    +0.000 A 
ATOM     16  N   UNL     1      -3.513  11.892  17.292  0.00  0.00    +0.000 N 
ATOM     17  H   UNL     1      -3.875  12.690  17.801  0.00  0.00    +0.000 HD
ENDBRANCH   9  12
ENDBRANCH   2  10
ENDBRANCH   1   5
BRANCH   1  18
ATOM     18  C   UNL     1       4.893  16.716  19.684  0.00  0.00    +0.000 C 
BRANCH  18  19
ATOM     19  N   UNL     1       6.050  17.015  20.540  0.00  0.00    +0.000 NA
ATOM     20  C   UNL     1       6.725  15.805  21.054  0.00  0.00    +0.000 C 
ATOM     21  C   UNL     1       7.458  14.993  19.978  0.00  0.00    +0.000 C 
ATOM     22  N   UNL     1       8.429  15.824  19.269  0.00  0.00    +0.000 N 
ATOM     23  C   UNL     1       9.625  15.329  18.829  0.00  0.00    +0.000 A 
ATOM     24  N   UNL     1      10.715  16.088  18.735  0.00  0.00    +0.000 NA
ATOM     25  S   UNL     1      12.014  15.150  18.349  0.00  0.00    +0.000 S 
ATOM     26  C   UNL     1      11.151  13.677  18.185  0.00  0.00    +0.000 A 
ATOM     27  C   UNL     1      11.621  12.396  17.850  0.00  0.00    +0.000 A 
ATOM     28  C   UNL     1      10.700  11.348  17.766  0.00  0.00    +0.000 A 
ATOM     29  C   UNL     1       9.353  11.567  17.985  0.00  0.00    +0.000 A 
ATOM     30  C   UNL     1       8.902  12.847  18.302  0.00  0.00    +0.000 A 
ATOM     31  C   UNL     1       9.804  13.934  18.446  0.00  0.00    +0.000 A 
ATOM     32  C   UNL     1       7.928  17.103  18.759  0.00  0.00    +0.000 C 
ATOM     33  C   UNL     1       7.066  17.833  19.823  0.00  0.00    +0.000 C 
ENDBRANCH  18  19
ENDBRANCH   1  18
TORSDOF 5
ENDMDL
