MODEL 1
REMARK VINA RESULT:      -7.7      0.000      0.000
REMARK  Name = 
REMARK  7 active torsions:
REMARK  status: ('A' for Active; 'I' for Inactive)
REMARK    1  A    between atoms: C_1  and  O_2
REMARK    2  A    between atoms: O_2  and  C_3
REMARK    3  A    between atoms: C_3  and  C_5
REMARK    4  A    between atoms: C_9  and  C_10
REMARK    5  A    between atoms: C_11  and  C_12
REMARK    6  A    between atoms: C_16  and  N_17
REMARK    7  A    between atoms: C_22  and  N_23
REMARK                            x       y       z     vdW  Elec       q    Type
REMARK                         _______ _______ _______ _____ _____    ______ ____
ROOT
ATOM      1  C   UNL     1       6.124   5.228  17.278  0.00  0.00    +0.000 A 
ATOM      2  S   UNL     1       5.550   6.705  16.606  0.00  0.00    +0.000 S 
ATOM      3  C   UNL     1       4.262   6.828  17.721  0.00  0.00    +0.000 A 
ATOM      4  C   UNL     1       3.289   7.835  17.804  0.00  0.00    +0.000 A 
ATOM      5  C   UNL     1       2.331   7.723  18.806  0.00  0.00    +0.000 A 
ATOM      6  C   UNL     1       2.398   6.630  19.658  0.00  0.00    +0.000 A 
ATOM      7  N   UNL     1       3.320   5.636  19.605  0.00  0.00    +0.000 NA
ATOM      8  C   UNL     1       4.257   5.757  18.614  0.00  0.00    +0.000 A 
ATOM      9  C   UNL     1       5.338   4.839  18.346  0.00  0.00    +0.000 A 
ENDROOT
BRANCH   9  10
ATOM     10  N   UNL     1       5.538   3.719  19.085  0.00  0.00    +0.000 N 
ATOM     11  H   UNL     1       6.459   3.288  19.136  0.00  0.00    +0.000 HD
ATOM     12  H   UNL     1       4.853   3.365  19.748  0.00  0.00    +0.000 HD
ENDBRANCH   9  10
BRANCH   1  13
ATOM     13  C   UNL     1       7.294   4.636  16.655  0.00  0.00    +0.000 C 
ATOM     14  O   UNL     1       8.223   4.092  17.246  0.00  0.00    +0.000 OA
BRANCH  13  16
ATOM     15  C   UNL     1       6.332   3.868  14.666  0.00  0.00    +0.000 C 
ATOM     16  O   UNL     1       7.253   4.763  15.293  0.00  0.00    +0.000 OA
ENDBRANCH  13  16
ENDBRANCH   1  13
BRANCH   5  17
ATOM     17  C   UNL     1       1.318   8.729  18.929  0.00  0.00    +0.000 C 
ATOM     18  C   UNL     1       0.443   9.544  19.057  0.00  0.00    +0.000 C 
BRANCH  18  19
ATOM     19  C   UNL     1      -0.602  10.516  19.194  0.00  0.00    +0.000 A 
ATOM     20  C   UNL     1      -0.710  11.267  20.366  0.00  0.00    +0.000 A 
ATOM     21  C   UNL     1      -1.747  12.189  20.508  0.00  0.00    +0.000 A 
ATOM     22  C   UNL     1      -2.685  12.348  19.485  0.00  0.00    +0.000 A 
ATOM     23  C   UNL     1      -2.611  11.573  18.324  0.00  0.00    +0.000 A 
ATOM     24  C   UNL     1      -1.526  10.705  18.161  0.00  0.00    +0.000 A 
BRANCH  23  25
ATOM     25  N   UNL     1      -3.482  11.828  17.256  0.00  0.00    +0.000 N 
ATOM     26  H   UNL     1      -3.725  12.809  17.155  0.00  0.00    +0.000 HD
ATOM     27  H   UNL     1      -4.303  11.230  17.246  0.00  0.00    +0.000 HD
ENDBRANCH  23  25
ENDBRANCH  18  19
ENDBRANCH   5  17
TORSDOF 6
ENDMDL
MODEL 2
REMARK VINA RESULT:      -7.5      1.986      2.324
REMARK  Name = 
REMARK  7 active torsions:
REMARK  status: ('A' for Active; 'I' for Inactive)
REMARK    1  A    between atoms: C_1  and  O_2
REMARK    2  A    between atoms: O_2  and  C_3
REMARK    3  A    between atoms: C_3  and  C_5
REMARK    4  A    between atoms: C_9  and  C_10
REMARK    5  A    between atoms: C_11  and  C_12
REMARK    6  A    between atoms: C_16  and  N_17
REMARK    7  A    between atoms: C_22  and  N_23
REMARK                            x       y       z     vdW  Elec       q    Type
REMARK                         _______ _______ _______ _____ _____    ______ ____
ROOT
ATOM      1  C   UNL     1       5.549   5.056  16.002  0.00  0.00    +0.000 A 
ATOM      2  S   UNL     1       5.184   6.731  16.158  0.00  0.00    +0.000 S 
ATOM      3  C   UNL     1       4.083   6.473  17.439  0.00  0.00    +0.000 A 
ATOM      4  C   UNL     1       3.331   7.433  18.133  0.00  0.00    +0.000 A 
ATOM      5  C   UNL     1       2.497   6.984  19.150  0.00  0.00    +0.000 A 
ATOM      6  C   UNL     1       2.461   5.622  19.416  0.00  0.00    +0.000 A 
ATOM      7  N   UNL     1       3.170   4.667  18.764  0.00  0.00    +0.000 NA
ATOM      8  C   UNL     1       3.987   5.121  17.764  0.00  0.00    +0.000 A 
ATOM      9  C   UNL     1       4.838   4.313  16.925  0.00  0.00    +0.000 A 
ENDROOT
BRANCH   9  10
ATOM     10  N   UNL     1       4.914   2.964  17.054  0.00  0.00    +0.000 N 
ATOM     11  H   UNL     1       5.582   2.541  17.696  0.00  0.00    +0.000 HD
ATOM     12  H   UNL     1       4.215   2.333  16.672  0.00  0.00    +0.000 HD
ENDBRANCH   9  10
BRANCH   1  13
ATOM     13  C   UNL     1       6.506   4.687  14.974  0.00  0.00    +0.000 C 
ATOM     14  O   UNL     1       7.575   5.252  14.754  0.00  0.00    +0.000 OA
BRANCH  13  16
ATOM     15  C   UNL     1       6.311   3.742  12.843  0.00  0.00    +0.000 C 
ATOM     16  O   UNL     1       6.068   3.614  14.246  0.00  0.00    +0.000 OA
ENDBRANCH  13  16
ENDBRANCH   1  13
BRANCH   5  17
ATOM     17  C   UNL     1       1.711   7.928  19.887  0.00  0.00    +0.000 C 
ATOM     18  C   UNL     1       1.087   8.734  20.526  0.00  0.00    +0.000 C 
BRANCH  18  19
ATOM     19  C   UNL     1       0.336   9.683  21.295  0.00  0.00    +0.000 A 
ATOM     20  C   UNL     1      -0.141   9.338  22.561  0.00  0.00    +0.000 A 
ATOM     21  C   UNL     1      -0.898  10.253  23.292  0.00  0.00    +0.000 A 
ATOM     22  C   UNL     1      -1.192  11.507  22.751  0.00  0.00    +0.000 A 
ATOM     23  C   UNL     1      -0.754  11.849  21.468  0.00  0.00    +0.000 A 
ATOM     24  C   UNL     1       0.065  10.952  20.774  0.00  0.00    +0.000 A 
BRANCH  23  25
ATOM     25  N   UNL     1      -0.950  13.151  20.986  0.00  0.00    +0.000 N 
ATOM     26  H   UNL     1      -0.298  13.828  21.371  0.00  0.00    +0.000 HD
ATOM     27  H   UNL     1      -1.911  13.470  21.048  0.00  0.00    +0.000 HD
ENDBRANCH  23  25
ENDBRANCH  18  19
ENDBRANCH   5  17
TORSDOF 6
ENDMDL
MODEL 3
REMARK VINA RESULT:      -7.4      6.080      7.713
REMARK  Name = 
REMARK  7 active torsions:
REMARK  status: ('A' for Active; 'I' for Inactive)
REMARK    1  A    between atoms: C_1  and  O_2
REMARK    2  A    between atoms: O_2  and  C_3
REMARK    3  A    between atoms: C_3  and  C_5
REMARK    4  A    between atoms: C_9  and  C_10
REMARK    5  A    between atoms: C_11  and  C_12
REMARK    6  A    between atoms: C_16  and  N_17
REMARK    7  A    between atoms: C_22  and  N_23
REMARK                            x       y       z     vdW  Elec       q    Type
REMARK                         _______ _______ _______ _____ _____    ______ ____
ROOT
ATOM      1  C   UNL     1       3.825   4.024  17.283  0.00  0.00    +0.000 A 
ATOM      2  S   UNL     1       3.717   5.509  18.147  0.00  0.00    +0.000 S 
ATOM      3  C   UNL     1       5.292   5.999  17.700  0.00  0.00    +0.000 A 
ATOM      4  C   UNL     1       5.958   7.182  18.053  0.00  0.00    +0.000 A 
ATOM      5  C   UNL     1       7.245   7.367  17.564  0.00  0.00    +0.000 A 
ATOM      6  C   UNL     1       7.789   6.375  16.758  0.00  0.00    +0.000 A 
ATOM      7  N   UNL     1       7.177   5.219  16.400  0.00  0.00    +0.000 NA
ATOM      8  C   UNL     1       5.910   5.049  16.889  0.00  0.00    +0.000 A 
ATOM      9  C   UNL     1       5.052   3.912  16.657  0.00  0.00    +0.000 A 
ENDROOT
BRANCH   9  10
ATOM     10  N   UNL     1       5.437   2.856  15.896  0.00  0.00    +0.000 N 
ATOM     11  H   UNL     1       4.851   2.528  15.129  0.00  0.00    +0.000 HD
ATOM     12  H   UNL     1       6.375   2.465  15.928  0.00  0.00    +0.000 HD
ENDBRANCH   9  10
BRANCH   1  13
ATOM     13  C   UNL     1       2.666   3.151  17.334  0.00  0.00    +0.000 C 
ATOM     14  O   UNL     1       1.498   3.501  17.183  0.00  0.00    +0.000 OA
BRANCH  13  16
ATOM     15  C   UNL     1       3.465   1.640  18.931  0.00  0.00    +0.000 C 
ATOM     16  O   UNL     1       3.027   1.856  17.587  0.00  0.00    +0.000 OA
ENDBRANCH  13  16
ENDBRANCH   1  13
BRANCH   5  17
ATOM     17  C   UNL     1       7.964   8.560  17.898  0.00  0.00    +0.000 C 
ATOM     18  C   UNL     1       8.547   9.562  18.218  0.00  0.00    +0.000 C 
BRANCH  18  19
ATOM     19  C   UNL     1       9.235  10.763  18.588  0.00  0.00    +0.000 A 
ATOM     20  C   UNL     1       9.956  10.818  19.783  0.00  0.00    +0.000 A 
ATOM     21  C   UNL     1      10.599  11.999  20.154  0.00  0.00    +0.000 A 
ATOM     22  C   UNL     1      10.506  13.131  19.339  0.00  0.00    +0.000 A 
ATOM     23  C   UNL     1       9.753  13.101  18.162  0.00  0.00    +0.000 A 
ATOM     24  C   UNL     1       9.174  11.891  17.763  0.00  0.00    +0.000 A 
BRANCH  23  25
ATOM     25  N   UNL     1       9.769  14.201  17.294  0.00  0.00    +0.000 N 
ATOM     26  H   UNL     1       9.024  14.869  17.471  0.00  0.00    +0.000 HD
ATOM     27  H   UNL     1       9.827  13.948  16.313  0.00  0.00    +0.000 HD
ENDBRANCH  23  25
ENDBRANCH  18  19
ENDBRANCH   5  17
TORSDOF 6
ENDMDL
MODEL 4
REMARK VINA RESULT:      -7.3      1.498      1.844
REMARK  Name = 
REMARK  7 active torsions:
REMARK  status: ('A' for Active; 'I' for Inactive)
REMARK    1  A    between atoms: C_1  and  O_2
REMARK    2  A    between atoms: O_2  and  C_3
REMARK    3  A    between atoms: C_3  and  C_5
REMARK    4  A    between atoms: C_9  and  C_10
REMARK    5  A    between atoms: C_11  and  C_12
REMARK    6  A    between atoms: C_16  and  N_17
REMARK    7  A    between atoms: C_22  and  N_23
REMARK                            x       y       z     vdW  Elec       q    Type
REMARK                         _______ _______ _______ _____ _____    ______ ____
ROOT
ATOM      1  C   UNL     1       5.659   4.984  16.971  0.00  0.00    +0.000 A 
ATOM      2  S   UNL     1       5.043   6.489  16.408  0.00  0.00    +0.000 S 
ATOM      3  C   UNL     1       3.974   6.660  17.729  0.00  0.00    +0.000 A 
ATOM      4  C   UNL     1       3.074   7.707  17.978  0.00  0.00    +0.000 A 
ATOM      5  C   UNL     1       2.301   7.631  19.131  0.00  0.00    +0.000 A 
ATOM      6  C   UNL     1       2.467   6.530  19.960  0.00  0.00    +0.000 A 
ATOM      7  N   UNL     1       3.322   5.498  19.749  0.00  0.00    +0.000 NA
ATOM      8  C   UNL     1       4.077   5.585  18.610  0.00  0.00    +0.000 A 
ATOM      9  C   UNL     1       5.054   4.623  18.160  0.00  0.00    +0.000 A 
ENDROOT
BRANCH   9  10
ATOM     10  N   UNL     1       5.331   3.490  18.855  0.00  0.00    +0.000 N 
ATOM     11  H   UNL     1       5.690   3.540  19.807  0.00  0.00    +0.000 HD
ATOM     12  H   UNL     1       5.036   2.568  18.546  0.00  0.00    +0.000 HD
ENDBRANCH   9  10
BRANCH   1  13
ATOM     13  C   UNL     1       6.678   4.347  16.155  0.00  0.00    +0.000 C 
ATOM     14  O   UNL     1       7.890   4.512  16.263  0.00  0.00    +0.000 OA
BRANCH  13  16
ATOM     15  C   UNL     1       6.340   3.961  13.873  0.00  0.00    +0.000 C 
ATOM     16  O   UNL     1       6.121   3.522  15.216  0.00  0.00    +0.000 OA
ENDBRANCH  13  16
ENDBRANCH   1  13
BRANCH   5  17
ATOM     17  C   UNL     1       1.369   8.678  19.427  0.00  0.00    +0.000 C 
ATOM     18  C   UNL     1       0.611   9.567  19.712  0.00  0.00    +0.000 C 
BRANCH  18  19
ATOM     19  C   UNL     1      -0.304  10.616  20.053  0.00  0.00    +0.000 A 
ATOM     20  C   UNL     1      -1.195  11.107  19.096  0.00  0.00    +0.000 A 
ATOM     21  C   UNL     1      -2.062  12.149  19.423  0.00  0.00    +0.000 A 
ATOM     22  C   UNL     1      -2.027  12.712  20.702  0.00  0.00    +0.000 A 
ATOM     23  C   UNL     1      -1.112  12.256  21.656  0.00  0.00    +0.000 A 
ATOM     24  C   UNL     1      -0.298  11.163  21.340  0.00  0.00    +0.000 A 
BRANCH  23  25
ATOM     25  N   UNL     1      -1.170  12.743  22.969  0.00  0.00    +0.000 N 
ATOM     26  H   UNL     1      -1.486  12.053  23.644  0.00  0.00    +0.000 HD
ATOM     27  H   UNL     1      -1.673  13.620  23.058  0.00  0.00    +0.000 HD
ENDBRANCH  23  25
ENDBRANCH  18  19
ENDBRANCH   5  17
TORSDOF 6
ENDMDL
MODEL 5
REMARK VINA RESULT:      -7.2      6.007      7.794
REMARK  Name = 
REMARK  7 active torsions:
REMARK  status: ('A' for Active; 'I' for Inactive)
REMARK    1  A    between atoms: C_1  and  O_2
REMARK    2  A    between atoms: O_2  and  C_3
REMARK    3  A    between atoms: C_3  and  C_5
REMARK    4  A    between atoms: C_9  and  C_10
REMARK    5  A    between atoms: C_11  and  C_12
REMARK    6  A    between atoms: C_16  and  N_17
REMARK    7  A    between atoms: C_22  and  N_23
REMARK                            x       y       z     vdW  Elec       q    Type
REMARK                         _______ _______ _______ _____ _____    ______ ____
ROOT
ATOM      1  C   UNL     1       3.874   4.242  18.077  0.00  0.00    +0.000 A 
ATOM      2  S   UNL     1       3.816   5.833  17.423  0.00  0.00    +0.000 S 
ATOM      3  C   UNL     1       5.398   6.213  17.944  0.00  0.00    +0.000 A 
ATOM      4  C   UNL     1       6.095   7.418  17.770  0.00  0.00    +0.000 A 
ATOM      5  C   UNL     1       7.385   7.495  18.281  0.00  0.00    +0.000 A 
ATOM      6  C   UNL     1       7.901   6.381  18.928  0.00  0.00    +0.000 A 
ATOM      7  N   UNL     1       7.256   5.203  19.118  0.00  0.00    +0.000 NA
ATOM      8  C   UNL     1       5.986   5.140  18.610  0.00  0.00    +0.000 A 
ATOM      9  C   UNL     1       5.094   4.008  18.682  0.00  0.00    +0.000 A 
ENDROOT
BRANCH   9  10
ATOM     10  N   UNL     1       5.447   2.844  19.284  0.00  0.00    +0.000 N 
ATOM     11  H   UNL     1       4.865   2.013  19.190  0.00  0.00    +0.000 HD
ATOM     12  H   UNL     1       6.364   2.691  19.695  0.00  0.00    +0.000 HD
ENDBRANCH   9  10
BRANCH   1  13
ATOM     13  C   UNL     1       2.691   3.419  17.904  0.00  0.00    +0.000 C 
ATOM     14  O   UNL     1       2.614   2.412  17.205  0.00  0.00    +0.000 OA
BRANCH  13  16
ATOM     15  C   UNL     1       0.710   2.898  19.034  0.00  0.00    +0.000 C 
ATOM     16  O   UNL     1       1.632   3.909  18.620  0.00  0.00    +0.000 OA
ENDBRANCH  13  16
ENDBRANCH   1  13
BRANCH   5  17
ATOM     17  C   UNL     1       8.135   8.705  18.126  0.00  0.00    +0.000 C 
ATOM     18  C   UNL     1       8.738   9.741  18.025  0.00  0.00    +0.000 C 
BRANCH  18  19
ATOM     19  C   UNL     1       9.453  10.976  17.891  0.00  0.00    +0.000 A 
ATOM     20  C   UNL     1      10.850  10.981  17.893  0.00  0.00    +0.000 A 
ATOM     21  C   UNL     1      11.541  12.188  17.793  0.00  0.00    +0.000 A 
ATOM     22  C   UNL     1      10.837  13.392  17.708  0.00  0.00    +0.000 A 
ATOM     23  C   UNL     1       9.439  13.403  17.746  0.00  0.00    +0.000 A 
ATOM     24  C   UNL     1       8.756  12.183  17.773  0.00  0.00    +0.000 A 
BRANCH  23  25
ATOM     25  N   UNL     1       8.744  14.602  17.537  0.00  0.00    +0.000 N 
ATOM     26  H   UNL     1       9.021  15.090  16.690  0.00  0.00    +0.000 HD
ATOM     27  H   UNL     1       8.736  15.217  18.345  0.00  0.00    +0.000 HD
ENDBRANCH  23  25
ENDBRANCH  18  19
ENDBRANCH   5  17
TORSDOF 6
ENDMDL
MODEL 6
REMARK VINA RESULT:      -7.1      5.918      8.022
REMARK  Name = 
REMARK  7 active torsions:
REMARK  status: ('A' for Active; 'I' for Inactive)
REMARK    1  A    between atoms: C_1  and  O_2
REMARK    2  A    between atoms: O_2  and  C_3
REMARK    3  A    between atoms: C_3  and  C_5
REMARK    4  A    between atoms: C_9  and  C_10
REMARK    5  A    between atoms: C_11  and  C_12
REMARK    6  A    between atoms: C_16  and  N_17
REMARK    7  A    between atoms: C_22  and  N_23
REMARK                            x       y       z     vdW  Elec       q    Type
REMARK                         _______ _______ _______ _____ _____    ______ ____
ROOT
ATOM      1  C   UNL     1       3.481   4.217  17.627  0.00  0.00    +0.000 A 
ATOM      2  S   UNL     1       3.389   5.819  18.248  0.00  0.00    +0.000 S 
ATOM      3  C   UNL     1       5.009   6.177  17.841  0.00  0.00    +0.000 A 
ATOM      4  C   UNL     1       5.707   7.375  18.057  0.00  0.00    +0.000 A 
ATOM      5  C   UNL     1       7.029   7.435  17.634  0.00  0.00    +0.000 A 
ATOM      6  C   UNL     1       7.575   6.312  17.027  0.00  0.00    +0.000 A 
ATOM      7  N   UNL     1       6.933   5.138  16.805  0.00  0.00    +0.000 NA
ATOM      8  C   UNL     1       5.632   5.091  17.227  0.00  0.00    +0.000 A 
ATOM      9  C   UNL     1       4.737   3.964  17.110  0.00  0.00    +0.000 A 
ENDROOT
BRANCH   9  10
ATOM     10  N   UNL     1       5.119   2.791  16.544  0.00  0.00    +0.000 N 
ATOM     11  H   UNL     1       4.485   1.994  16.524  0.00  0.00    +0.000 HD
ATOM     12  H   UNL     1       5.954   2.701  15.972  0.00  0.00    +0.000 HD
ENDBRANCH   9  10
BRANCH   1  13
ATOM     13  C   UNL     1       2.281   3.405  17.729  0.00  0.00    +0.000 C 
ATOM     14  O   UNL     1       1.146   3.762  17.424  0.00  0.00    +0.000 OA
BRANCH  13  16
ATOM     15  C   UNL     1       2.545   2.107  19.657  0.00  0.00    +0.000 C 
ATOM     16  O   UNL     1       2.561   2.162  18.228  0.00  0.00    +0.000 OA
ENDBRANCH  13  16
ENDBRANCH   1  13
BRANCH   5  17
ATOM     17  C   UNL     1       7.781   8.638  17.833  0.00  0.00    +0.000 C 
ATOM     18  C   UNL     1       8.427   9.631  18.038  0.00  0.00    +0.000 C 
BRANCH  18  19
ATOM     19  C   UNL     1       9.185  10.823  18.284  0.00  0.00    +0.000 A 
ATOM     20  C   UNL     1       8.744  12.049  17.781  0.00  0.00    +0.000 A 
ATOM     21  C   UNL     1       9.501  13.201  17.995  0.00  0.00    +0.000 A 
ATOM     22  C   UNL     1      10.706  13.125  18.698  0.00  0.00    +0.000 A 
ATOM     23  C   UNL     1      11.178  11.897  19.171  0.00  0.00    +0.000 A 
ATOM     24  C   UNL     1      10.377  10.761  19.014  0.00  0.00    +0.000 A 
BRANCH  23  25
ATOM     25  N   UNL     1      12.324  11.852  19.978  0.00  0.00    +0.000 N 
ATOM     26  H   UNL     1      12.940  11.072  19.765  0.00  0.00    +0.000 HD
ATOM     27  H   UNL     1      12.127  11.921  20.971  0.00  0.00    +0.000 HD
ENDBRANCH  23  25
ENDBRANCH  18  19
ENDBRANCH   5  17
TORSDOF 6
ENDMDL
MODEL 7
REMARK VINA RESULT:      -7.0      1.402      1.885
REMARK  Name = 
REMARK  7 active torsions:
REMARK  status: ('A' for Active; 'I' for Inactive)
REMARK    1  A    between atoms: C_1  and  O_2
REMARK    2  A    between atoms: O_2  and  C_3
REMARK    3  A    between atoms: C_3  and  C_5
REMARK    4  A    between atoms: C_9  and  C_10
REMARK    5  A    between atoms: C_11  and  C_12
REMARK    6  A    between atoms: C_16  and  N_17
REMARK    7  A    between atoms: C_22  and  N_23
REMARK                            x       y       z     vdW  Elec       q    Type
REMARK                         _______ _______ _______ _____ _____    ______ ____
ROOT
ATOM      1  C   UNL     1       5.272   4.869  16.827  0.00  0.00    +0.000 A 
ATOM      2  S   UNL     1       4.867   6.531  16.639  0.00  0.00    +0.000 S 
ATOM      3  C   UNL     1       3.770   6.515  17.949  0.00  0.00    +0.000 A 
ATOM      4  C   UNL     1       2.994   7.578  18.434  0.00  0.00    +0.000 A 
ATOM      5  C   UNL     1       2.168   7.327  19.523  0.00  0.00    +0.000 A 
ATOM      6  C   UNL     1       2.164   6.047  20.062  0.00  0.00    +0.000 A 
ATOM      7  N   UNL     1       2.897   4.996  19.617  0.00  0.00    +0.000 NA
ATOM      8  C   UNL     1       3.705   5.256  18.544  0.00  0.00    +0.000 A 
ATOM      9  C   UNL     1       4.578   4.313  17.885  0.00  0.00    +0.000 A 
ENDROOT
BRANCH   9  10
ATOM     10  N   UNL     1       4.685   3.022  18.287  0.00  0.00    +0.000 N 
ATOM     11  H   UNL     1       5.205   2.346  17.730  0.00  0.00    +0.000 HD
ATOM     12  H   UNL     1       4.420   2.709  19.217  0.00  0.00    +0.000 HD
ENDBRANCH   9  10
BRANCH   1  13
ATOM     13  C   UNL     1       6.240   4.321  15.894  0.00  0.00    +0.000 C 
ATOM     14  O   UNL     1       5.981   3.605  14.929  0.00  0.00    +0.000 OA
BRANCH  13  16
ATOM     15  C   UNL     1       7.820   4.519  17.608  0.00  0.00    +0.000 C 
ATOM     16  O   UNL     1       7.516   4.693  16.221  0.00  0.00    +0.000 OA
ENDBRANCH  13  16
ENDBRANCH   1  13
BRANCH   5  17
ATOM     17  C   UNL     1       1.358   8.382  20.054  0.00  0.00    +0.000 C 
ATOM     18  C   UNL     1       0.653   9.238  20.520  0.00  0.00    +0.000 C 
BRANCH  18  19
ATOM     19  C   UNL     1      -0.192  10.261  21.062  0.00  0.00    +0.000 A 
ATOM     20  C   UNL     1      -0.440  10.311  22.435  0.00  0.00    +0.000 A 
ATOM     21  C   UNL     1      -1.287  11.290  22.954  0.00  0.00    +0.000 A 
ATOM     22  C   UNL     1      -1.900  12.208  22.098  0.00  0.00    +0.000 A 
ATOM     23  C   UNL     1      -1.693  12.143  20.717  0.00  0.00    +0.000 A 
ATOM     24  C   UNL     1      -0.785  11.205  20.215  0.00  0.00    +0.000 A 
BRANCH  23  25
ATOM     25  N   UNL     1      -2.214  13.143  19.883  0.00  0.00    +0.000 N 
ATOM     26  H   UNL     1      -1.506  13.765  19.505  0.00  0.00    +0.000 HD
ATOM     27  H   UNL     1      -2.990  13.653  20.292  0.00  0.00    +0.000 HD
ENDBRANCH  23  25
ENDBRANCH  18  19
ENDBRANCH   5  17
TORSDOF 6
ENDMDL
MODEL 8
REMARK VINA RESULT:      -6.9      5.200      9.896
REMARK  Name = 
REMARK  7 active torsions:
REMARK  status: ('A' for Active; 'I' for Inactive)
REMARK    1  A    between atoms: C_1  and  O_2
REMARK    2  A    between atoms: O_2  and  C_3
REMARK    3  A    between atoms: C_3  and  C_5
REMARK    4  A    between atoms: C_9  and  C_10
REMARK    5  A    between atoms: C_11  and  C_12
REMARK    6  A    between atoms: C_16  and  N_17
REMARK    7  A    between atoms: C_22  and  N_23
REMARK                            x       y       z     vdW  Elec       q    Type
REMARK                         _______ _______ _______ _____ _____    ______ ____
ROOT
ATOM      1  C   UNL     1      -1.805  11.852  22.025  0.00  0.00    +0.000 A 
ATOM      2  S   UNL     1      -0.785  10.571  22.555  0.00  0.00    +0.000 S 
ATOM      3  C   UNL     1      -0.163  10.286  20.990  0.00  0.00    +0.000 A 
ATOM      4  C   UNL     1       0.781   9.323  20.602  0.00  0.00    +0.000 A 
ATOM      5  C   UNL     1       1.141   9.279  19.261  0.00  0.00    +0.000 A 
ATOM      6  C   UNL     1       0.549  10.186  18.393  0.00  0.00    +0.000 A 
ATOM      7  N   UNL     1      -0.368  11.127  18.731  0.00  0.00    +0.000 NA
ATOM      8  C   UNL     1      -0.715  11.159  20.055  0.00  0.00    +0.000 A 
ATOM      9  C   UNL     1      -1.664  12.059  20.666  0.00  0.00    +0.000 A 
ENDROOT
BRANCH   9  10
ATOM     10  N   UNL     1      -2.331  13.002  19.954  0.00  0.00    +0.000 N 
ATOM     11  H   UNL     1      -3.344  12.960  19.858  0.00  0.00    +0.000 HD
ATOM     12  H   UNL     1      -1.898  13.868  19.643  0.00  0.00    +0.000 HD
ENDBRANCH   9  10
BRANCH   1  13
ATOM     13  C   UNL     1      -2.623  12.499  23.036  0.00  0.00    +0.000 C 
ATOM     14  O   UNL     1      -3.409  11.934  23.792  0.00  0.00    +0.000 OA
BRANCH  13  16
ATOM     15  C   UNL     1      -1.158  14.237  23.588  0.00  0.00    +0.000 C 
ATOM     16  O   UNL     1      -2.425  13.853  23.047  0.00  0.00    +0.000 OA
ENDBRANCH  13  16
ENDBRANCH   1  13
BRANCH   5  17
ATOM     17  C   UNL     1       2.101   8.313  18.818  0.00  0.00    +0.000 C 
ATOM     18  C   UNL     1       2.887   7.500  18.408  0.00  0.00    +0.000 C 
BRANCH  18  19
ATOM     19  C   UNL     1       3.818   6.521  17.929  0.00  0.00    +0.000 A 
ATOM     20  C   UNL     1       4.435   6.689  16.688  0.00  0.00    +0.000 A 
ATOM     21  C   UNL     1       5.317   5.718  16.212  0.00  0.00    +0.000 A 
ATOM     22  C   UNL     1       5.569   4.572  16.970  0.00  0.00    +0.000 A 
ATOM     23  C   UNL     1       4.927   4.373  18.196  0.00  0.00    +0.000 A 
ATOM     24  C   UNL     1       4.101   5.385  18.696  0.00  0.00    +0.000 A 
BRANCH  23  25
ATOM     25  N   UNL     1       5.280   3.282  19.001  0.00  0.00    +0.000 N 
ATOM     26  H   UNL     1       5.899   3.527  19.769  0.00  0.00    +0.000 HD
ATOM     27  H   UNL     1       5.621   2.481  18.479  0.00  0.00    +0.000 HD
ENDBRANCH  23  25
ENDBRANCH  18  19
ENDBRANCH   5  17
TORSDOF 6
ENDMDL
MODEL 9
REMARK VINA RESULT:      -6.9      5.002      9.867
REMARK  Name = 
REMARK  7 active torsions:
REMARK  status: ('A' for Active; 'I' for Inactive)
REMARK    1  A    between atoms: C_1  and  O_2
REMARK    2  A    between atoms: O_2  and  C_3
REMARK    3  A    between atoms: C_3  and  C_5
REMARK    4  A    between atoms: C_9  and  C_10
REMARK    5  A    between atoms: C_11  and  C_12
REMARK    6  A    between atoms: C_16  and  N_17
REMARK    7  A    between atoms: C_22  and  N_23
REMARK                            x       y       z     vdW  Elec       q    Type
REMARK                         _______ _______ _______ _____ _____    ______ ____
ROOT
ATOM      1  C   UNL     1      -3.169  11.523  18.058  0.00  0.00    +0.000 A 
ATOM      2  S   UNL     1      -2.767  10.027  17.307  0.00  0.00    +0.000 S 
ATOM      3  C   UNL     1      -1.147  10.076  17.848  0.00  0.00    +0.000 A 
ATOM      4  C   UNL     1      -0.132   9.137  17.611  0.00  0.00    +0.000 A 
ATOM      5  C   UNL     1       1.119   9.390  18.160  0.00  0.00    +0.000 A 
ATOM      6  C   UNL     1       1.286  10.549  18.906  0.00  0.00    +0.000 A 
ATOM      7  N   UNL     1       0.330  11.480  19.152  0.00  0.00    +0.000 NA
ATOM      8  C   UNL     1      -0.897  11.219  18.605  0.00  0.00    +0.000 A 
ATOM      9  C   UNL     1      -2.074  12.047  18.718  0.00  0.00    +0.000 A 
ENDROOT
BRANCH   9  10
ATOM     10  N   UNL     1      -2.075  13.215  19.410  0.00  0.00    +0.000 N 
ATOM     11  H   UNL     1      -1.324  13.892  19.287  0.00  0.00    +0.000 HD
ATOM     12  H   UNL     1      -2.883  13.547  19.931  0.00  0.00    +0.000 HD
ENDBRANCH   9  10
BRANCH   1  13
ATOM     13  C   UNL     1      -4.534  11.990  17.898  0.00  0.00    +0.000 C 
ATOM     14  O   UNL     1      -5.209  11.897  16.876  0.00  0.00    +0.000 OA
BRANCH  13  16
ATOM     15  C   UNL     1      -5.939  11.760  19.755  0.00  0.00    +0.000 C 
ATOM     16  O   UNL     1      -5.000  12.573  19.046  0.00  0.00    +0.000 OA
ENDBRANCH  13  16
ENDBRANCH   1  13
BRANCH   5  17
ATOM     17  C   UNL     1       2.187   8.459  17.945  0.00  0.00    +0.000 C 
ATOM     18  C   UNL     1       3.070   7.674  17.721  0.00  0.00    +0.000 C 
BRANCH  18  19
ATOM     19  C   UNL     1       4.117   6.729  17.465  0.00  0.00    +0.000 A 
ATOM     20  C   UNL     1       4.860   6.809  16.285  0.00  0.00    +0.000 A 
ATOM     21  C   UNL     1       5.857   5.869  16.026  0.00  0.00    +0.000 A 
ATOM     22  C   UNL     1       6.099   4.838  16.938  0.00  0.00    +0.000 A 
ATOM     23  C   UNL     1       5.335   4.723  18.103  0.00  0.00    +0.000 A 
ATOM     24  C   UNL     1       4.388   5.713  18.388  0.00  0.00    +0.000 A 
BRANCH  23  25
ATOM     25  N   UNL     1       5.668   3.761  19.066  0.00  0.00    +0.000 N 
ATOM     26  H   UNL     1       5.264   2.847  18.884  0.00  0.00    +0.000 HD
ATOM     27  H   UNL     1       5.507   4.065  20.021  0.00  0.00    +0.000 HD
ENDBRANCH  23  25
ENDBRANCH  18  19
ENDBRANCH   5  17
TORSDOF 6
ENDMDL
