MODEL 1
REMARK VINA RESULT:      -8.3      0.000      0.000
REMARK  Name = 
REMARK  8 active torsions:
REMARK  status: ('A' for Active; 'I' for Inactive)
REMARK    1  A    between atoms: C_1  and  N_2
REMARK    2  A    between atoms: N_2  and  C_3
REMARK    3  A    between atoms: C_8  and  O_9
REMARK    4  A    between atoms: C_10  and  O_11
REMARK    5  A    between atoms: C_14  and  C_15
REMARK    6  A    between atoms: C_15  and  C_16
REMARK    7  A    between atoms: C_19  and  O_20
REMARK    8  A    between atoms: C_21  and  O_22
REMARK                            x       y       z     vdW  Elec       q    Type
REMARK                         _______ _______ _______ _____ _____    ______ ____
ROOT
ATOM      1  C   UNL     1       6.632   6.779  17.456  0.00  0.00    +0.000 C 
ATOM      2  N   UNL     1       5.461   5.801  17.669  0.00  0.00    +0.000 N 
ATOM      3  C   UNL     1       6.081   4.886  18.762  0.00  0.00    +0.000 C 
ATOM      4  C   UNL     1       5.312   5.054  16.350  0.00  0.00    +0.000 C 
ATOM      5  C   UNL     1       4.514   3.787  16.496  0.00  0.00    +0.000 C 
ATOM      6  C   UNL     1       3.356   3.868  17.449  0.00  0.00    +0.000 A 
ATOM      7  C   UNL     1       2.577   2.704  17.531  0.00  0.00    +0.000 A 
ATOM      8  C   UNL     1       1.578   2.612  18.484  0.00  0.00    +0.000 A 
ATOM      9  C   UNL     1       1.330   3.684  19.332  0.00  0.00    +0.000 A 
ATOM     10  C   UNL     1       2.065   4.855  19.256  0.00  0.00    +0.000 A 
ATOM     11  C   UNL     1       3.106   4.970  18.323  0.00  0.00    +0.000 A 
ATOM     12  C   UNL     1       3.934   6.282  18.319  0.00  0.00    +0.000 C 
ENDROOT
BRANCH   8  13
ATOM     13  O   UNL     1       0.832   1.483  18.630  0.00  0.00    +0.000 OA
ATOM     14  H   UNL     1       0.469   1.472  19.532  0.00  0.00    +0.000 HD
ENDBRANCH   8  13
BRANCH   9  15
ATOM     15  O   UNL     1       0.343   3.592  20.265  0.00  0.00    +0.000 OA
ATOM     16  H   UNL     1      -0.424   4.047  19.865  0.00  0.00    +0.000 HD
ENDBRANCH   9  15
BRANCH  12  17
ATOM     17  C   UNL     1       2.880   7.428  17.743  0.00  0.00    +0.000 C 
BRANCH  17  18
ATOM     18  C   UNL     1       2.082   8.572  18.503  0.00  0.00    +0.000 A 
ATOM     19  C   UNL     1       1.760   8.319  19.874  0.00  0.00    +0.000 A 
ATOM     20  C   UNL     1       0.795   9.050  20.613  0.00  0.00    +0.000 A 
ATOM     21  C   UNL     1       0.131  10.086  19.985  0.00  0.00    +0.000 A 
ATOM     22  C   UNL     1       0.489  10.426  18.681  0.00  0.00    +0.000 A 
ATOM     23  C   UNL     1       1.434   9.679  17.929  0.00  0.00    +0.000 A 
BRANCH  21  24
ATOM     24  O   UNL     1      -0.885  10.783  20.582  0.00  0.00    +0.000 OA
ATOM     25  H   UNL     1      -1.347  11.284  19.883  0.00  0.00    +0.000 HD
ENDBRANCH  21  24
BRANCH  22  26
ATOM     26  O   UNL     1      -0.169  11.507  18.097  0.00  0.00    +0.000 OA
ATOM     27  H   UNL     1       0.484  12.229  18.190  0.00  0.00    +0.000 HD
ENDBRANCH  22  26
ENDBRANCH  17  18
ENDBRANCH  12  17
TORSDOF 6
ENDMDL
MODEL 2
REMARK VINA RESULT:      -8.1      0.748      1.457
REMARK  Name = 
REMARK  8 active torsions:
REMARK  status: ('A' for Active; 'I' for Inactive)
REMARK    1  A    between atoms: C_1  and  N_2
REMARK    2  A    between atoms: N_2  and  C_3
REMARK    3  A    between atoms: C_8  and  O_9
REMARK    4  A    between atoms: C_10  and  O_11
REMARK    5  A    between atoms: C_14  and  C_15
REMARK    6  A    between atoms: C_15  and  C_16
REMARK    7  A    between atoms: C_19  and  O_20
REMARK    8  A    between atoms: C_21  and  O_22
REMARK                            x       y       z     vdW  Elec       q    Type
REMARK                         _______ _______ _______ _____ _____    ______ ____
ROOT
ATOM      1  C   UNL     1       6.544   7.038  17.430  0.00  0.00    +0.000 C 
ATOM      2  N   UNL     1       5.417   6.009  17.646  0.00  0.00    +0.000 N 
ATOM      3  C   UNL     1       6.108   5.078  18.679  0.00  0.00    +0.000 C 
ATOM      4  C   UNL     1       5.247   5.308  16.305  0.00  0.00    +0.000 C 
ATOM      5  C   UNL     1       4.500   4.008  16.429  0.00  0.00    +0.000 C 
ATOM      6  C   UNL     1       3.375   4.010  17.424  0.00  0.00    +0.000 A 
ATOM      7  C   UNL     1       2.641   2.815  17.488  0.00  0.00    +0.000 A 
ATOM      8  C   UNL     1       1.682   2.651  18.471  0.00  0.00    +0.000 A 
ATOM      9  C   UNL     1       1.427   3.681  19.369  0.00  0.00    +0.000 A 
ATOM     10  C   UNL     1       2.117   4.880  19.313  0.00  0.00    +0.000 A 
ATOM     11  C   UNL     1       3.118   5.068  18.349  0.00  0.00    +0.000 A 
ATOM     12  C   UNL     1       3.898   6.409  18.367  0.00  0.00    +0.000 C 
ENDROOT
BRANCH   8  13
ATOM     13  O   UNL     1       0.983   1.491  18.599  0.00  0.00    +0.000 OA
ATOM     14  H   UNL     1       1.187   0.924  17.836  0.00  0.00    +0.000 HD
ENDBRANCH   8  13
BRANCH   9  15
ATOM     15  O   UNL     1       0.478   3.516  20.331  0.00  0.00    +0.000 OA
ATOM     16  H   UNL     1      -0.373   3.657  19.872  0.00  0.00    +0.000 HD
ENDBRANCH   9  15
BRANCH  12  17
ATOM     17  C   UNL     1       2.784   7.536  17.873  0.00  0.00    +0.000 C 
BRANCH  17  18
ATOM     18  C   UNL     1       1.842   8.496  18.719  0.00  0.00    +0.000 A 
ATOM     19  C   UNL     1       1.475   9.734  18.100  0.00  0.00    +0.000 A 
ATOM     20  C   UNL     1       0.928  10.840  18.797  0.00  0.00    +0.000 A 
ATOM     21  C   UNL     1       0.713  10.722  20.156  0.00  0.00    +0.000 A 
ATOM     22  C   UNL     1       0.966   9.499  20.776  0.00  0.00    +0.000 A 
ATOM     23  C   UNL     1       1.540   8.398  20.087  0.00  0.00    +0.000 A 
BRANCH  21  24
ATOM     24  O   UNL     1       0.284  11.766  20.931  0.00  0.00    +0.000 OA
ATOM     25  H   UNL     1       0.205  11.438  21.847  0.00  0.00    +0.000 HD
ENDBRANCH  21  24
BRANCH  22  26
ATOM     26  O   UNL     1       0.693   9.403  22.139  0.00  0.00    +0.000 OA
ATOM     27  H   UNL     1       1.533   9.694  22.545  0.00  0.00    +0.000 HD
ENDBRANCH  22  26
ENDBRANCH  17  18
ENDBRANCH  12  17
TORSDOF 6
ENDMDL
MODEL 3
REMARK VINA RESULT:      -7.7      2.698      3.915
REMARK  Name = 
REMARK  8 active torsions:
REMARK  status: ('A' for Active; 'I' for Inactive)
REMARK    1  A    between atoms: C_1  and  N_2
REMARK    2  A    between atoms: N_2  and  C_3
REMARK    3  A    between atoms: C_8  and  O_9
REMARK    4  A    between atoms: C_10  and  O_11
REMARK    5  A    between atoms: C_14  and  C_15
REMARK    6  A    between atoms: C_15  and  C_16
REMARK    7  A    between atoms: C_19  and  O_20
REMARK    8  A    between atoms: C_21  and  O_22
REMARK                            x       y       z     vdW  Elec       q    Type
REMARK                         _______ _______ _______ _____ _____    ______ ____
ROOT
ATOM      1  C   UNL     1       0.848   3.259  20.194  0.00  0.00    +0.000 C 
ATOM      2  N   UNL     1       2.103   3.667  19.399  0.00  0.00    +0.000 N 
ATOM      3  C   UNL     1       1.811   2.936  18.059  0.00  0.00    +0.000 C 
ATOM      4  C   UNL     1       3.273   3.023  20.130  0.00  0.00    +0.000 C 
ATOM      5  C   UNL     1       4.513   2.957  19.282  0.00  0.00    +0.000 C 
ATOM      6  C   UNL     1       4.744   4.148  18.396  0.00  0.00    +0.000 A 
ATOM      7  C   UNL     1       5.936   4.111  17.656  0.00  0.00    +0.000 A 
ATOM      8  C   UNL     1       6.179   5.078  16.698  0.00  0.00    +0.000 A 
ATOM      9  C   UNL     1       5.259   6.100  16.495  0.00  0.00    +0.000 A 
ATOM     10  C   UNL     1       4.087   6.177  17.229  0.00  0.00    +0.000 A 
ATOM     11  C   UNL     1       3.794   5.195  18.186  0.00  0.00    +0.000 A 
ATOM     12  C   UNL     1       2.442   5.298  18.940  0.00  0.00    +0.000 C 
ENDROOT
BRANCH   8  13
ATOM     13  O   UNL     1       7.298   5.052  15.924  0.00  0.00    +0.000 OA
ATOM     14  H   UNL     1       7.115   5.543  15.104  0.00  0.00    +0.000 HD
ENDBRANCH   8  13
BRANCH   9  15
ATOM     15  O   UNL     1       5.505   7.053  15.554  0.00  0.00    +0.000 OA
ATOM     16  H   UNL     1       6.305   6.743  15.087  0.00  0.00    +0.000 HD
ENDBRANCH   9  15
BRANCH  12  17
ATOM     17  C   UNL     1       2.618   6.630  19.914  0.00  0.00    +0.000 C 
BRANCH  17  18
ATOM     18  C   UNL     1       1.838   8.014  19.922  0.00  0.00    +0.000 A 
ATOM     19  C   UNL     1       1.079   8.310  21.099  0.00  0.00    +0.000 A 
ATOM     20  C   UNL     1       0.078   9.311  21.169  0.00  0.00    +0.000 A 
ATOM     21  C   UNL     1      -0.177  10.069  20.042  0.00  0.00    +0.000 A 
ATOM     22  C   UNL     1       0.610   9.877  18.907  0.00  0.00    +0.000 A 
ATOM     23  C   UNL     1       1.594   8.857  18.824  0.00  0.00    +0.000 A 
BRANCH  21  24
ATOM     24  O   UNL     1      -1.190  10.988  19.982  0.00  0.00    +0.000 OA
ATOM     25  H   UNL     1      -1.979  10.581  20.388  0.00  0.00    +0.000 HD
ENDBRANCH  21  24
BRANCH  22  26
ATOM     26  O   UNL     1       0.355  10.691  17.806  0.00  0.00    +0.000 OA
ATOM     27  H   UNL     1       1.006  10.372  17.150  0.00  0.00    +0.000 HD
ENDBRANCH  22  26
ENDBRANCH  17  18
ENDBRANCH  12  17
TORSDOF 6
ENDMDL
MODEL 4
REMARK VINA RESULT:      -7.6      2.727      4.103
REMARK  Name = 
REMARK  8 active torsions:
REMARK  status: ('A' for Active; 'I' for Inactive)
REMARK    1  A    between atoms: C_1  and  N_2
REMARK    2  A    between atoms: N_2  and  C_3
REMARK    3  A    between atoms: C_8  and  O_9
REMARK    4  A    between atoms: C_10  and  O_11
REMARK    5  A    between atoms: C_14  and  C_15
REMARK    6  A    between atoms: C_15  and  C_16
REMARK    7  A    between atoms: C_19  and  O_20
REMARK    8  A    between atoms: C_21  and  O_22
REMARK                            x       y       z     vdW  Elec       q    Type
REMARK                         _______ _______ _______ _____ _____    ______ ____
ROOT
ATOM      1  C   UNL     1       0.829   3.366  20.195  0.00  0.00    +0.000 C 
ATOM      2  N   UNL     1       2.104   3.726  19.409  0.00  0.00    +0.000 N 
ATOM      3  C   UNL     1       1.879   2.861  18.138  0.00  0.00    +0.000 C 
ATOM      4  C   UNL     1       3.259   3.186  20.241  0.00  0.00    +0.000 C 
ATOM      5  C   UNL     1       4.532   3.069  19.447  0.00  0.00    +0.000 C 
ATOM      6  C   UNL     1       4.770   4.174  18.457  0.00  0.00    +0.000 A 
ATOM      7  C   UNL     1       5.990   4.094  17.767  0.00  0.00    +0.000 A 
ATOM      8  C   UNL     1       6.248   4.969  16.728  0.00  0.00    +0.000 A 
ATOM      9  C   UNL     1       5.314   5.943  16.393  0.00  0.00    +0.000 A 
ATOM     10  C   UNL     1       4.114   6.061  17.074  0.00  0.00    +0.000 A 
ATOM     11  C   UNL     1       3.807   5.170  18.112  0.00  0.00    +0.000 A 
ATOM     12  C   UNL     1       2.425   5.313  18.804  0.00  0.00    +0.000 C 
ENDROOT
BRANCH   8  13
ATOM     13  O   UNL     1       7.396   4.895  16.000  0.00  0.00    +0.000 OA
ATOM     14  H   UNL     1       8.141   5.121  16.582  0.00  0.00    +0.000 HD
ENDBRANCH   8  13
BRANCH   9  15
ATOM     15  O   UNL     1       5.575   6.805  15.373  0.00  0.00    +0.000 OA
ATOM     16  H   UNL     1       6.419   7.233  15.615  0.00  0.00    +0.000 HD
ENDBRANCH   9  15
BRANCH  12  17
ATOM     17  C   UNL     1       2.536   6.738  19.648  0.00  0.00    +0.000 C 
BRANCH  17  18
ATOM     18  C   UNL     1       1.760   8.112  19.461  0.00  0.00    +0.000 A 
ATOM     19  C   UNL     1       1.960   8.791  18.217  0.00  0.00    +0.000 A 
ATOM     20  C   UNL     1       1.628  10.151  17.991  0.00  0.00    +0.000 A 
ATOM     21  C   UNL     1       1.058  10.870  19.023  0.00  0.00    +0.000 A 
ATOM     22  C   UNL     1       0.757  10.216  20.217  0.00  0.00    +0.000 A 
ATOM     23  C   UNL     1       1.113   8.863  20.457  0.00  0.00    +0.000 A 
BRANCH  21  24
ATOM     24  O   UNL     1       0.797  12.211  18.934  0.00  0.00    +0.000 OA
ATOM     25  H   UNL     1      -0.173  12.320  18.916  0.00  0.00    +0.000 HD
ENDBRANCH  21  24
BRANCH  22  26
ATOM     26  O   UNL     1       0.140  10.963  21.219  0.00  0.00    +0.000 OA
ATOM     27  H   UNL     1      -0.769  11.069  20.876  0.00  0.00    +0.000 HD
ENDBRANCH  22  26
ENDBRANCH  17  18
ENDBRANCH  12  17
TORSDOF 6
ENDMDL
MODEL 5
REMARK VINA RESULT:      -7.5      2.790      4.194
REMARK  Name = 
REMARK  8 active torsions:
REMARK  status: ('A' for Active; 'I' for Inactive)
REMARK    1  A    between atoms: C_1  and  N_2
REMARK    2  A    between atoms: N_2  and  C_3
REMARK    3  A    between atoms: C_8  and  O_9
REMARK    4  A    between atoms: C_10  and  O_11
REMARK    5  A    between atoms: C_14  and  C_15
REMARK    6  A    between atoms: C_15  and  C_16
REMARK    7  A    between atoms: C_19  and  O_20
REMARK    8  A    between atoms: C_21  and  O_22
REMARK                            x       y       z     vdW  Elec       q    Type
REMARK                         _______ _______ _______ _____ _____    ______ ____
ROOT
ATOM      1  C   UNL     1       0.794   3.691  20.348  0.00  0.00    +0.000 C 
ATOM      2  N   UNL     1       2.035   3.992  19.485  0.00  0.00    +0.000 N 
ATOM      3  C   UNL     1       1.668   3.183  18.210  0.00  0.00    +0.000 C 
ATOM      4  C   UNL     1       3.204   3.351  20.222  0.00  0.00    +0.000 C 
ATOM      5  C   UNL     1       4.410   3.177  19.340  0.00  0.00    +0.000 C 
ATOM      6  C   UNL     1       4.656   4.294  18.366  0.00  0.00    +0.000 A 
ATOM      7  C   UNL     1       5.818   4.157  17.592  0.00  0.00    +0.000 A 
ATOM      8  C   UNL     1       6.065   5.046  16.561  0.00  0.00    +0.000 A 
ATOM      9  C   UNL     1       5.178   6.088  16.318  0.00  0.00    +0.000 A 
ATOM     10  C   UNL     1       4.037   6.263  17.082  0.00  0.00    +0.000 A 
ATOM     11  C   UNL     1       3.740   5.362  18.115  0.00  0.00    +0.000 A 
ATOM     12  C   UNL     1       2.421   5.572  18.904  0.00  0.00    +0.000 C 
ENDROOT
BRANCH   8  13
ATOM     13  O   UNL     1       7.154   4.920  15.755  0.00  0.00    +0.000 OA
ATOM     14  H   UNL     1       7.581   5.791  15.680  0.00  0.00    +0.000 HD
ENDBRANCH   8  13
BRANCH   9  15
ATOM     15  O   UNL     1       5.428   6.964  15.306  0.00  0.00    +0.000 OA
ATOM     16  H   UNL     1       4.890   6.640  14.556  0.00  0.00    +0.000 HD
ENDBRANCH   9  15
BRANCH  12  17
ATOM     17  C   UNL     1       2.683   6.960  19.776  0.00  0.00    +0.000 C 
BRANCH  17  18
ATOM     18  C   UNL     1       1.668   8.082  20.261  0.00  0.00    +0.000 A 
ATOM     19  C   UNL     1       1.274   9.048  19.281  0.00  0.00    +0.000 A 
ATOM     20  C   UNL     1       0.653  10.285  19.588  0.00  0.00    +0.000 A 
ATOM     21  C   UNL     1       0.390  10.579  20.912  0.00  0.00    +0.000 A 
ATOM     22  C   UNL     1       0.669   9.621  21.885  0.00  0.00    +0.000 A 
ATOM     23  C   UNL     1       1.316   8.393  21.585  0.00  0.00    +0.000 A 
BRANCH  21  24
ATOM     24  O   UNL     1      -0.114  11.787  21.316  0.00  0.00    +0.000 OA
ATOM     25  H   UNL     1      -0.972  11.911  20.867  0.00  0.00    +0.000 HD
ENDBRANCH  21  24
BRANCH  22  26
ATOM     26  O   UNL     1       0.347   9.935  23.204  0.00  0.00    +0.000 OA
ATOM     27  H   UNL     1       0.017  10.852  23.130  0.00  0.00    +0.000 HD
ENDBRANCH  22  26
ENDBRANCH  17  18
ENDBRANCH  12  17
TORSDOF 6
ENDMDL
MODEL 6
REMARK VINA RESULT:      -7.0      2.698      3.996
REMARK  Name = 
REMARK  8 active torsions:
REMARK  status: ('A' for Active; 'I' for Inactive)
REMARK    1  A    between atoms: C_1  and  N_2
REMARK    2  A    between atoms: N_2  and  C_3
REMARK    3  A    between atoms: C_8  and  O_9
REMARK    4  A    between atoms: C_10  and  O_11
REMARK    5  A    between atoms: C_14  and  C_15
REMARK    6  A    between atoms: C_15  and  C_16
REMARK    7  A    between atoms: C_19  and  O_20
REMARK    8  A    between atoms: C_21  and  O_22
REMARK                            x       y       z     vdW  Elec       q    Type
REMARK                         _______ _______ _______ _____ _____    ______ ____
ROOT
ATOM      1  C   UNL     1       0.833   4.443  19.825  0.00  0.00    +0.000 C 
ATOM      2  N   UNL     1       2.222   4.504  19.161  0.00  0.00    +0.000 N 
ATOM      3  C   UNL     1       2.209   3.146  18.405  0.00  0.00    +0.000 C 
ATOM      4  C   UNL     1       3.221   4.481  20.310  0.00  0.00    +0.000 C 
ATOM      5  C   UNL     1       4.608   4.114  19.856  0.00  0.00    +0.000 C 
ATOM      6  C   UNL     1       5.011   4.671  18.519  0.00  0.00    +0.000 A 
ATOM      7  C   UNL     1       6.327   4.380  18.132  0.00  0.00    +0.000 A 
ATOM      8  C   UNL     1       6.757   4.711  16.860  0.00  0.00    +0.000 A 
ATOM      9  C   UNL     1       5.894   5.360  15.984  0.00  0.00    +0.000 A 
ATOM     10  C   UNL     1       4.598   5.683  16.349  0.00  0.00    +0.000 A 
ATOM     11  C   UNL     1       4.120   5.333  17.620  0.00  0.00    +0.000 A 
ATOM     12  C   UNL     1       2.643   5.669  17.957  0.00  0.00    +0.000 C 
ENDROOT
BRANCH   8  13
ATOM     13  O   UNL     1       8.009   4.403  16.425  0.00  0.00    +0.000 OA
ATOM     14  H   UNL     1       8.650   4.745  17.072  0.00  0.00    +0.000 HD
ENDBRANCH   8  13
BRANCH   9  15
ATOM     15  O   UNL     1       6.323   5.689  14.734  0.00  0.00    +0.000 OA
ATOM     16  H   UNL     1       5.962   6.583  14.572  0.00  0.00    +0.000 HD
ENDBRANCH   9  15
BRANCH  12  17
ATOM     17  C   UNL     1       2.616   7.325  18.066  0.00  0.00    +0.000 C 
BRANCH  17  18
ATOM     18  C   UNL     1       1.930   8.278  19.137  0.00  0.00    +0.000 A 
ATOM     19  C   UNL     1       1.849   7.777  20.475  0.00  0.00    +0.000 A 
ATOM     20  C   UNL     1       1.005   8.318  21.478  0.00  0.00    +0.000 A 
ATOM     21  C   UNL     1       0.220   9.409  21.160  0.00  0.00    +0.000 A 
ATOM     22  C   UNL     1       0.344   9.986  19.896  0.00  0.00    +0.000 A 
ATOM     23  C   UNL     1       1.167   9.431  18.881  0.00  0.00    +0.000 A 
BRANCH  21  24
ATOM     24  O   UNL     1      -0.698   9.938  22.027  0.00  0.00    +0.000 OA
ATOM     25  H   UNL     1      -0.488   9.598  22.918  0.00  0.00    +0.000 HD
ENDBRANCH  21  24
BRANCH  22  26
ATOM     26  O   UNL     1      -0.429  11.113  19.628  0.00  0.00    +0.000 OA
ATOM     27  H   UNL     1      -0.665  11.427  20.523  0.00  0.00    +0.000 HD
ENDBRANCH  22  26
ENDBRANCH  17  18
ENDBRANCH  12  17
TORSDOF 6
ENDMDL
MODEL 7
REMARK VINA RESULT:      -6.9      2.988      4.490
REMARK  Name = 
REMARK  8 active torsions:
REMARK  status: ('A' for Active; 'I' for Inactive)
REMARK    1  A    between atoms: C_1  and  N_2
REMARK    2  A    between atoms: N_2  and  C_3
REMARK    3  A    between atoms: C_8  and  O_9
REMARK    4  A    between atoms: C_10  and  O_11
REMARK    5  A    between atoms: C_14  and  C_15
REMARK    6  A    between atoms: C_15  and  C_16
REMARK    7  A    between atoms: C_19  and  O_20
REMARK    8  A    between atoms: C_21  and  O_22
REMARK                            x       y       z     vdW  Elec       q    Type
REMARK                         _______ _______ _______ _____ _____    ______ ____
ROOT
ATOM      1  C   UNL     1       1.172   4.145  17.714  0.00  0.00    +0.000 C 
ATOM      2  N   UNL     1       2.619   4.598  17.989  0.00  0.00    +0.000 N 
ATOM      3  C   UNL     1       3.390   3.449  17.282  0.00  0.00    +0.000 C 
ATOM      4  C   UNL     1       2.787   4.520  19.500  0.00  0.00    +0.000 C 
ATOM      5  C   UNL     1       4.233   4.517  19.917  0.00  0.00    +0.000 C 
ATOM      6  C   UNL     1       5.133   5.404  19.105  0.00  0.00    +0.000 A 
ATOM      7  C   UNL     1       6.467   5.448  19.539  0.00  0.00    +0.000 A 
ATOM      8  C   UNL     1       7.414   6.110  18.780  0.00  0.00    +0.000 A 
ATOM      9  C   UNL     1       7.035   6.758  17.609  0.00  0.00    +0.000 A 
ATOM     10  C   UNL     1       5.722   6.753  17.171  0.00  0.00    +0.000 A 
ATOM     11  C   UNL     1       4.742   6.064  17.899  0.00  0.00    +0.000 A 
ATOM     12  C   UNL     1       3.297   6.046  17.333  0.00  0.00    +0.000 C 
ENDROOT
BRANCH   8  13
ATOM     13  O   UNL     1       8.727   6.135  19.138  0.00  0.00    +0.000 OA
ATOM     14  H   UNL     1       9.124   5.280  18.902  0.00  0.00    +0.000 HD
ENDBRANCH   8  13
BRANCH   9  15
ATOM     15  O   UNL     1       7.970   7.413  16.868  0.00  0.00    +0.000 OA
ATOM     16  H   UNL     1       8.538   7.865  17.522  0.00  0.00    +0.000 HD
ENDBRANCH   9  15
BRANCH  12  17
ATOM     17  C   UNL     1       2.768   7.608  17.512  0.00  0.00    +0.000 C 
BRANCH  17  18
ATOM     18  C   UNL     1       1.879   8.274  18.649  0.00  0.00    +0.000 A 
ATOM     19  C   UNL     1       1.151   9.450  18.279  0.00  0.00    +0.000 A 
ATOM     20  C   UNL     1       0.576  10.354  19.208  0.00  0.00    +0.000 A 
ATOM     21  C   UNL     1       0.705  10.084  20.557  0.00  0.00    +0.000 A 
ATOM     22  C   UNL     1       1.321   8.897  20.952  0.00  0.00    +0.000 A 
ATOM     23  C   UNL     1       1.922   8.003  20.027  0.00  0.00    +0.000 A 
BRANCH  21  24
ATOM     24  O   UNL     1       0.273  10.946  21.528  0.00  0.00    +0.000 OA
ATOM     25  H   UNL     1       1.041  11.476  21.812  0.00  0.00    +0.000 HD
ENDBRANCH  21  24
BRANCH  22  26
ATOM     26  O   UNL     1       1.391   8.637  22.319  0.00  0.00    +0.000 OA
ATOM     27  H   UNL     1       1.011   9.448  22.710  0.00  0.00    +0.000 HD
ENDBRANCH  22  26
ENDBRANCH  17  18
ENDBRANCH  12  17
TORSDOF 6
ENDMDL
MODEL 8
REMARK VINA RESULT:      -6.8      2.909      4.263
REMARK  Name = 
REMARK  8 active torsions:
REMARK  status: ('A' for Active; 'I' for Inactive)
REMARK    1  A    between atoms: C_1  and  N_2
REMARK    2  A    between atoms: N_2  and  C_3
REMARK    3  A    between atoms: C_8  and  O_9
REMARK    4  A    between atoms: C_10  and  O_11
REMARK    5  A    between atoms: C_14  and  C_15
REMARK    6  A    between atoms: C_15  and  C_16
REMARK    7  A    between atoms: C_19  and  O_20
REMARK    8  A    between atoms: C_21  and  O_22
REMARK                            x       y       z     vdW  Elec       q    Type
REMARK                         _______ _______ _______ _____ _____    ______ ____
ROOT
ATOM      1  C   UNL     1       1.078   3.928  17.827  0.00  0.00    +0.000 C 
ATOM      2  N   UNL     1       2.518   4.416  18.076  0.00  0.00    +0.000 N 
ATOM      3  C   UNL     1       3.306   3.270  17.383  0.00  0.00    +0.000 C 
ATOM      4  C   UNL     1       2.704   4.373  19.587  0.00  0.00    +0.000 C 
ATOM      5  C   UNL     1       4.154   4.409  19.987  0.00  0.00    +0.000 C 
ATOM      6  C   UNL     1       5.026   5.299  19.147  0.00  0.00    +0.000 A 
ATOM      7  C   UNL     1       6.363   5.379  19.565  0.00  0.00    +0.000 A 
ATOM      8  C   UNL     1       7.288   6.046  18.783  0.00  0.00    +0.000 A 
ATOM      9  C   UNL     1       6.882   6.661  17.604  0.00  0.00    +0.000 A 
ATOM     10  C   UNL     1       5.565   6.620  17.180  0.00  0.00    +0.000 A 
ATOM     11  C   UNL     1       4.608   5.926  17.933  0.00  0.00    +0.000 A 
ATOM     12  C   UNL     1       3.158   5.865  17.384  0.00  0.00    +0.000 C 
ENDROOT
BRANCH   8  13
ATOM     13  O   UNL     1       8.603   6.106  19.125  0.00  0.00    +0.000 OA
ATOM     14  H   UNL     1       8.937   6.993  18.905  0.00  0.00    +0.000 HD
ENDBRANCH   8  13
BRANCH   9  15
ATOM     15  O   UNL     1       7.795   7.321  16.839  0.00  0.00    +0.000 OA
ATOM     16  H   UNL     1       7.373   8.176  16.626  0.00  0.00    +0.000 HD
ENDBRANCH   9  15
BRANCH  12  17
ATOM     17  C   UNL     1       2.597   7.419  17.538  0.00  0.00    +0.000 C 
BRANCH  17  18
ATOM     18  C   UNL     1       2.033   8.193  18.806  0.00  0.00    +0.000 A 
ATOM     19  C   UNL     1       2.030   7.471  20.042  0.00  0.00    +0.000 A 
ATOM     20  C   UNL     1       1.286   7.855  21.186  0.00  0.00    +0.000 A 
ATOM     21  C   UNL     1       0.527   9.008  21.122  0.00  0.00    +0.000 A 
ATOM     22  C   UNL     1       0.583   9.790  19.968  0.00  0.00    +0.000 A 
ATOM     23  C   UNL     1       1.304   9.394  18.812  0.00  0.00    +0.000 A 
BRANCH  21  24
ATOM     24  O   UNL     1      -0.301   9.405  22.137  0.00  0.00    +0.000 OA
ATOM     25  H   UNL     1      -1.037   9.905  21.736  0.00  0.00    +0.000 HD
ENDBRANCH  21  24
BRANCH  22  26
ATOM     26  O   UNL     1      -0.159  10.969  19.958  0.00  0.00    +0.000 OA
ATOM     27  H   UNL     1      -0.985  10.705  20.410  0.00  0.00    +0.000 HD
ENDBRANCH  22  26
ENDBRANCH  17  18
ENDBRANCH  12  17
TORSDOF 6
ENDMDL
MODEL 9
REMARK VINA RESULT:      -6.8      2.880      4.217
REMARK  Name = 
REMARK  8 active torsions:
REMARK  status: ('A' for Active; 'I' for Inactive)
REMARK    1  A    between atoms: C_1  and  N_2
REMARK    2  A    between atoms: N_2  and  C_3
REMARK    3  A    between atoms: C_8  and  O_9
REMARK    4  A    between atoms: C_10  and  O_11
REMARK    5  A    between atoms: C_14  and  C_15
REMARK    6  A    between atoms: C_15  and  C_16
REMARK    7  A    between atoms: C_19  and  O_20
REMARK    8  A    between atoms: C_21  and  O_22
REMARK                            x       y       z     vdW  Elec       q    Type
REMARK                         _______ _______ _______ _____ _____    ______ ____
ROOT
ATOM      1  C   UNL     1       1.420   1.890  18.722  0.00  0.00    +0.000 C 
ATOM      2  N   UNL     1       2.658   2.806  18.669  0.00  0.00    +0.000 N 
ATOM      3  C   UNL     1       3.693   1.812  18.073  0.00  0.00    +0.000 C 
ATOM      4  C   UNL     1       2.984   3.131  20.120  0.00  0.00    +0.000 C 
ATOM      5  C   UNL     1       4.383   3.657  20.290  0.00  0.00    +0.000 C 
ATOM      6  C   UNL     1       4.861   4.563  19.191  0.00  0.00    +0.000 A 
ATOM      7  C   UNL     1       6.141   5.104  19.387  0.00  0.00    +0.000 A 
ATOM      8  C   UNL     1       6.743   5.828  18.374  0.00  0.00    +0.000 A 
ATOM      9  C   UNL     1       6.064   6.046  17.180  0.00  0.00    +0.000 A 
ATOM     10  C   UNL     1       4.789   5.547  16.969  0.00  0.00    +0.000 A 
ATOM     11  C   UNL     1       4.163   4.781  17.963  0.00  0.00    +0.000 A 
ATOM     12  C   UNL     1       2.758   4.201  17.653  0.00  0.00    +0.000 C 
ENDROOT
BRANCH   8  13
ATOM     13  O   UNL     1       8.002   6.327  18.503  0.00  0.00    +0.000 OA
ATOM     14  H   UNL     1       8.629   5.670  18.154  0.00  0.00    +0.000 HD
ENDBRANCH   8  13
BRANCH   9  15
ATOM     15  O   UNL     1       6.658   6.763  16.188  0.00  0.00    +0.000 OA
ATOM     16  H   UNL     1       7.582   6.881  16.482  0.00  0.00    +0.000 HD
ENDBRANCH   9  15
BRANCH  12  17
ATOM     17  C   UNL     1       1.764   5.530  17.621  0.00  0.00    +0.000 C 
BRANCH  17  18
ATOM     18  C   UNL     1       1.874   6.919  18.383  0.00  0.00    +0.000 A 
ATOM     19  C   UNL     1       1.822   6.866  19.813  0.00  0.00    +0.000 A 
ATOM     20  C   UNL     1       1.579   7.991  20.642  0.00  0.00    +0.000 A 
ATOM     21  C   UNL     1       1.398   9.223  20.045  0.00  0.00    +0.000 A 
ATOM     22  C   UNL     1       1.540   9.331  18.662  0.00  0.00    +0.000 A 
ATOM     23  C   UNL     1       1.755   8.204  17.826  0.00  0.00    +0.000 A 
BRANCH  21  24
ATOM     24  O   UNL     1       1.060  10.345  20.753  0.00  0.00    +0.000 OA
ATOM     25  H   UNL     1       0.753  10.055  21.632  0.00  0.00    +0.000 HD
ENDBRANCH  21  24
BRANCH  22  26
ATOM     26  O   UNL     1       1.397  10.599  18.101  0.00  0.00    +0.000 OA
ATOM     27  H   UNL     1       2.316  10.933  18.094  0.00  0.00    +0.000 HD
ENDBRANCH  22  26
ENDBRANCH  17  18
ENDBRANCH  12  17
TORSDOF 6
ENDMDL
