MODEL 1
REMARK VINA RESULT:      -7.5      0.000      0.000
REMARK  Name = 
REMARK  7 active torsions:
REMARK  status: ('A' for Active; 'I' for Inactive)
REMARK    1  A    between atoms: C_1  and  O_2
REMARK    2  A    between atoms: O_2  and  C_3
REMARK    3  A    between atoms: C_8  and  N_9
REMARK    4  A    between atoms: C_10  and  C_11
REMARK    5  A    between atoms: C_12  and  O_13
REMARK    6  A    between atoms: C_15  and  C_16
REMARK    7  A    between atoms: C_15  and  C_17
REMARK                            x       y       z     vdW  Elec       q    Type
REMARK                         _______ _______ _______ _____ _____    ______ ____
ROOT
ATOM      1  C   UNL     1       3.440   3.874  18.037  0.00  0.00    +0.000 C 
ATOM      2  C   UNL     1       4.152   3.555  19.130  0.00  0.00    +0.000 C 
ATOM      3  O   UNL     1       3.583   3.261  20.338  0.00  0.00    +0.000 OA
ATOM      4  C   UNL     1       2.202   3.561  20.484  0.00  0.00    +0.000 C 
ATOM      5  C   UNL     1       2.040   4.936  21.142  0.00  0.00    +0.000 C 
ATOM      6  C   UNL     1       1.634   2.484  21.406  0.00  0.00    +0.000 C 
ATOM      7  O   UNL     1       1.418   3.526  19.288  0.00  0.00    +0.000 OA
ATOM      8  C   UNL     1       1.978   3.844  18.108  0.00  0.00    +0.000 C 
ATOM      9  O   UNL     1       1.287   4.060  17.117  0.00  0.00    +0.000 OA
ENDROOT
BRANCH   1  11
ATOM     10  N   UNL     1       5.166   3.588  16.331  0.00  0.00    +0.000 NA
ATOM     11  C   UNL     1       4.107   4.210  16.747  0.00  0.00    +0.000 C 
BRANCH  10  17
ATOM     12  C   UNL     1       7.013   4.764  15.112  0.00  0.00    +0.000 A 
ATOM     13  C   UNL     1       7.673   4.968  13.891  0.00  0.00    +0.000 A 
ATOM     14  C   UNL     1       7.138   4.469  12.703  0.00  0.00    +0.000 A 
ATOM     15  C   UNL     1       5.938   3.766  12.726  0.00  0.00    +0.000 A 
ATOM     16  C   UNL     1       5.290   3.537  13.942  0.00  0.00    +0.000 A 
ATOM     17  C   UNL     1       5.816   4.015  15.151  0.00  0.00    +0.000 A 
BRANCH  12  19
ATOM     18  C   UNL     1       7.054   6.476  16.728  0.00  0.00    +0.000 C 
ATOM     19  O   UNL     1       7.546   5.207  16.300  0.00  0.00    +0.000 OA
ENDBRANCH  12  19
ENDBRANCH  10  17
ENDBRANCH   1  11
BRANCH   2  20
ATOM     20  O   UNL     1       5.535   3.493  19.129  0.00  0.00    +0.000 OA
ATOM     21  H   UNL     1       5.874   4.176  19.751  0.00  0.00    +0.000 HD
ENDBRANCH   2  20
TORSDOF 4
ENDMDL
MODEL 2
REMARK VINA RESULT:      -6.7      3.319      3.997
REMARK  Name = 
REMARK  7 active torsions:
REMARK  status: ('A' for Active; 'I' for Inactive)
REMARK    1  A    between atoms: C_1  and  O_2
REMARK    2  A    between atoms: O_2  and  C_3
REMARK    3  A    between atoms: C_8  and  N_9
REMARK    4  A    between atoms: C_10  and  C_11
REMARK    5  A    between atoms: C_12  and  O_13
REMARK    6  A    between atoms: C_15  and  C_16
REMARK    7  A    between atoms: C_15  and  C_17
REMARK                            x       y       z     vdW  Elec       q    Type
REMARK                         _______ _______ _______ _____ _____    ______ ____
ROOT
ATOM      1  C   UNL     1       2.452   7.360  18.949  0.00  0.00    +0.000 C 
ATOM      2  C   UNL     1       2.145   6.723  20.091  0.00  0.00    +0.000 C 
ATOM      3  O   UNL     1       1.298   7.237  21.034  0.00  0.00    +0.000 OA
ATOM      4  C   UNL     1       0.945   8.606  20.897  0.00  0.00    +0.000 C 
ATOM      5  C   UNL     1       1.867   9.466  21.768  0.00  0.00    +0.000 C 
ATOM      6  C   UNL     1      -0.491   8.722  21.404  0.00  0.00    +0.000 C 
ATOM      7  O   UNL     1       0.948   9.130  19.565  0.00  0.00    +0.000 OA
ATOM      8  C   UNL     1       1.803   8.638  18.652  0.00  0.00    +0.000 C 
ATOM      9  O   UNL     1       2.000   9.221  17.590  0.00  0.00    +0.000 OA
ENDROOT
BRANCH   1  11
ATOM     10  N   UNL     1       4.486   6.160  18.322  0.00  0.00    +0.000 NA
ATOM     11  C   UNL     1       3.400   6.769  17.962  0.00  0.00    +0.000 C 
BRANCH  10  17
ATOM     12  C   UNL     1       6.581   4.983  17.611  0.00  0.00    +0.000 A 
ATOM     13  C   UNL     1       7.313   4.420  16.555  0.00  0.00    +0.000 A 
ATOM     14  C   UNL     1       6.905   4.600  15.233  0.00  0.00    +0.000 A 
ATOM     15  C   UNL     1       5.766   5.347  14.956  0.00  0.00    +0.000 A 
ATOM     16  C   UNL     1       5.018   5.888  16.005  0.00  0.00    +0.000 A 
ATOM     17  C   UNL     1       5.399   5.708  17.343  0.00  0.00    +0.000 A 
BRANCH  12  19
ATOM     18  C   UNL     1       7.882   5.723  19.429  0.00  0.00    +0.000 C 
ATOM     19  O   UNL     1       6.939   4.779  18.924  0.00  0.00    +0.000 OA
ENDBRANCH  12  19
ENDBRANCH  10  17
ENDBRANCH   1  11
BRANCH   2  20
ATOM     20  O   UNL     1       2.661   5.481  20.416  0.00  0.00    +0.000 OA
ATOM     21  H   UNL     1       3.628   5.580  20.571  0.00  0.00    +0.000 HD
ENDBRANCH   2  20
TORSDOF 4
ENDMDL
MODEL 3
REMARK VINA RESULT:      -6.5      3.931      6.800
REMARK  Name = 
REMARK  7 active torsions:
REMARK  status: ('A' for Active; 'I' for Inactive)
REMARK    1  A    between atoms: C_1  and  O_2
REMARK    2  A    between atoms: O_2  and  C_3
REMARK    3  A    between atoms: C_8  and  N_9
REMARK    4  A    between atoms: C_10  and  C_11
REMARK    5  A    between atoms: C_12  and  O_13
REMARK    6  A    between atoms: C_15  and  C_16
REMARK    7  A    between atoms: C_15  and  C_17
REMARK                            x       y       z     vdW  Elec       q    Type
REMARK                         _______ _______ _______ _____ _____    ______ ____
ROOT
ATOM      1  C   UNL     1       3.254   5.156  19.639  0.00  0.00    +0.000 C 
ATOM      2  C   UNL     1       2.525   4.231  20.283  0.00  0.00    +0.000 C 
ATOM      3  O   UNL     1       2.951   2.948  20.490  0.00  0.00    +0.000 OA
ATOM      4  C   UNL     1       4.099   2.532  19.764  0.00  0.00    +0.000 C 
ATOM      5  C   UNL     1       3.666   1.805  18.486  0.00  0.00    +0.000 C 
ATOM      6  C   UNL     1       4.843   1.558  20.677  0.00  0.00    +0.000 C 
ATOM      7  O   UNL     1       5.034   3.557  19.417  0.00  0.00    +0.000 OA
ATOM      8  C   UNL     1       4.603   4.810  19.189  0.00  0.00    +0.000 C 
ATOM      9  O   UNL     1       5.332   5.643  18.658  0.00  0.00    +0.000 OA
ENDROOT
BRANCH   1  11
ATOM     10  N   UNL     1       2.047   7.170  20.314  0.00  0.00    +0.000 NA
ATOM     11  C   UNL     1       2.737   6.537  19.418  0.00  0.00    +0.000 C 
BRANCH  10  17
ATOM     12  C   UNL     1       0.961   9.333  20.965  0.00  0.00    +0.000 A 
ATOM     13  C   UNL     1       0.616  10.637  20.583  0.00  0.00    +0.000 A 
ATOM     14  C   UNL     1       0.759  11.050  19.258  0.00  0.00    +0.000 A 
ATOM     15  C   UNL     1       1.244  10.162  18.305  0.00  0.00    +0.000 A 
ATOM     16  C   UNL     1       1.614   8.869  18.685  0.00  0.00    +0.000 A 
ATOM     17  C   UNL     1       1.494   8.435  20.013  0.00  0.00    +0.000 A 
BRANCH  12  19
ATOM     18  C   UNL     1      -0.150   9.571  23.028  0.00  0.00    +0.000 C 
ATOM     19  O   UNL     1       0.871   8.920  22.274  0.00  0.00    +0.000 OA
ENDBRANCH  12  19
ENDBRANCH  10  17
ENDBRANCH   1  11
BRANCH   2  20
ATOM     20  O   UNL     1       1.269   4.496  20.801  0.00  0.00    +0.000 OA
ATOM     21  H   UNL     1       1.379   5.043  21.611  0.00  0.00    +0.000 HD
ENDBRANCH   2  20
TORSDOF 4
ENDMDL
MODEL 4
REMARK VINA RESULT:      -6.5      4.995      7.311
REMARK  Name = 
REMARK  7 active torsions:
REMARK  status: ('A' for Active; 'I' for Inactive)
REMARK    1  A    between atoms: C_1  and  O_2
REMARK    2  A    between atoms: O_2  and  C_3
REMARK    3  A    between atoms: C_8  and  N_9
REMARK    4  A    between atoms: C_10  and  C_11
REMARK    5  A    between atoms: C_12  and  O_13
REMARK    6  A    between atoms: C_15  and  C_16
REMARK    7  A    between atoms: C_15  and  C_17
REMARK                            x       y       z     vdW  Elec       q    Type
REMARK                         _______ _______ _______ _____ _____    ______ ____
ROOT
ATOM      1  C   UNL     1       1.184   9.114  20.462  0.00  0.00    +0.000 C 
ATOM      2  C   UNL     1       1.115   9.710  19.260  0.00  0.00    +0.000 C 
ATOM      3  O   UNL     1       0.855  11.043  19.096  0.00  0.00    +0.000 OA
ATOM      4  C   UNL     1       0.389  11.747  20.238  0.00  0.00    +0.000 C 
ATOM      5  C   UNL     1      -1.142  11.808  20.219  0.00  0.00    +0.000 C 
ATOM      6  C   UNL     1       0.957  13.161  20.120  0.00  0.00    +0.000 C 
ATOM      7  O   UNL     1       0.815  11.245  21.509  0.00  0.00    +0.000 OA
ATOM      8  C   UNL     1       1.042   9.930  21.668  0.00  0.00    +0.000 C 
ATOM      9  O   UNL     1       1.167   9.441  22.787  0.00  0.00    +0.000 OA
ENDROOT
BRANCH   1  11
ATOM     10  N   UNL     1       2.311   7.036  19.843  0.00  0.00    +0.000 NA
ATOM     11  C   UNL     1       1.448   7.652  20.589  0.00  0.00    +0.000 C 
BRANCH  10  17
ATOM     12  C   UNL     1       3.565   4.897  19.482  0.00  0.00    +0.000 A 
ATOM     13  C   UNL     1       3.682   3.535  19.796  0.00  0.00    +0.000 A 
ATOM     14  C   UNL     1       2.684   2.886  20.523  0.00  0.00    +0.000 A 
ATOM     15  C   UNL     1       1.561   3.592  20.939  0.00  0.00    +0.000 A 
ATOM     16  C   UNL     1       1.451   4.955  20.651  0.00  0.00    +0.000 A 
ATOM     17  C   UNL     1       2.448   5.633  19.935  0.00  0.00    +0.000 A 
BRANCH  12  19
ATOM     18  C   UNL     1       5.882   5.183  19.175  0.00  0.00    +0.000 C 
ATOM     19  O   UNL     1       4.559   5.567  18.806  0.00  0.00    +0.000 OA
ENDBRANCH  12  19
ENDBRANCH  10  17
ENDBRANCH   1  11
BRANCH   2  20
ATOM     20  O   UNL     1       1.305   9.024  18.073  0.00  0.00    +0.000 OA
ATOM     21  H   UNL     1       1.366   8.064  18.278  0.00  0.00    +0.000 HD
ENDBRANCH   2  20
TORSDOF 4
ENDMDL
MODEL 5
REMARK VINA RESULT:      -6.5      5.456      7.338
REMARK  Name = 
REMARK  7 active torsions:
REMARK  status: ('A' for Active; 'I' for Inactive)
REMARK    1  A    between atoms: C_1  and  O_2
REMARK    2  A    between atoms: O_2  and  C_3
REMARK    3  A    between atoms: C_8  and  N_9
REMARK    4  A    between atoms: C_10  and  C_11
REMARK    5  A    between atoms: C_12  and  O_13
REMARK    6  A    between atoms: C_15  and  C_16
REMARK    7  A    between atoms: C_15  and  C_17
REMARK                            x       y       z     vdW  Elec       q    Type
REMARK                         _______ _______ _______ _____ _____    ______ ____
ROOT
ATOM      1  C   UNL     1       0.581   9.654  20.703  0.00  0.00    +0.000 C 
ATOM      2  C   UNL     1       0.842   9.882  22.001  0.00  0.00    +0.000 C 
ATOM      3  O   UNL     1       0.148  10.782  22.761  0.00  0.00    +0.000 OA
ATOM      4  C   UNL     1      -0.704  11.681  22.066  0.00  0.00    +0.000 C 
ATOM      5  C   UNL     1       0.034  13.000  21.814  0.00  0.00    +0.000 C 
ATOM      6  C   UNL     1      -1.894  11.931  22.991  0.00  0.00    +0.000 C 
ATOM      7  O   UNL     1      -1.246  11.211  20.828  0.00  0.00    +0.000 OA
ATOM      8  C   UNL     1      -0.544  10.348  20.073  0.00  0.00    +0.000 C 
ATOM      9  O   UNL     1      -0.863  10.120  18.910  0.00  0.00    +0.000 OA
ENDROOT
BRANCH   1  11
ATOM     10  N   UNL     1       1.685   7.502  20.360  0.00  0.00    +0.000 NA
ATOM     11  C   UNL     1       1.381   8.679  19.909  0.00  0.00    +0.000 C 
BRANCH  10  17
ATOM     12  C   UNL     1       2.812   5.308  19.919  0.00  0.00    +0.000 A 
ATOM     13  C   UNL     1       3.509   4.507  19.003  0.00  0.00    +0.000 A 
ATOM     14  C   UNL     1       3.964   5.040  17.797  0.00  0.00    +0.000 A 
ATOM     15  C   UNL     1       3.730   6.377  17.499  0.00  0.00    +0.000 A 
ATOM     16  C   UNL     1       3.013   7.173  18.396  0.00  0.00    +0.000 A 
ATOM     17  C   UNL     1       2.531   6.656  19.608  0.00  0.00    +0.000 A 
BRANCH  12  19
ATOM     18  C   UNL     1       1.513   3.621  20.926  0.00  0.00    +0.000 C 
ATOM     19  O   UNL     1       2.313   4.790  21.093  0.00  0.00    +0.000 OA
ENDBRANCH  12  19
ENDBRANCH  10  17
ENDBRANCH   1  11
BRANCH   2  20
ATOM     20  O   UNL     1       1.843   9.218  22.689  0.00  0.00    +0.000 OA
ATOM     21  H   UNL     1       1.522   8.313  22.901  0.00  0.00    +0.000 HD
ENDBRANCH   2  20
TORSDOF 4
ENDMDL
MODEL 6
REMARK VINA RESULT:      -6.4      1.104      1.747
REMARK  Name = 
REMARK  7 active torsions:
REMARK  status: ('A' for Active; 'I' for Inactive)
REMARK    1  A    between atoms: C_1  and  O_2
REMARK    2  A    between atoms: O_2  and  C_3
REMARK    3  A    between atoms: C_8  and  N_9
REMARK    4  A    between atoms: C_10  and  C_11
REMARK    5  A    between atoms: C_12  and  O_13
REMARK    6  A    between atoms: C_15  and  C_16
REMARK    7  A    between atoms: C_15  and  C_17
REMARK                            x       y       z     vdW  Elec       q    Type
REMARK                         _______ _______ _______ _____ _____    ______ ____
ROOT
ATOM      1  C   UNL     1       3.455   3.832  18.142  0.00  0.00    +0.000 C 
ATOM      2  C   UNL     1       2.669   2.745  18.219  0.00  0.00    +0.000 C 
ATOM      3  O   UNL     1       2.051   2.345  19.371  0.00  0.00    +0.000 OA
ATOM      4  C   UNL     1       2.477   2.969  20.574  0.00  0.00    +0.000 C 
ATOM      5  C   UNL     1       3.537   2.099  21.260  0.00  0.00    +0.000 C 
ATOM      6  C   UNL     1       1.237   3.057  21.463  0.00  0.00    +0.000 C 
ATOM      7  O   UNL     1       2.983   4.301  20.451  0.00  0.00    +0.000 OA
ATOM      8  C   UNL     1       3.613   4.679  19.326  0.00  0.00    +0.000 C 
ATOM      9  O   UNL     1       4.265   5.718  19.283  0.00  0.00    +0.000 OA
ENDROOT
BRANCH   1  11
ATOM     10  N   UNL     1       5.179   3.603  16.427  0.00  0.00    +0.000 NA
ATOM     11  C   UNL     1       4.126   4.216  16.868  0.00  0.00    +0.000 C 
BRANCH  10  17
ATOM     12  C   UNL     1       7.026   4.831  15.260  0.00  0.00    +0.000 A 
ATOM     13  C   UNL     1       7.693   5.080  14.051  0.00  0.00    +0.000 A 
ATOM     14  C   UNL     1       7.170   4.616  12.844  0.00  0.00    +0.000 A 
ATOM     15  C   UNL     1       5.976   3.904  12.835  0.00  0.00    +0.000 A 
ATOM     16  C   UNL     1       5.321   3.631  14.039  0.00  0.00    +0.000 A 
ATOM     17  C   UNL     1       5.835   4.072  15.267  0.00  0.00    +0.000 A 
BRANCH  12  19
ATOM     18  C   UNL     1       7.072   6.507  16.914  0.00  0.00    +0.000 C 
ATOM     19  O   UNL     1       7.548   5.239  16.466  0.00  0.00    +0.000 OA
ENDBRANCH  12  19
ENDBRANCH  10  17
ENDBRANCH   1  11
BRANCH   2  20
ATOM     20  O   UNL     1       2.412   1.930  17.131  0.00  0.00    +0.000 OA
ATOM     21  H   UNL     1       1.656   2.313  16.631  0.00  0.00    +0.000 HD
ENDBRANCH   2  20
TORSDOF 4
ENDMDL
MODEL 7
REMARK VINA RESULT:      -6.4      1.544      1.638
REMARK  Name = 
REMARK  7 active torsions:
REMARK  status: ('A' for Active; 'I' for Inactive)
REMARK    1  A    between atoms: C_1  and  O_2
REMARK    2  A    between atoms: O_2  and  C_3
REMARK    3  A    between atoms: C_8  and  N_9
REMARK    4  A    between atoms: C_10  and  C_11
REMARK    5  A    between atoms: C_12  and  O_13
REMARK    6  A    between atoms: C_15  and  C_16
REMARK    7  A    between atoms: C_15  and  C_17
REMARK                            x       y       z     vdW  Elec       q    Type
REMARK                         _______ _______ _______ _____ _____    ______ ____
ROOT
ATOM      1  C   UNL     1       3.832   3.540  18.787  0.00  0.00    +0.000 C 
ATOM      2  C   UNL     1       3.537   4.461  19.720  0.00  0.00    +0.000 C 
ATOM      3  O   UNL     1       2.651   4.243  20.738  0.00  0.00    +0.000 OA
ATOM      4  C   UNL     1       1.834   3.086  20.636  0.00  0.00    +0.000 C 
ATOM      5  C   UNL     1       0.483   3.461  20.016  0.00  0.00    +0.000 C 
ATOM      6  C   UNL     1       1.619   2.596  22.067  0.00  0.00    +0.000 C 
ATOM      7  O   UNL     1       2.385   1.984  19.909  0.00  0.00    +0.000 OA
ATOM      8  C   UNL     1       3.234   2.208  18.892  0.00  0.00    +0.000 C 
ATOM      9  O   UNL     1       3.528   1.314  18.103  0.00  0.00    +0.000 OA
ENDROOT
BRANCH   1  11
ATOM     10  N   UNL     1       4.501   4.646  16.714  0.00  0.00    +0.000 NA
ATOM     11  C   UNL     1       4.788   3.833  17.682  0.00  0.00    +0.000 C 
BRANCH  10  17
ATOM     12  C   UNL     1       6.462   5.743  15.606  0.00  0.00    +0.000 A 
ATOM     13  C   UNL     1       7.412   5.689  14.575  0.00  0.00    +0.000 A 
ATOM     14  C   UNL     1       7.302   4.743  13.556  0.00  0.00    +0.000 A 
ATOM     15  C   UNL     1       6.240   3.846  13.557  0.00  0.00    +0.000 A 
ATOM     16  C   UNL     1       5.305   3.877  14.595  0.00  0.00    +0.000 A 
ATOM     17  C   UNL     1       5.403   4.809  15.639  0.00  0.00    +0.000 A 
BRANCH  12  19
ATOM     18  C   UNL     1       7.544   6.271  17.630  0.00  0.00    +0.000 C 
ATOM     19  O   UNL     1       6.578   6.637  16.645  0.00  0.00    +0.000 OA
ENDBRANCH  12  19
ENDBRANCH  10  17
ENDBRANCH   1  11
BRANCH   2  20
ATOM     20  O   UNL     1       4.110   5.721  19.733  0.00  0.00    +0.000 OA
ATOM     21  H   UNL     1       3.492   6.346  19.291  0.00  0.00    +0.000 HD
ENDBRANCH   2  20
TORSDOF 4
ENDMDL
MODEL 8
REMARK VINA RESULT:      -6.3      4.593      8.062
REMARK  Name = 
REMARK  7 active torsions:
REMARK  status: ('A' for Active; 'I' for Inactive)
REMARK    1  A    between atoms: C_1  and  O_2
REMARK    2  A    between atoms: O_2  and  C_3
REMARK    3  A    between atoms: C_8  and  N_9
REMARK    4  A    between atoms: C_10  and  C_11
REMARK    5  A    between atoms: C_12  and  O_13
REMARK    6  A    between atoms: C_15  and  C_16
REMARK    7  A    between atoms: C_15  and  C_17
REMARK                            x       y       z     vdW  Elec       q    Type
REMARK                         _______ _______ _______ _____ _____    ______ ____
ROOT
ATOM      1  C   UNL     1       2.586   6.397  19.628  0.00  0.00    +0.000 C 
ATOM      2  C   UNL     1       3.070   6.788  18.437  0.00  0.00    +0.000 C 
ATOM      3  O   UNL     1       3.845   5.991  17.642  0.00  0.00    +0.000 OA
ATOM      4  C   UNL     1       4.358   4.806  18.234  0.00  0.00    +0.000 C 
ATOM      5  C   UNL     1       5.777   5.061  18.755  0.00  0.00    +0.000 C 
ATOM      6  C   UNL     1       4.405   3.765  17.116  0.00  0.00    +0.000 C 
ATOM      7  O   UNL     1       3.576   4.234  19.286  0.00  0.00    +0.000 OA
ATOM      8  C   UNL     1       2.837   5.028  20.081  0.00  0.00    +0.000 C 
ATOM      9  O   UNL     1       2.358   4.605  21.128  0.00  0.00    +0.000 OA
ENDROOT
BRANCH   1  11
ATOM     10  N   UNL     1       1.431   8.502  20.080  0.00  0.00    +0.000 NA
ATOM     11  C   UNL     1       1.763   7.311  20.470  0.00  0.00    +0.000 C 
BRANCH  10  17
ATOM     12  C   UNL     1       0.009  10.507  20.563  0.00  0.00    +0.000 A 
ATOM     13  C   UNL     1      -0.800  11.179  21.492  0.00  0.00    +0.000 A 
ATOM     14  C   UNL     1      -0.865  10.751  22.818  0.00  0.00    +0.000 A 
ATOM     15  C   UNL     1      -0.120   9.651  23.227  0.00  0.00    +0.000 A 
ATOM     16  C   UNL     1       0.667   8.961  22.300  0.00  0.00    +0.000 A 
ATOM     17  C   UNL     1       0.736   9.363  20.958  0.00  0.00    +0.000 A 
BRANCH  12  19
ATOM     18  C   UNL     1      -1.227  10.957  18.609  0.00  0.00    +0.000 C 
ATOM     19  O   UNL     1       0.051  10.884  19.241  0.00  0.00    +0.000 OA
ENDBRANCH  12  19
ENDBRANCH  10  17
ENDBRANCH   1  11
BRANCH   2  20
ATOM     20  O   UNL     1       2.821   8.041  17.905  0.00  0.00    +0.000 OA
ATOM     21  H   UNL     1       2.726   8.679  18.648  0.00  0.00    +0.000 HD
ENDBRANCH   2  20
TORSDOF 4
ENDMDL
MODEL 9
REMARK VINA RESULT:      -6.3      4.695      8.128
REMARK  Name = 
REMARK  7 active torsions:
REMARK  status: ('A' for Active; 'I' for Inactive)
REMARK    1  A    between atoms: C_1  and  O_2
REMARK    2  A    between atoms: O_2  and  C_3
REMARK    3  A    between atoms: C_8  and  N_9
REMARK    4  A    between atoms: C_10  and  C_11
REMARK    5  A    between atoms: C_12  and  O_13
REMARK    6  A    between atoms: C_15  and  C_16
REMARK    7  A    between atoms: C_15  and  C_17
REMARK                            x       y       z     vdW  Elec       q    Type
REMARK                         _______ _______ _______ _____ _____    ______ ____
ROOT
ATOM      1  C   UNL     1       2.502   6.758  19.543  0.00  0.00    +0.000 C 
ATOM      2  C   UNL     1       2.647   5.557  20.127  0.00  0.00    +0.000 C 
ATOM      3  O   UNL     1       3.138   4.459  19.476  0.00  0.00    +0.000 OA
ATOM      4  C   UNL     1       3.250   4.551  18.063  0.00  0.00    +0.000 C 
ATOM      5  C   UNL     1       2.006   3.943  17.406  0.00  0.00    +0.000 C 
ATOM      6  C   UNL     1       4.480   3.727  17.685  0.00  0.00    +0.000 C 
ATOM      7  O   UNL     1       3.460   5.862  17.529  0.00  0.00    +0.000 OA
ATOM      8  C   UNL     1       2.950   6.933  18.160  0.00  0.00    +0.000 C 
ATOM      9  O   UNL     1       2.902   8.029  17.609  0.00  0.00    +0.000 OA
ENDROOT
BRANCH   1  11
ATOM     10  N   UNL     1       0.684   8.004  20.595  0.00  0.00    +0.000 NA
ATOM     11  C   UNL     1       1.940   7.920  20.287  0.00  0.00    +0.000 C 
BRANCH  10  17
ATOM     12  C   UNL     1      -0.293  10.311  20.524  0.00  0.00    +0.000 A 
ATOM     13  C   UNL     1      -0.941  11.336  21.229  0.00  0.00    +0.000 A 
ATOM     14  C   UNL     1      -1.086  11.263  22.614  0.00  0.00    +0.000 A 
ATOM     15  C   UNL     1      -0.581  10.168  23.306  0.00  0.00    +0.000 A 
ATOM     16  C   UNL     1       0.042   9.131  22.606  0.00  0.00    +0.000 A 
ATOM     17  C   UNL     1       0.186   9.174  21.212  0.00  0.00    +0.000 A 
BRANCH  12  19
ATOM     18  C   UNL     1      -1.406  10.596  18.468  0.00  0.00    +0.000 C 
ATOM     19  O   UNL     1      -0.180  10.341  19.153  0.00  0.00    +0.000 OA
ENDBRANCH  12  19
ENDBRANCH  10  17
ENDBRANCH   1  11
BRANCH   2  20
ATOM     20  O   UNL     1       2.312   5.324  21.449  0.00  0.00    +0.000 OA
ATOM     21  H   UNL     1       2.569   6.113  21.976  0.00  0.00    +0.000 HD
ENDBRANCH   2  20
TORSDOF 4
ENDMDL
