MODEL 1
REMARK VINA RESULT:      -6.5      0.000      0.000
REMARK  Name = 
REMARK  2 active torsions:
REMARK  status: ('A' for Active; 'I' for Inactive)
REMARK    1  A    between atoms: N_12  and  S_13
REMARK    2  A    between atoms: S_13  and  N_16
REMARK                            x       y       z     vdW  Elec       q    Type
REMARK                         _______ _______ _______ _____ _____    ______ ____
ROOT
ATOM      1  O   UNL     1       1.350   9.386  18.332  0.00  0.00    +0.000 OA
ATOM      2  C   UNL     1       1.454   8.642  19.312  0.00  0.00    +0.000 C 
ATOM      3  N   UNL     1       0.873   9.001  20.515  0.00  0.00    +0.000 N 
ATOM      4  C   UNL     1      -0.193  10.008  20.505  0.00  0.00    +0.000 C 
ATOM      5  C   UNL     1       0.018  11.056  21.601  0.00  0.00    +0.000 C 
ATOM      6  O   UNL     1       0.140  10.440  22.891  0.00  0.00    +0.000 OA
ATOM      7  C   UNL     1       1.280   9.583  22.909  0.00  0.00    +0.000 C 
ATOM      8  C   UNL     1       1.161   8.483  21.858  0.00  0.00    +0.000 C 
ATOM      9  N   UNL     1       2.128   7.443  19.200  0.00  0.00    +0.000 N 
ATOM     10  C   UNL     1       2.108   6.343  20.164  0.00  0.00    +0.000 C 
ATOM     11  C   UNL     1       1.946   4.964  19.550  0.00  0.00    +0.000 C 
ATOM     12  N   UNL     1       2.916   4.723  18.458  0.00  0.00    +0.000 NA
ATOM     13  C   UNL     1       2.763   5.796  17.421  0.00  0.00    +0.000 C 
ATOM     14  C   UNL     1       2.970   7.203  18.007  0.00  0.00    +0.000 C 
ENDROOT
BRANCH  12  15
ATOM     15  S   UNL     1       4.501   4.376  18.941  0.00  0.00    +0.000 S 
ATOM     16  O   UNL     1       4.881   5.357  19.924  0.00  0.00    +0.000 OA
ATOM     17  O   UNL     1       4.612   2.965  19.209  0.00  0.00    +0.000 OA
BRANCH  15  18
ATOM     18  N   UNL     1       5.323   4.709  17.498  0.00  0.00    +0.000 NA
ATOM     19  C   UNL     1       6.696   5.245  17.685  0.00  0.00    +0.000 C 
ATOM     20  C   UNL     1       7.230   5.760  16.352  0.00  0.00    +0.000 C 
ATOM     21  C   UNL     1       7.209   4.662  15.294  0.00  0.00    +0.000 C 
ATOM     22  C   UNL     1       5.803   4.085  15.161  0.00  0.00    +0.000 C 
ATOM     23  C   UNL     1       5.273   3.598  16.511  0.00  0.00    +0.000 C 
ENDBRANCH  15  18
ENDBRANCH  12  15
TORSDOF 2
ENDMDL
MODEL 2
REMARK VINA RESULT:      -6.4      2.820      8.484
REMARK  Name = 
REMARK  2 active torsions:
REMARK  status: ('A' for Active; 'I' for Inactive)
REMARK    1  A    between atoms: N_12  and  S_13
REMARK    2  A    between atoms: S_13  and  N_16
REMARK                            x       y       z     vdW  Elec       q    Type
REMARK                         _______ _______ _______ _____ _____    ______ ____
ROOT
ATOM      1  O   UNL     1       2.212   5.758  20.339  0.00  0.00    +0.000 OA
ATOM      2  C   UNL     1       2.412   6.638  19.497  0.00  0.00    +0.000 C 
ATOM      3  N   UNL     1       3.177   6.360  18.379  0.00  0.00    +0.000 N 
ATOM      4  C   UNL     1       3.373   4.958  17.994  0.00  0.00    +0.000 C 
ATOM      5  C   UNL     1       4.840   4.668  17.664  0.00  0.00    +0.000 C 
ATOM      6  O   UNL     1       5.330   5.559  16.652  0.00  0.00    +0.000 OA
ATOM      7  C   UNL     1       5.267   6.904  17.123  0.00  0.00    +0.000 C 
ATOM      8  C   UNL     1       3.834   7.303  17.465  0.00  0.00    +0.000 C 
ATOM      9  N   UNL     1       1.853   7.889  19.658  0.00  0.00    +0.000 N 
ATOM     10  C   UNL     1       1.763   8.938  18.643  0.00  0.00    +0.000 C 
ATOM     11  C   UNL     1       0.417   9.634  18.567  0.00  0.00    +0.000 C 
ATOM     12  N   UNL     1      -0.040  10.111  19.892  0.00  0.00    +0.000 NA
ATOM     13  C   UNL     1      -0.087   8.949  20.839  0.00  0.00    +0.000 C 
ATOM     14  C   UNL     1       1.278   8.253  20.973  0.00  0.00    +0.000 C 
ENDROOT
BRANCH  12  15
ATOM     15  S   UNL     1       0.709  11.513  20.471  0.00  0.00    +0.000 S 
ATOM     16  O   UNL     1       1.554  11.132  21.573  0.00  0.00    +0.000 OA
ATOM     17  O   UNL     1       1.225  12.265  19.356  0.00  0.00    +0.000 OA
BRANCH  15  18
ATOM     18  N   UNL     1      -0.641  12.332  21.084  0.00  0.00    +0.000 NA
ATOM     19  C   UNL     1      -1.883  12.147  20.289  0.00  0.00    +0.000 C 
ATOM     20  C   UNL     1      -2.946  13.133  20.765  0.00  0.00    +0.000 C 
ATOM     21  C   UNL     1      -3.218  12.964  22.256  0.00  0.00    +0.000 C 
ATOM     22  C   UNL     1      -1.922  13.099  23.047  0.00  0.00    +0.000 C 
ATOM     23  C   UNL     1      -0.859  12.123  22.540  0.00  0.00    +0.000 C 
ENDBRANCH  15  18
ENDBRANCH  12  15
TORSDOF 2
ENDMDL
MODEL 3
REMARK VINA RESULT:      -6.3      0.432      1.117
REMARK  Name = 
REMARK  2 active torsions:
REMARK  status: ('A' for Active; 'I' for Inactive)
REMARK    1  A    between atoms: N_12  and  S_13
REMARK    2  A    between atoms: S_13  and  N_16
REMARK                            x       y       z     vdW  Elec       q    Type
REMARK                         _______ _______ _______ _____ _____    ______ ____
ROOT
ATOM      1  O   UNL     1       1.656   9.419  18.187  0.00  0.00    +0.000 OA
ATOM      2  C   UNL     1       1.691   8.655  19.156  0.00  0.00    +0.000 C 
ATOM      3  N   UNL     1       0.993   8.970  20.308  0.00  0.00    +0.000 N 
ATOM      4  C   UNL     1      -0.095   9.950  20.221  0.00  0.00    +0.000 C 
ATOM      5  C   UNL     1      -0.014  10.977  21.355  0.00  0.00    +0.000 C 
ATOM      6  O   UNL     1       0.007  10.334  22.637  0.00  0.00    +0.000 OA
ATOM      7  C   UNL     1       1.164   9.506  22.741  0.00  0.00    +0.000 C 
ATOM      8  C   UNL     1       1.172   8.429  21.660  0.00  0.00    +0.000 C 
ATOM      9  N   UNL     1       2.405   7.477  19.082  0.00  0.00    +0.000 N 
ATOM     10  C   UNL     1       2.329   6.354  20.016  0.00  0.00    +0.000 C 
ATOM     11  C   UNL     1       2.261   4.987  19.360  0.00  0.00    +0.000 C 
ATOM     12  N   UNL     1       3.333   4.796  18.358  0.00  0.00    +0.000 NA
ATOM     13  C   UNL     1       3.245   5.888  17.334  0.00  0.00    +0.000 C 
ATOM     14  C   UNL     1       3.359   7.286  17.966  0.00  0.00    +0.000 C 
ENDROOT
BRANCH  12  15
ATOM     15  S   UNL     1       4.876   4.479  18.976  0.00  0.00    +0.000 S 
ATOM     16  O   UNL     1       5.311   5.655  19.683  0.00  0.00    +0.000 OA
ATOM     17  O   UNL     1       4.871   3.184  19.608  0.00  0.00    +0.000 OA
BRANCH  15  18
ATOM     18  N   UNL     1       5.750   4.361  17.530  0.00  0.00    +0.000 NA
ATOM     19  C   UNL     1       4.965   3.846  16.379  0.00  0.00    +0.000 C 
ATOM     20  C   UNL     1       5.906   3.525  15.221  0.00  0.00    +0.000 C 
ATOM     21  C   UNL     1       6.722   4.750  14.825  0.00  0.00    +0.000 C 
ATOM     22  C   UNL     1       7.473   5.298  16.034  0.00  0.00    +0.000 C 
ATOM     23  C   UNL     1       6.519   5.589  17.194  0.00  0.00    +0.000 C 
ENDBRANCH  15  18
ENDBRANCH  12  15
TORSDOF 2
ENDMDL
MODEL 4
REMARK VINA RESULT:      -6.3      8.152     12.046
REMARK  Name = 
REMARK  2 active torsions:
REMARK  status: ('A' for Active; 'I' for Inactive)
REMARK    1  A    between atoms: N_12  and  S_13
REMARK    2  A    between atoms: S_13  and  N_16
REMARK                            x       y       z     vdW  Elec       q    Type
REMARK                         _______ _______ _______ _____ _____    ______ ____
ROOT
ATOM      1  O   UNL     1      -6.325  11.245  17.878  0.00  0.00    +0.000 OA
ATOM      2  C   UNL     1      -5.205  11.521  18.315  0.00  0.00    +0.000 C 
ATOM      3  N   UNL     1      -4.087  11.319  17.525  0.00  0.00    +0.000 N 
ATOM      4  C   UNL     1      -4.268  11.198  16.075  0.00  0.00    +0.000 C 
ATOM      5  C   UNL     1      -3.474  10.018  15.509  0.00  0.00    +0.000 C 
ATOM      6  O   UNL     1      -2.085  10.113  15.854  0.00  0.00    +0.000 OA
ATOM      7  C   UNL     1      -1.938  10.072  17.273  0.00  0.00    +0.000 C 
ATOM      8  C   UNL     1      -2.682  11.227  17.938  0.00  0.00    +0.000 C 
ATOM      9  N   UNL     1      -5.068  12.053  19.581  0.00  0.00    +0.000 N 
ATOM     10  C   UNL     1      -3.869  12.679  20.136  0.00  0.00    +0.000 C 
ATOM     11  C   UNL     1      -4.119  13.970  20.894  0.00  0.00    +0.000 C 
ATOM     12  N   UNL     1      -5.183  13.821  21.912  0.00  0.00    +0.000 NA
ATOM     13  C   UNL     1      -6.435  13.338  21.243  0.00  0.00    +0.000 C 
ATOM     14  C   UNL     1      -6.223  12.004  20.507  0.00  0.00    +0.000 C 
ENDROOT
BRANCH  12  15
ATOM     15  S   UNL     1      -4.739  13.015  23.332  0.00  0.00    +0.000 S 
ATOM     16  O   UNL     1      -5.940  12.486  23.925  0.00  0.00    +0.000 OA
ATOM     17  O   UNL     1      -3.604  12.172  23.058  0.00  0.00    +0.000 OA
BRANCH  15  18
ATOM     18  N   UNL     1      -4.211  14.330  24.260  0.00  0.00    +0.000 NA
ATOM     19  C   UNL     1      -2.734  14.465  24.349  0.00  0.00    +0.000 C 
ATOM     20  C   UNL     1      -2.378  15.496  25.415  0.00  0.00    +0.000 C 
ATOM     21  C   UNL     1      -3.034  16.840  25.116  0.00  0.00    +0.000 C 
ATOM     22  C   UNL     1      -4.543  16.669  24.971  0.00  0.00    +0.000 C 
ATOM     23  C   UNL     1      -4.882  15.613  23.918  0.00  0.00    +0.000 C 
ENDBRANCH  15  18
ENDBRANCH  12  15
TORSDOF 2
ENDMDL
MODEL 5
REMARK VINA RESULT:      -6.2      3.403      8.327
REMARK  Name = 
REMARK  2 active torsions:
REMARK  status: ('A' for Active; 'I' for Inactive)
REMARK    1  A    between atoms: N_12  and  S_13
REMARK    2  A    between atoms: S_13  and  N_16
REMARK                            x       y       z     vdW  Elec       q    Type
REMARK                         _______ _______ _______ _____ _____    ______ ____
ROOT
ATOM      1  O   UNL     1       3.386   7.453  17.747  0.00  0.00    +0.000 OA
ATOM      2  C   UNL     1       2.634   7.448  18.726  0.00  0.00    +0.000 C 
ATOM      3  N   UNL     1       2.626   6.362  19.582  0.00  0.00    +0.000 N 
ATOM      4  C   UNL     1       3.777   5.453  19.572  0.00  0.00    +0.000 C 
ATOM      5  C   UNL     1       3.332   3.988  19.546  0.00  0.00    +0.000 C 
ATOM      6  O   UNL     1       2.447   3.694  20.636  0.00  0.00    +0.000 OA
ATOM      7  C   UNL     1       1.268   4.489  20.525  0.00  0.00    +0.000 C 
ATOM      8  C   UNL     1       1.601   5.978  20.560  0.00  0.00    +0.000 C 
ATOM      9  N   UNL     1       1.821   8.534  18.980  0.00  0.00    +0.000 N 
ATOM     10  C   UNL     1       1.091   8.802  20.218  0.00  0.00    +0.000 C 
ATOM     11  C   UNL     1       1.177  10.236  20.708  0.00  0.00    +0.000 C 
ATOM     12  N   UNL     1       0.835  11.209  19.646  0.00  0.00    +0.000 NA
ATOM     13  C   UNL     1       1.739  10.986  18.470  0.00  0.00    +0.000 C 
ATOM     14  C   UNL     1       1.636   9.553  17.922  0.00  0.00    +0.000 C 
ENDROOT
BRANCH  12  15
ATOM     15  S   UNL     1      -0.813  11.373  19.297  0.00  0.00    +0.000 S 
ATOM     16  O   UNL     1      -0.940  12.351  18.248  0.00  0.00    +0.000 OA
ATOM     17  O   UNL     1      -1.400  10.063  19.176  0.00  0.00    +0.000 OA
BRANCH  15  18
ATOM     18  N   UNL     1      -1.350  12.063  20.748  0.00  0.00    +0.000 NA
ATOM     19  C   UNL     1      -0.484  13.155  21.266  0.00  0.00    +0.000 C 
ATOM     20  C   UNL     1      -0.902  13.507  22.690  0.00  0.00    +0.000 C 
ATOM     21  C   UNL     1      -2.374  13.900  22.746  0.00  0.00    +0.000 C 
ATOM     22  C   UNL     1      -3.239  12.791  22.156  0.00  0.00    +0.000 C 
ATOM     23  C   UNL     1      -2.790  12.432  20.739  0.00  0.00    +0.000 C 
ENDBRANCH  15  18
ENDBRANCH  12  15
TORSDOF 2
ENDMDL
MODEL 6
REMARK VINA RESULT:      -6.2      3.054      8.506
REMARK  Name = 
REMARK  2 active torsions:
REMARK  status: ('A' for Active; 'I' for Inactive)
REMARK    1  A    between atoms: N_12  and  S_13
REMARK    2  A    between atoms: S_13  and  N_16
REMARK                            x       y       z     vdW  Elec       q    Type
REMARK                         _______ _______ _______ _____ _____    ______ ____
ROOT
ATOM      1  O   UNL     1       2.045   5.958  20.468  0.00  0.00    +0.000 OA
ATOM      2  C   UNL     1       2.294   6.759  19.563  0.00  0.00    +0.000 C 
ATOM      3  N   UNL     1       3.032   6.353  18.466  0.00  0.00    +0.000 N 
ATOM      4  C   UNL     1       3.136   4.917  18.186  0.00  0.00    +0.000 C 
ATOM      5  C   UNL     1       4.580   4.511  17.874  0.00  0.00    +0.000 C 
ATOM      6  O   UNL     1       5.118   5.292  16.798  0.00  0.00    +0.000 OA
ATOM      7  C   UNL     1       5.143   6.669  17.169  0.00  0.00    +0.000 C 
ATOM      8  C   UNL     1       3.740   7.182  17.484  0.00  0.00    +0.000 C 
ATOM      9  N   UNL     1       1.816   8.052  19.632  0.00  0.00    +0.000 N 
ATOM     10  C   UNL     1       1.785   9.027  18.542  0.00  0.00    +0.000 C 
ATOM     11  C   UNL     1       0.484   9.799  18.418  0.00  0.00    +0.000 C 
ATOM     12  N   UNL     1       0.068  10.400  19.706  0.00  0.00    +0.000 NA
ATOM     13  C   UNL     1      -0.046   9.316  20.736  0.00  0.00    +0.000 C 
ATOM     14  C   UNL     1       1.274   8.547  20.918  0.00  0.00    +0.000 C 
ENDROOT
BRANCH  12  15
ATOM     15  S   UNL     1       0.908  11.791  20.178  0.00  0.00    +0.000 S 
ATOM     16  O   UNL     1       1.319  11.608  21.546  0.00  0.00    +0.000 OA
ATOM     17  O   UNL     1       1.856  12.138  19.151  0.00  0.00    +0.000 OA
BRANCH  15  18
ATOM     18  N   UNL     1      -0.355  12.920  20.139  0.00  0.00    +0.000 NA
ATOM     19  C   UNL     1      -1.541  12.543  20.950  0.00  0.00    +0.000 C 
ATOM     20  C   UNL     1      -2.701  13.479  20.626  0.00  0.00    +0.000 C 
ATOM     21  C   UNL     1      -2.312  14.933  20.865  0.00  0.00    +0.000 C 
ATOM     22  C   UNL     1      -1.059  15.283  20.068  0.00  0.00    +0.000 C 
ATOM     23  C   UNL     1       0.085  14.319  20.386  0.00  0.00    +0.000 C 
ENDBRANCH  15  18
ENDBRANCH  12  15
TORSDOF 2
ENDMDL
MODEL 7
REMARK VINA RESULT:      -6.0      2.939      8.443
REMARK  Name = 
REMARK  2 active torsions:
REMARK  status: ('A' for Active; 'I' for Inactive)
REMARK    1  A    between atoms: N_12  and  S_13
REMARK    2  A    between atoms: S_13  and  N_16
REMARK                            x       y       z     vdW  Elec       q    Type
REMARK                         _______ _______ _______ _____ _____    ______ ____
ROOT
ATOM      1  O   UNL     1       2.185   5.785  20.333  0.00  0.00    +0.000 OA
ATOM      2  C   UNL     1       2.405   6.646  19.476  0.00  0.00    +0.000 C 
ATOM      3  N   UNL     1       3.165   6.332  18.364  0.00  0.00    +0.000 N 
ATOM      4  C   UNL     1       3.331   4.919  18.005  0.00  0.00    +0.000 C 
ATOM      5  C   UNL     1       4.791   4.592  17.682  0.00  0.00    +0.000 C 
ATOM      6  O   UNL     1       5.301   5.453  16.655  0.00  0.00    +0.000 OA
ATOM      7  C   UNL     1       5.267   6.808  17.102  0.00  0.00    +0.000 C 
ATOM      8  C   UNL     1       3.843   7.244  17.435  0.00  0.00    +0.000 C 
ATOM      9  N   UNL     1       1.873   7.911  19.614  0.00  0.00    +0.000 N 
ATOM     10  C   UNL     1       1.807   8.944  18.580  0.00  0.00    +0.000 C 
ATOM     11  C   UNL     1       0.476   9.667  18.490  0.00  0.00    +0.000 C 
ATOM     12  N   UNL     1       0.028  10.177  19.805  0.00  0.00    +0.000 NA
ATOM     13  C   UNL     1      -0.045   9.034  20.773  0.00  0.00    +0.000 C 
ATOM     14  C   UNL     1       1.304   8.311  20.921  0.00  0.00    +0.000 C 
ENDROOT
BRANCH  12  15
ATOM     15  S   UNL     1       0.807  11.573  20.361  0.00  0.00    +0.000 S 
ATOM     16  O   UNL     1       1.547  11.218  21.543  0.00  0.00    +0.000 OA
ATOM     17  O   UNL     1       1.443  12.230  19.248  0.00  0.00    +0.000 OA
BRANCH  15  18
ATOM     18  N   UNL     1      -0.539  12.493  20.820  0.00  0.00    +0.000 NA
ATOM     19  C   UNL     1      -0.223  13.893  21.206  0.00  0.00    +0.000 C 
ATOM     20  C   UNL     1      -1.446  14.533  21.855  0.00  0.00    +0.000 C 
ATOM     21  C   UNL     1      -2.650  14.480  20.921  0.00  0.00    +0.000 C 
ATOM     22  C   UNL     1      -2.921  13.042  20.491  0.00  0.00    +0.000 C 
ATOM     23  C   UNL     1      -1.678  12.407  19.867  0.00  0.00    +0.000 C 
ENDBRANCH  15  18
ENDBRANCH  12  15
TORSDOF 2
ENDMDL
MODEL 8
REMARK VINA RESULT:      -6.0      3.346      8.276
REMARK  Name = 
REMARK  2 active torsions:
REMARK  status: ('A' for Active; 'I' for Inactive)
REMARK    1  A    between atoms: N_12  and  S_13
REMARK    2  A    between atoms: S_13  and  N_16
REMARK                            x       y       z     vdW  Elec       q    Type
REMARK                         _______ _______ _______ _____ _____    ______ ____
ROOT
ATOM      1  O   UNL     1       3.341   7.478  17.691  0.00  0.00    +0.000 OA
ATOM      2  C   UNL     1       2.631   7.462  18.701  0.00  0.00    +0.000 C 
ATOM      3  N   UNL     1       2.660   6.368  19.547  0.00  0.00    +0.000 N 
ATOM      4  C   UNL     1       3.811   5.462  19.480  0.00  0.00    +0.000 C 
ATOM      5  C   UNL     1       3.368   3.996  19.460  0.00  0.00    +0.000 C 
ATOM      6  O   UNL     1       2.529   3.691  20.583  0.00  0.00    +0.000 OA
ATOM      7  C   UNL     1       1.345   4.486  20.530  0.00  0.00    +0.000 C 
ATOM      8  C   UNL     1       1.677   5.975  20.564  0.00  0.00    +0.000 C 
ATOM      9  N   UNL     1       1.828   8.544  18.998  0.00  0.00    +0.000 N 
ATOM     10  C   UNL     1       1.149   8.800  20.268  0.00  0.00    +0.000 C 
ATOM     11  C   UNL     1       1.254  10.230  20.767  0.00  0.00    +0.000 C 
ATOM     12  N   UNL     1       0.866  11.212  19.729  0.00  0.00    +0.000 NA
ATOM     13  C   UNL     1       1.720  11.001  18.514  0.00  0.00    +0.000 C 
ATOM     14  C   UNL     1       1.597   9.573  17.958  0.00  0.00    +0.000 C 
ENDROOT
BRANCH  12  15
ATOM     15  S   UNL     1      -0.795  11.376  19.451  0.00  0.00    +0.000 S 
ATOM     16  O   UNL     1      -0.960  12.143  18.244  0.00  0.00    +0.000 OA
ATOM     17  O   UNL     1      -1.428  10.093  19.617  0.00  0.00    +0.000 OA
BRANCH  15  18
ATOM     18  N   UNL     1      -1.215  12.350  20.772  0.00  0.00    +0.000 NA
ATOM     19  C   UNL     1      -1.500  11.599  22.022  0.00  0.00    +0.000 C 
ATOM     20  C   UNL     1      -2.126  12.535  23.050  0.00  0.00    +0.000 C 
ATOM     21  C   UNL     1      -1.220  13.731  23.323  0.00  0.00    +0.000 C 
ATOM     22  C   UNL     1      -0.893  14.453  22.020  0.00  0.00    +0.000 C 
ATOM     23  C   UNL     1      -0.291  13.494  20.992  0.00  0.00    +0.000 C 
ENDBRANCH  15  18
ENDBRANCH  12  15
TORSDOF 2
ENDMDL
MODEL 9
REMARK VINA RESULT:      -6.0      2.653      7.548
REMARK  Name = 
REMARK  2 active torsions:
REMARK  status: ('A' for Active; 'I' for Inactive)
REMARK    1  A    between atoms: N_12  and  S_13
REMARK    2  A    between atoms: S_13  and  N_16
REMARK                            x       y       z     vdW  Elec       q    Type
REMARK                         _______ _______ _______ _____ _____    ______ ____
ROOT
ATOM      1  O   UNL     1       6.916   6.474  16.062  0.00  0.00    +0.000 OA
ATOM      2  C   UNL     1       6.217   5.474  15.873  0.00  0.00    +0.000 C 
ATOM      3  N   UNL     1       6.434   4.682  14.760  0.00  0.00    +0.000 N 
ATOM      4  C   UNL     1       7.725   4.781  14.071  0.00  0.00    +0.000 C 
ATOM      5  C   UNL     1       7.543   4.878  12.554  0.00  0.00    +0.000 C 
ATOM      6  O   UNL     1       6.768   3.781  12.052  0.00  0.00    +0.000 OA
ATOM      7  C   UNL     1       5.464   3.809  12.630  0.00  0.00    +0.000 C 
ATOM      8  C   UNL     1       5.532   3.697  14.151  0.00  0.00    +0.000 C 
ATOM      9  N   UNL     1       5.238   5.133  16.783  0.00  0.00    +0.000 N 
ATOM     10  C   UNL     1       4.522   3.860  16.853  0.00  0.00    +0.000 C 
ATOM     11  C   UNL     1       4.375   3.290  18.252  0.00  0.00    +0.000 C 
ATOM     12  N   UNL     1       3.825   4.283  19.203  0.00  0.00    +0.000 NA
ATOM     13  C   UNL     1       4.706   5.497  19.206  0.00  0.00    +0.000 C 
ATOM     14  C   UNL     1       4.835   6.124  17.807  0.00  0.00    +0.000 C 
ENDROOT
BRANCH  12  15
ATOM     15  S   UNL     1       2.162   4.571  19.091  0.00  0.00    +0.000 S 
ATOM     16  O   UNL     1       1.774   4.356  17.721  0.00  0.00    +0.000 OA
ATOM     17  O   UNL     1       1.494   3.895  20.174  0.00  0.00    +0.000 OA
BRANCH  15  18
ATOM     18  N   UNL     1       2.134   6.235  19.407  0.00  0.00    +0.000 NA
ATOM     19  C   UNL     1       1.743   7.074  18.245  0.00  0.00    +0.000 C 
ATOM     20  C   UNL     1       2.015   8.541  18.558  0.00  0.00    +0.000 C 
ATOM     21  C   UNL     1       1.279   8.976  19.820  0.00  0.00    +0.000 C 
ATOM     22  C   UNL     1       1.650   8.066  20.987  0.00  0.00    +0.000 C 
ATOM     23  C   UNL     1       1.395   6.597  20.646  0.00  0.00    +0.000 C 
ENDBRANCH  15  18
ENDBRANCH  12  15
TORSDOF 2
ENDMDL
