MODEL 1
REMARK VINA RESULT:      -8.5      0.000      0.000
REMARK  Name = 
REMARK  3 active torsions:
REMARK  status: ('A' for Active; 'I' for Inactive)
REMARK    1  A    between atoms: C_8  and  C_9
REMARK    2  A    between atoms: C_11  and  N_12
REMARK    3  A    between atoms: N_12  and  C_13
REMARK                            x       y       z     vdW  Elec       q    Type
REMARK                         _______ _______ _______ _____ _____    ______ ____
ROOT
ATOM      1  C   UNL     1       2.177   7.007  19.840  0.00  0.00    +0.000 A 
ATOM      2  C   UNL     1       3.490   6.719  19.425  0.00  0.00    +0.000 A 
ATOM      3  C   UNL     1       4.091   5.454  19.560  0.00  0.00    +0.000 A 
ATOM      4  C   UNL     1       3.279   4.369  20.009  0.00  0.00    +0.000 A 
ATOM      5  C   UNL     1       3.709   3.032  20.099  0.00  0.00    +0.000 A 
ATOM      6  C   UNL     1       2.849   2.053  20.576  0.00  0.00    +0.000 A 
ATOM      7  N   UNL     1       1.588   2.292  20.973  0.00  0.00    +0.000 NA
ATOM      8  C   UNL     1       1.170   3.574  20.873  0.00  0.00    +0.000 A 
ATOM      9  C   UNL     1       1.949   4.634  20.405  0.00  0.00    +0.000 A 
ATOM     10  C   UNL     1       1.426   5.932  20.332  0.00  0.00    +0.000 A 
ENDROOT
BRANCH   1  18
ATOM     11  F   UNL     1       1.869   8.533  17.407  0.00  0.00    +0.000 F 
ATOM     12  C   UNL     1       1.510   9.095  18.573  0.00  0.00    +0.000 A 
ATOM     13  C   UNL     1       0.991  10.391  18.506  0.00  0.00    +0.000 A 
ATOM     14  C   UNL     1       0.556  11.030  19.660  0.00  0.00    +0.000 A 
ATOM     15  C   UNL     1       0.651  10.366  20.875  0.00  0.00    +0.000 A 
ATOM     16  C   UNL     1       1.190   9.075  20.929  0.00  0.00    +0.000 A 
ATOM     17  F   UNL     1       1.271   8.515  22.145  0.00  0.00    +0.000 F 
ATOM     18  C   UNL     1       1.633   8.388  19.785  0.00  0.00    +0.000 A 
ENDBRANCH   1  18
BRANCH   3  19
ATOM     19  N   UNL     1       5.434   5.246  19.181  0.00  0.00    +0.000 N 
ATOM     20  H   UNL     1       6.021   6.044  19.392  0.00  0.00    +0.000 HD
BRANCH  19  21
ATOM     21  C   UNL     1       5.782   4.652  17.865  0.00  0.00    +0.000 C 
ATOM     22  C   UNL     1       4.597   4.776  16.890  0.00  0.00    +0.000 C 
ATOM     23  C   UNL     1       4.858   4.205  15.498  0.00  0.00    +0.000 C 
ATOM     24  C   UNL     1       5.799   5.085  14.685  0.00  0.00    +0.000 C 
ATOM     25  C   UNL     1       7.283   4.799  14.914  0.00  0.00    +0.000 C 
ATOM     26  N   UNL     1       7.748   4.603  16.282  0.00  0.00    +0.000 NA
ATOM     27  C   UNL     1       7.058   5.362  17.324  0.00  0.00    +0.000 C 
ATOM     28  H   UNL     1       8.747   4.806  16.320  0.00  0.00    +0.000 HD
ENDBRANCH  19  21
ENDBRANCH   3  19
TORSDOF 3
ENDMDL
MODEL 2
REMARK VINA RESULT:      -8.5      0.206      1.631
REMARK  Name = 
REMARK  3 active torsions:
REMARK  status: ('A' for Active; 'I' for Inactive)
REMARK    1  A    between atoms: C_8  and  C_9
REMARK    2  A    between atoms: C_11  and  N_12
REMARK    3  A    between atoms: N_12  and  C_13
REMARK                            x       y       z     vdW  Elec       q    Type
REMARK                         _______ _______ _______ _____ _____    ______ ____
ROOT
ATOM      1  C   UNL     1       2.256   6.930  19.758  0.00  0.00    +0.000 A 
ATOM      2  C   UNL     1       3.564   6.611  19.352  0.00  0.00    +0.000 A 
ATOM      3  C   UNL     1       4.164   5.356  19.565  0.00  0.00    +0.000 A 
ATOM      4  C   UNL     1       3.353   4.305  20.090  0.00  0.00    +0.000 A 
ATOM      5  C   UNL     1       3.781   2.975  20.264  0.00  0.00    +0.000 A 
ATOM      6  C   UNL     1       2.922   2.032  20.810  0.00  0.00    +0.000 A 
ATOM      7  N   UNL     1       1.665   2.300  21.201  0.00  0.00    +0.000 NA
ATOM      8  C   UNL     1       1.249   3.574  21.021  0.00  0.00    +0.000 A 
ATOM      9  C   UNL     1       2.027   4.600  20.479  0.00  0.00    +0.000 A 
ATOM     10  C   UNL     1       1.507   5.892  20.325  0.00  0.00    +0.000 A 
ENDROOT
BRANCH   1  18
ATOM     11  F   UNL     1       1.142   8.463  21.937  0.00  0.00    +0.000 F 
ATOM     12  C   UNL     1       1.173   9.010  20.711  0.00  0.00    +0.000 A 
ATOM     13  C   UNL     1       0.669  10.309  20.594  0.00  0.00    +0.000 A 
ATOM     14  C   UNL     1       0.703  10.964  19.370  0.00  0.00    +0.000 A 
ATOM     15  C   UNL     1       1.235  10.310  18.268  0.00  0.00    +0.000 A 
ATOM     16  C   UNL     1       1.720   9.002  18.397  0.00  0.00    +0.000 A 
ATOM     17  F   UNL     1       2.193   8.432  17.278  0.00  0.00    +0.000 F 
ATOM     18  C   UNL     1       1.715   8.306  19.618  0.00  0.00    +0.000 A 
ENDBRANCH   1  18
BRANCH   3  19
ATOM     19  N   UNL     1       5.503   5.120  19.189  0.00  0.00    +0.000 N 
ATOM     20  H   UNL     1       6.111   5.897  19.423  0.00  0.00    +0.000 HD
BRANCH  19  21
ATOM     21  C   UNL     1       5.844   4.547  17.862  0.00  0.00    +0.000 C 
ATOM     22  C   UNL     1       4.618   4.586  16.931  0.00  0.00    +0.000 C 
ATOM     23  C   UNL     1       4.868   4.030  15.531  0.00  0.00    +0.000 C 
ATOM     24  C   UNL     1       5.715   4.970  14.683  0.00  0.00    +0.000 C 
ATOM     25  C   UNL     1       7.222   4.790  14.858  0.00  0.00    +0.000 C 
ATOM     26  N   UNL     1       7.749   4.631  16.208  0.00  0.00    +0.000 NA
ATOM     27  C   UNL     1       7.046   5.343  17.274  0.00  0.00    +0.000 C 
ATOM     28  H   UNL     1       8.733   4.903  16.209  0.00  0.00    +0.000 HD
ENDBRANCH  19  21
ENDBRANCH   3  19
TORSDOF 3
ENDMDL
MODEL 3
REMARK VINA RESULT:      -8.3      1.333      1.877
REMARK  Name = 
REMARK  3 active torsions:
REMARK  status: ('A' for Active; 'I' for Inactive)
REMARK    1  A    between atoms: C_8  and  C_9
REMARK    2  A    between atoms: C_11  and  N_12
REMARK    3  A    between atoms: N_12  and  C_13
REMARK                            x       y       z     vdW  Elec       q    Type
REMARK                         _______ _______ _______ _____ _____    ______ ____
ROOT
ATOM      1  C   UNL     1       1.858   7.183  19.543  0.00  0.00    +0.000 A 
ATOM      2  C   UNL     1       2.638   6.829  18.427  0.00  0.00    +0.000 A 
ATOM      3  C   UNL     1       3.091   5.521  18.174  0.00  0.00    +0.000 A 
ATOM      4  C   UNL     1       2.614   4.471  19.015  0.00  0.00    +0.000 A 
ATOM      5  C   UNL     1       2.897   3.105  18.827  0.00  0.00    +0.000 A 
ATOM      6  C   UNL     1       2.407   2.162  19.721  0.00  0.00    +0.000 A 
ATOM      7  N   UNL     1       1.654   2.464  20.792  0.00  0.00    +0.000 NA
ATOM      8  C   UNL     1       1.370   3.775  20.964  0.00  0.00    +0.000 A 
ATOM      9  C   UNL     1       1.807   4.804  20.127  0.00  0.00    +0.000 A 
ATOM     10  C   UNL     1       1.457   6.136  20.382  0.00  0.00    +0.000 A 
ENDROOT
BRANCH   1  18
ATOM     11  F   UNL     1       1.616   9.229  17.520  0.00  0.00    +0.000 F 
ATOM     12  C   UNL     1       1.412   9.563  18.805  0.00  0.00    +0.000 A 
ATOM     13  C   UNL     1       1.075  10.896  19.057  0.00  0.00    +0.000 A 
ATOM     14  C   UNL     1       0.805  11.315  20.353  0.00  0.00    +0.000 A 
ATOM     15  C   UNL     1       0.882  10.395  21.390  0.00  0.00    +0.000 A 
ATOM     16  C   UNL     1       1.238   9.067  21.123  0.00  0.00    +0.000 A 
ATOM     17  F   UNL     1       1.316   8.249  22.184  0.00  0.00    +0.000 F 
ATOM     18  C   UNL     1       1.509   8.598  19.826  0.00  0.00    +0.000 A 
ENDBRANCH   1  18
BRANCH   3  19
ATOM     19  N   UNL     1       3.922   5.244  17.068  0.00  0.00    +0.000 N 
ATOM     20  H   UNL     1       3.654   4.391  16.590  0.00  0.00    +0.000 HD
BRANCH  19  21
ATOM     21  C   UNL     1       5.398   5.370  17.160  0.00  0.00    +0.000 C 
ATOM     22  C   UNL     1       5.817   6.848  17.052  0.00  0.00    +0.000 C 
ATOM     23  C   UNL     1       7.322   7.089  17.149  0.00  0.00    +0.000 C 
ATOM     24  C   UNL     1       7.842   6.901  18.569  0.00  0.00    +0.000 C 
ATOM     25  C   UNL     1       8.204   5.460  18.921  0.00  0.00    +0.000 C 
ATOM     26  N   UNL     1       7.291   4.397  18.518  0.00  0.00    +0.000 NA
ATOM     27  C   UNL     1       5.867   4.729  18.499  0.00  0.00    +0.000 C 
ATOM     28  H   UNL     1       7.444   3.588  19.122  0.00  0.00    +0.000 HD
ENDBRANCH  19  21
ENDBRANCH   3  19
TORSDOF 3
ENDMDL
MODEL 4
REMARK VINA RESULT:      -8.3      1.365      2.492
REMARK  Name = 
REMARK  3 active torsions:
REMARK  status: ('A' for Active; 'I' for Inactive)
REMARK    1  A    between atoms: C_8  and  C_9
REMARK    2  A    between atoms: C_11  and  N_12
REMARK    3  A    between atoms: N_12  and  C_13
REMARK                            x       y       z     vdW  Elec       q    Type
REMARK                         _______ _______ _______ _____ _____    ______ ____
ROOT
ATOM      1  C   UNL     1       1.835   7.159  19.553  0.00  0.00    +0.000 A 
ATOM      2  C   UNL     1       2.662   6.796  18.475  0.00  0.00    +0.000 A 
ATOM      3  C   UNL     1       3.132   5.488  18.257  0.00  0.00    +0.000 A 
ATOM      4  C   UNL     1       2.627   4.445  19.091  0.00  0.00    +0.000 A 
ATOM      5  C   UNL     1       2.924   3.079  18.932  0.00  0.00    +0.000 A 
ATOM      6  C   UNL     1       2.404   2.144  19.816  0.00  0.00    +0.000 A 
ATOM      7  N   UNL     1       1.605   2.455  20.852  0.00  0.00    +0.000 NA
ATOM      8  C   UNL     1       1.308   3.766  20.995  0.00  0.00    +0.000 A 
ATOM      9  C   UNL     1       1.773   4.787  20.164  0.00  0.00    +0.000 A 
ATOM     10  C   UNL     1       1.405   6.120  20.389  0.00  0.00    +0.000 A 
ENDROOT
BRANCH   1  18
ATOM     11  F   UNL     1       1.372   8.272  22.177  0.00  0.00    +0.000 F 
ATOM     12  C   UNL     1       1.242   9.069  21.105  0.00  0.00    +0.000 A 
ATOM     13  C   UNL     1       0.904  10.402  21.356  0.00  0.00    +0.000 A 
ATOM     14  C   UNL     1       0.792  11.304  20.306  0.00  0.00    +0.000 A 
ATOM     15  C   UNL     1       1.012  10.862  19.009  0.00  0.00    +0.000 A 
ATOM     16  C   UNL     1       1.332   9.519  18.772  0.00  0.00    +0.000 A 
ATOM     17  F   UNL     1       1.503   9.167  17.488  0.00  0.00    +0.000 F 
ATOM     18  C   UNL     1       1.466   8.575  19.805  0.00  0.00    +0.000 A 
ENDBRANCH   1  18
BRANCH   3  19
ATOM     19  N   UNL     1       4.010   5.202  17.190  0.00  0.00    +0.000 N 
ATOM     20  H   UNL     1       3.772   4.337  16.718  0.00  0.00    +0.000 HD
BRANCH  19  21
ATOM     21  C   UNL     1       5.479   5.352  17.337  0.00  0.00    +0.000 C 
ATOM     22  C   UNL     1       5.929   6.738  16.839  0.00  0.00    +0.000 C 
ATOM     23  C   UNL     1       7.429   7.000  16.960  0.00  0.00    +0.000 C 
ATOM     24  C   UNL     1       7.856   7.226  18.405  0.00  0.00    +0.000 C 
ATOM     25  C   UNL     1       8.172   5.945  19.176  0.00  0.00    +0.000 C 
ATOM     26  N   UNL     1       7.267   4.811  19.035  0.00  0.00    +0.000 NA
ATOM     27  C   UNL     1       5.853   5.121  18.830  0.00  0.00    +0.000 C 
ATOM     28  H   UNL     1       7.369   4.208  19.853  0.00  0.00    +0.000 HD
ENDBRANCH  19  21
ENDBRANCH   3  19
TORSDOF 3
ENDMDL
MODEL 5
REMARK VINA RESULT:      -8.2      3.949      7.709
REMARK  Name = 
REMARK  3 active torsions:
REMARK  status: ('A' for Active; 'I' for Inactive)
REMARK    1  A    between atoms: C_8  and  C_9
REMARK    2  A    between atoms: C_11  and  N_12
REMARK    3  A    between atoms: N_12  and  C_13
REMARK                            x       y       z     vdW  Elec       q    Type
REMARK                         _______ _______ _______ _____ _____    ______ ____
ROOT
ATOM      1  C   UNL     1       2.060   7.624  18.943  0.00  0.00    +0.000 A 
ATOM      2  C   UNL     1       1.453   8.638  18.181  0.00  0.00    +0.000 A 
ATOM      3  C   UNL     1       0.672   9.669  18.734  0.00  0.00    +0.000 A 
ATOM      4  C   UNL     1       0.612   9.777  20.157  0.00  0.00    +0.000 A 
ATOM      5  C   UNL     1      -0.042  10.809  20.855  0.00  0.00    +0.000 A 
ATOM      6  C   UNL     1      -0.067  10.806  22.242  0.00  0.00    +0.000 A 
ATOM      7  N   UNL     1       0.509   9.858  23.001  0.00  0.00    +0.000 NA
ATOM      8  C   UNL     1       1.150   8.874  22.330  0.00  0.00    +0.000 A 
ATOM      9  C   UNL     1       1.239   8.781  20.940  0.00  0.00    +0.000 A 
ATOM     10  C   UNL     1       1.931   7.725  20.333  0.00  0.00    +0.000 A 
ENDROOT
BRANCH   1  18
ATOM     11  F   UNL     1       1.146   4.885  19.011  0.00  0.00    +0.000 F 
ATOM     12  C   UNL     1       2.290   5.169  18.367  0.00  0.00    +0.000 A 
ATOM     13  C   UNL     1       2.945   4.096  17.757  0.00  0.00    +0.000 A 
ATOM     14  C   UNL     1       4.111   4.309  17.033  0.00  0.00    +0.000 A 
ATOM     15  C   UNL     1       4.617   5.598  16.933  0.00  0.00    +0.000 A 
ATOM     16  C   UNL     1       3.960   6.660  17.565  0.00  0.00    +0.000 A 
ATOM     17  F   UNL     1       4.529   7.869  17.442  0.00  0.00    +0.000 F 
ATOM     18  C   UNL     1       2.772   6.491  18.298  0.00  0.00    +0.000 A 
ENDBRANCH   1  18
BRANCH   3  19
ATOM     19  N   UNL     1       0.039  10.622  17.908  0.00  0.00    +0.000 N 
ATOM     20  H   UNL     1       0.108  11.561  18.282  0.00  0.00    +0.000 HD
BRANCH  19  21
ATOM     21  C   UNL     1      -1.303  10.369  17.325  0.00  0.00    +0.000 C 
ATOM     22  C   UNL     1      -2.205   9.654  18.347  0.00  0.00    +0.000 C 
ATOM     23  C   UNL     1      -3.618   9.359  17.848  0.00  0.00    +0.000 C 
ATOM     24  C   UNL     1      -4.472  10.618  17.766  0.00  0.00    +0.000 C 
ATOM     25  C   UNL     1      -4.333  11.389  16.454  0.00  0.00    +0.000 C 
ATOM     26  N   UNL     1      -2.998  11.586  15.904  0.00  0.00    +0.000 NA
ATOM     27  C   UNL     1      -1.906  11.729  16.866  0.00  0.00    +0.000 C 
ATOM     28  H   UNL     1      -3.015  12.398  15.286  0.00  0.00    +0.000 HD
ENDBRANCH  19  21
ENDBRANCH   3  19
TORSDOF 3
ENDMDL
MODEL 6
REMARK VINA RESULT:      -8.1      3.962      7.801
REMARK  Name = 
REMARK  3 active torsions:
REMARK  status: ('A' for Active; 'I' for Inactive)
REMARK    1  A    between atoms: C_8  and  C_9
REMARK    2  A    between atoms: C_11  and  N_12
REMARK    3  A    between atoms: N_12  and  C_13
REMARK                            x       y       z     vdW  Elec       q    Type
REMARK                         _______ _______ _______ _____ _____    ______ ____
ROOT
ATOM      1  C   UNL     1       1.718   8.103  19.635  0.00  0.00    +0.000 A 
ATOM      2  C   UNL     1       1.323   9.192  18.838  0.00  0.00    +0.000 A 
ATOM      3  C   UNL     1       0.537  10.260  19.309  0.00  0.00    +0.000 A 
ATOM      4  C   UNL     1       0.246  10.315  20.705  0.00  0.00    +0.000 A 
ATOM      5  C   UNL     1      -0.440  11.368  21.339  0.00  0.00    +0.000 A 
ATOM      6  C   UNL     1      -0.698  11.313  22.701  0.00  0.00    +0.000 A 
ATOM      7  N   UNL     1      -0.329  10.292  23.494  0.00  0.00    +0.000 NA
ATOM      8  C   UNL     1       0.343   9.287  22.887  0.00  0.00    +0.000 A 
ATOM      9  C   UNL     1       0.658   9.242  21.528  0.00  0.00    +0.000 A 
ATOM     10  C   UNL     1       1.364   8.159  20.989  0.00  0.00    +0.000 A 
ENDROOT
BRANCH   1  18
ATOM     11  F   UNL     1       1.355   5.371  20.497  0.00  0.00    +0.000 F 
ATOM     12  C   UNL     1       2.239   5.628  19.519  0.00  0.00    +0.000 A 
ATOM     13  C   UNL     1       2.908   4.527  18.978  0.00  0.00    +0.000 A 
ATOM     14  C   UNL     1       3.808   4.701  17.934  0.00  0.00    +0.000 A 
ATOM     15  C   UNL     1       4.034   5.979  17.443  0.00  0.00    +0.000 A 
ATOM     16  C   UNL     1       3.369   7.074  18.008  0.00  0.00    +0.000 A 
ATOM     17  F   UNL     1       3.665   8.278  17.494  0.00  0.00    +0.000 F 
ATOM     18  C   UNL     1       2.444   6.944  19.058  0.00  0.00    +0.000 A 
ENDBRANCH   1  18
BRANCH   3  19
ATOM     19  N   UNL     1       0.122  11.292  18.441  0.00  0.00    +0.000 N 
ATOM     20  H   UNL     1       0.294  12.213  18.828  0.00  0.00    +0.000 HD
BRANCH  19  21
ATOM     21  C   UNL     1      -1.186  11.235  17.741  0.00  0.00    +0.000 C 
ATOM     22  C   UNL     1      -1.500   9.792  17.310  0.00  0.00    +0.000 C 
ATOM     23  C   UNL     1      -2.837   9.621  16.590  0.00  0.00    +0.000 C 
ATOM     24  C   UNL     1      -4.020   9.742  17.543  0.00  0.00    +0.000 C 
ATOM     25  C   UNL     1      -4.499  11.174  17.772  0.00  0.00    +0.000 C 
ATOM     26  N   UNL     1      -3.500  12.213  17.992  0.00  0.00    +0.000 NA
ATOM     27  C   UNL     1      -2.279  11.811  18.689  0.00  0.00    +0.000 C 
ATOM     28  H   UNL     1      -3.938  12.987  18.493  0.00  0.00    +0.000 HD
ENDBRANCH  19  21
ENDBRANCH   3  19
TORSDOF 3
ENDMDL
MODEL 7
REMARK VINA RESULT:      -8.1      3.973      7.695
REMARK  Name = 
REMARK  3 active torsions:
REMARK  status: ('A' for Active; 'I' for Inactive)
REMARK    1  A    between atoms: C_8  and  C_9
REMARK    2  A    between atoms: C_11  and  N_12
REMARK    3  A    between atoms: N_12  and  C_13
REMARK                            x       y       z     vdW  Elec       q    Type
REMARK                         _______ _______ _______ _____ _____    ______ ____
ROOT
ATOM      1  C   UNL     1       1.695   8.128  19.655  0.00  0.00    +0.000 A 
ATOM      2  C   UNL     1       1.301   9.219  18.860  0.00  0.00    +0.000 A 
ATOM      3  C   UNL     1       0.513  10.285  19.332  0.00  0.00    +0.000 A 
ATOM      4  C   UNL     1       0.219  10.336  20.728  0.00  0.00    +0.000 A 
ATOM      5  C   UNL     1      -0.469  11.387  21.362  0.00  0.00    +0.000 A 
ATOM      6  C   UNL     1      -0.731  11.327  22.724  0.00  0.00    +0.000 A 
ATOM      7  N   UNL     1      -0.363  10.305  23.515  0.00  0.00    +0.000 NA
ATOM      8  C   UNL     1       0.311   9.302  22.907  0.00  0.00    +0.000 A 
ATOM      9  C   UNL     1       0.629   9.261  21.548  0.00  0.00    +0.000 A 
ATOM     10  C   UNL     1       1.338   8.179  21.008  0.00  0.00    +0.000 A 
ENDROOT
BRANCH   1  18
ATOM     11  F   UNL     1       3.651   8.337  17.541  0.00  0.00    +0.000 F 
ATOM     12  C   UNL     1       3.364   7.123  18.039  0.00  0.00    +0.000 A 
ATOM     13  C   UNL     1       4.063   6.043  17.492  0.00  0.00    +0.000 A 
ATOM     14  C   UNL     1       3.857   4.759  17.978  0.00  0.00    +0.000 A 
ATOM     15  C   UNL     1       2.946   4.564  19.007  0.00  0.00    +0.000 A 
ATOM     16  C   UNL     1       2.239   5.653  19.532  0.00  0.00    +0.000 A 
ATOM     17  F   UNL     1       1.358   5.376  20.505  0.00  0.00    +0.000 F 
ATOM     18  C   UNL     1       2.424   6.970  19.077  0.00  0.00    +0.000 A 
ENDBRANCH   1  18
BRANCH   3  19
ATOM     19  N   UNL     1       0.101  11.319  18.466  0.00  0.00    +0.000 N 
ATOM     20  H   UNL     1       0.264  12.239  18.859  0.00  0.00    +0.000 HD
BRANCH  19  21
ATOM     21  C   UNL     1      -1.202  11.259  17.756  0.00  0.00    +0.000 C 
ATOM     22  C   UNL     1      -1.502   9.818  17.306  0.00  0.00    +0.000 C 
ATOM     23  C   UNL     1      -2.831   9.644  16.575  0.00  0.00    +0.000 C 
ATOM     24  C   UNL     1      -4.022   9.746  17.520  0.00  0.00    +0.000 C 
ATOM     25  C   UNL     1      -4.515  11.172  17.761  0.00  0.00    +0.000 C 
ATOM     26  N   UNL     1      -3.526  12.216  18.000  0.00  0.00    +0.000 NA
ATOM     27  C   UNL     1      -2.307  11.816  18.701  0.00  0.00    +0.000 C 
ATOM     28  H   UNL     1      -3.973  12.981  18.506  0.00  0.00    +0.000 HD
ENDBRANCH  19  21
ENDBRANCH   3  19
TORSDOF 3
ENDMDL
MODEL 8
REMARK VINA RESULT:      -8.0      1.486      5.076
REMARK  Name = 
REMARK  3 active torsions:
REMARK  status: ('A' for Active; 'I' for Inactive)
REMARK    1  A    between atoms: C_8  and  C_9
REMARK    2  A    between atoms: C_11  and  N_12
REMARK    3  A    between atoms: N_12  and  C_13
REMARK                            x       y       z     vdW  Elec       q    Type
REMARK                         _______ _______ _______ _____ _____    ______ ____
ROOT
ATOM      1  C   UNL     1       3.028   7.185  18.191  0.00  0.00    +0.000 A 
ATOM      2  C   UNL     1       2.640   5.834  18.136  0.00  0.00    +0.000 A 
ATOM      3  C   UNL     1       3.377   4.837  17.471  0.00  0.00    +0.000 A 
ATOM      4  C   UNL     1       4.658   5.186  16.946  0.00  0.00    +0.000 A 
ATOM      5  C   UNL     1       5.551   4.278  16.346  0.00  0.00    +0.000 A 
ATOM      6  C   UNL     1       6.764   4.725  15.841  0.00  0.00    +0.000 A 
ATOM      7  N   UNL     1       7.169   6.005  15.883  0.00  0.00    +0.000 NA
ATOM      8  C   UNL     1       6.317   6.874  16.473  0.00  0.00    +0.000 A 
ATOM      9  C   UNL     1       5.076   6.534  17.016  0.00  0.00    +0.000 A 
ATOM     10  C   UNL     1       4.263   7.505  17.614  0.00  0.00    +0.000 A 
ENDROOT
BRANCH   1  18
ATOM     11  F   UNL     1       1.886   6.983  20.836  0.00  0.00    +0.000 F 
ATOM     12  C   UNL     1       1.612   8.069  20.095  0.00  0.00    +0.000 A 
ATOM     13  C   UNL     1       0.796   9.037  20.686  0.00  0.00    +0.000 A 
ATOM     14  C   UNL     1       0.498  10.211  20.005  0.00  0.00    +0.000 A 
ATOM     15  C   UNL     1       1.017  10.402  18.732  0.00  0.00    +0.000 A 
ATOM     16  C   UNL     1       1.819   9.415  18.146  0.00  0.00    +0.000 A 
ATOM     17  F   UNL     1       2.258   9.666  16.903  0.00  0.00    +0.000 F 
ATOM     18  C   UNL     1       2.153   8.218  18.803  0.00  0.00    +0.000 A 
ENDBRANCH   1  18
BRANCH   3  19
ATOM     19  N   UNL     1       2.901   3.511  17.400  0.00  0.00    +0.000 N 
ATOM     20  H   UNL     1       2.199   3.392  16.680  0.00  0.00    +0.000 HD
BRANCH  19  21
ATOM     21  C   UNL     1       2.553   2.749  18.626  0.00  0.00    +0.000 C 
ATOM     22  C   UNL     1       3.743   2.729  19.601  0.00  0.00    +0.000 C 
ATOM     23  C   UNL     1       3.483   1.978  20.906  0.00  0.00    +0.000 C 
ATOM     24  C   UNL     1       2.555   2.750  21.835  0.00  0.00    +0.000 C 
ATOM     25  C   UNL     1       1.068   2.512  21.579  0.00  0.00    +0.000 C 
ATOM     26  N   UNL     1       0.594   2.507  20.200  0.00  0.00    +0.000 NA
ATOM     27  C   UNL     1       1.287   3.391  19.265  0.00  0.00    +0.000 C 
ATOM     28  H   UNL     1      -0.404   2.722  20.196  0.00  0.00    +0.000 HD
ENDBRANCH  19  21
ENDBRANCH   3  19
TORSDOF 3
ENDMDL
MODEL 9
REMARK VINA RESULT:      -8.0      1.486      4.859
REMARK  Name = 
REMARK  3 active torsions:
REMARK  status: ('A' for Active; 'I' for Inactive)
REMARK    1  A    between atoms: C_8  and  C_9
REMARK    2  A    between atoms: C_11  and  N_12
REMARK    3  A    between atoms: N_12  and  C_13
REMARK                            x       y       z     vdW  Elec       q    Type
REMARK                         _______ _______ _______ _____ _____    ______ ____
ROOT
ATOM      1  C   UNL     1       3.019   7.193  18.206  0.00  0.00    +0.000 A 
ATOM      2  C   UNL     1       2.627   5.843  18.150  0.00  0.00    +0.000 A 
ATOM      3  C   UNL     1       3.353   4.847  17.470  0.00  0.00    +0.000 A 
ATOM      4  C   UNL     1       4.628   5.195  16.931  0.00  0.00    +0.000 A 
ATOM      5  C   UNL     1       5.511   4.288  16.315  0.00  0.00    +0.000 A 
ATOM      6  C   UNL     1       6.719   4.734  15.797  0.00  0.00    +0.000 A 
ATOM      7  N   UNL     1       7.127   6.013  15.840  0.00  0.00    +0.000 NA
ATOM      8  C   UNL     1       6.286   6.881  16.445  0.00  0.00    +0.000 A 
ATOM      9  C   UNL     1       5.051   6.542  17.002  0.00  0.00    +0.000 A 
ATOM     10  C   UNL     1       4.247   7.512  17.615  0.00  0.00    +0.000 A 
ENDROOT
BRANCH   1  18
ATOM     11  F   UNL     1       2.236   9.654  16.915  0.00  0.00    +0.000 F 
ATOM     12  C   UNL     1       1.807   9.415  18.165  0.00  0.00    +0.000 A 
ATOM     13  C   UNL     1       0.987  10.390  18.741  0.00  0.00    +0.000 A 
ATOM     14  C   UNL     1       0.466  10.201  20.014  0.00  0.00    +0.000 A 
ATOM     15  C   UNL     1       0.776   9.038  20.705  0.00  0.00    +0.000 A 
ATOM     16  C   UNL     1       1.614   8.079  20.123  0.00  0.00    +0.000 A 
ATOM     17  F   UNL     1       1.886   6.997  20.868  0.00  0.00    +0.000 F 
ATOM     18  C   UNL     1       2.155   8.224  18.834  0.00  0.00    +0.000 A 
ENDBRANCH   1  18
BRANCH   3  19
ATOM     19  N   UNL     1       2.873   3.522  17.400  0.00  0.00    +0.000 N 
ATOM     20  H   UNL     1       2.166   3.407  16.683  0.00  0.00    +0.000 HD
BRANCH  19  21
ATOM     21  C   UNL     1       2.530   2.758  18.626  0.00  0.00    +0.000 C 
ATOM     22  C   UNL     1       3.727   2.732  19.594  0.00  0.00    +0.000 C 
ATOM     23  C   UNL     1       3.472   1.979  20.898  0.00  0.00    +0.000 C 
ATOM     24  C   UNL     1       2.552   2.752  21.835  0.00  0.00    +0.000 C 
ATOM     25  C   UNL     1       1.063   2.520  21.587  0.00  0.00    +0.000 C 
ATOM     26  N   UNL     1       0.581   2.519  20.212  0.00  0.00    +0.000 NA
ATOM     27  C   UNL     1       1.270   3.403  19.275  0.00  0.00    +0.000 C 
ATOM     28  H   UNL     1      -0.416   2.737  20.214  0.00  0.00    +0.000 HD
ENDBRANCH  19  21
ENDBRANCH   3  19
TORSDOF 3
ENDMDL
