MODEL 1
REMARK VINA RESULT:      -6.6      0.000      0.000
REMARK  Name = 
REMARK  7 active torsions:
REMARK  status: ('A' for Active; 'I' for Inactive)
REMARK    1  A    between atoms: C_1  and  O_2
REMARK    2  A    between atoms: O_2  and  C_3
REMARK    3  A    between atoms: C_3  and  C_4
REMARK    4  A    between atoms: C_3  and  C_18
REMARK    5  A    between atoms: N_16  and  C_17
REMARK    6  A    between atoms: C_18  and  C_19
REMARK    7  A    between atoms: C_18  and  C_20
REMARK                            x       y       z     vdW  Elec       q    Type
REMARK                         _______ _______ _______ _____ _____    ______ ____
ROOT
ATOM      1  C   UNL     1       4.204   4.623  17.836  0.00  0.00    +0.000 C 
ATOM      2  O   UNL     1       4.193   5.810  17.510  0.00  0.00    +0.000 OA
ATOM      3  N   UNL     1       4.868   3.624  17.147  0.00  0.00    +0.000 N 
ATOM      4  C   UNL     1       5.554   3.921  15.991  0.00  0.00    +0.000 A 
ATOM      5  N   UNL     1       5.428   3.231  14.881  0.00  0.00    +0.000 NA
ATOM      6  C   UNL     1       6.212   3.875  13.944  0.00  0.00    +0.000 A 
ATOM      7  C   UNL     1       6.392   3.662  12.567  0.00  0.00    +0.000 A 
ATOM      8 CL   UNL     1       5.443   2.439  11.848  0.00  0.00    +0.000 Cl
ATOM      9  C   UNL     1       7.292   4.435  11.831  0.00  0.00    +0.000 A 
ATOM     10  C   UNL     1       8.032   5.429  12.468  0.00  0.00    +0.000 A 
ATOM     11  C   UNL     1       7.869   5.688  13.835  0.00  0.00    +0.000 A 
ATOM     12  C   UNL     1       6.938   4.907  14.541  0.00  0.00    +0.000 A 
ATOM     13  N   UNL     1       6.517   4.901  15.854  0.00  0.00    +0.000 N 
ATOM     14  C   UNL     1       7.110   5.686  16.910  0.00  0.00    +0.000 C 
ATOM     15  H   UNL     1       4.400   2.722  17.164  0.00  0.00    +0.000 HD
ENDROOT
BRANCH   1  16
ATOM     16  C   UNL     1       3.492   4.142  19.119  0.00  0.00    +0.000 C 
BRANCH  16  17
ATOM     17  C   UNL     1       2.108   3.535  18.775  0.00  0.00    +0.000 C 
ATOM     18  C   UNL     1       1.467   4.188  17.548  0.00  0.00    +0.000 C 
ATOM     19  C   UNL     1       2.159   2.014  18.617  0.00  0.00    +0.000 C 
ENDBRANCH  16  17
BRANCH  16  21
ATOM     20  C   UNL     1       2.232   5.092  20.912  0.00  0.00    +0.000 C 
ATOM     21  O   UNL     1       3.379   5.210  20.072  0.00  0.00    +0.000 OA
ENDBRANCH  16  21
ENDBRANCH   1  16
TORSDOF 3
ENDMDL
MODEL 2
REMARK VINA RESULT:      -6.6      5.168      7.484
REMARK  Name = 
REMARK  7 active torsions:
REMARK  status: ('A' for Active; 'I' for Inactive)
REMARK    1  A    between atoms: C_1  and  O_2
REMARK    2  A    between atoms: O_2  and  C_3
REMARK    3  A    between atoms: C_3  and  C_4
REMARK    4  A    between atoms: C_3  and  C_18
REMARK    5  A    between atoms: N_16  and  C_17
REMARK    6  A    between atoms: C_18  and  C_19
REMARK    7  A    between atoms: C_18  and  C_20
REMARK                            x       y       z     vdW  Elec       q    Type
REMARK                         _______ _______ _______ _____ _____    ______ ____
ROOT
ATOM      1  C   UNL     1       0.923   9.229  20.323  0.00  0.00    +0.000 C 
ATOM      2  O   UNL     1       0.407   9.149  19.208  0.00  0.00    +0.000 OA
ATOM      3  N   UNL     1       1.685   8.236  20.911  0.00  0.00    +0.000 N 
ATOM      4  C   UNL     1       1.887   7.042  20.256  0.00  0.00    +0.000 A 
ATOM      5  N   UNL     1       1.720   5.870  20.826  0.00  0.00    +0.000 NA
ATOM      6  C   UNL     1       1.945   4.933  19.839  0.00  0.00    +0.000 A 
ATOM      7  C   UNL     1       1.813   3.534  19.826  0.00  0.00    +0.000 A 
ATOM      8 CL   UNL     1       1.201   2.808  21.245  0.00  0.00    +0.000 Cl
ATOM      9  C   UNL     1       2.151   2.789  18.695  0.00  0.00    +0.000 A 
ATOM     10  C   UNL     1       2.635   3.437  17.560  0.00  0.00    +0.000 A 
ATOM     11  C   UNL     1       2.763   4.831  17.523  0.00  0.00    +0.000 A 
ATOM     12  C   UNL     1       2.392   5.552  18.670  0.00  0.00    +0.000 A 
ATOM     13  N   UNL     1       2.368   6.898  18.970  0.00  0.00    +0.000 N 
ATOM     14  C   UNL     1       2.906   7.937  18.126  0.00  0.00    +0.000 C 
ATOM     15  H   UNL     1       1.588   8.176  21.920  0.00  0.00    +0.000 HD
ENDROOT
BRANCH   1  16
ATOM     16  C   UNL     1       0.797  10.516  21.168  0.00  0.00    +0.000 C 
BRANCH  16  17
ATOM     17  C   UNL     1      -0.383  10.393  22.167  0.00  0.00    +0.000 C 
ATOM     18  C   UNL     1      -0.037   9.538  23.387  0.00  0.00    +0.000 C 
ATOM     19  C   UNL     1      -0.929  11.757  22.595  0.00  0.00    +0.000 C 
ENDBRANCH  16  17
BRANCH  16  21
ATOM     20  C   UNL     1       1.775  12.555  20.401  0.00  0.00    +0.000 C 
ATOM     21  O   UNL     1       0.659  11.670  20.326  0.00  0.00    +0.000 OA
ENDBRANCH  16  21
ENDBRANCH   1  16
TORSDOF 3
ENDMDL
MODEL 3
REMARK VINA RESULT:      -6.6      0.784      1.157
REMARK  Name = 
REMARK  7 active torsions:
REMARK  status: ('A' for Active; 'I' for Inactive)
REMARK    1  A    between atoms: C_1  and  O_2
REMARK    2  A    between atoms: O_2  and  C_3
REMARK    3  A    between atoms: C_3  and  C_4
REMARK    4  A    between atoms: C_3  and  C_18
REMARK    5  A    between atoms: N_16  and  C_17
REMARK    6  A    between atoms: C_18  and  C_19
REMARK    7  A    between atoms: C_18  and  C_20
REMARK                            x       y       z     vdW  Elec       q    Type
REMARK                         _______ _______ _______ _____ _____    ______ ____
ROOT
ATOM      1  C   UNL     1       4.255   4.669  17.803  0.00  0.00    +0.000 C 
ATOM      2  O   UNL     1       4.246   5.854  17.469  0.00  0.00    +0.000 OA
ATOM      3  N   UNL     1       4.906   3.662  17.114  0.00  0.00    +0.000 N 
ATOM      4  C   UNL     1       5.583   3.948  15.950  0.00  0.00    +0.000 A 
ATOM      5  N   UNL     1       5.443   3.251  14.845  0.00  0.00    +0.000 NA
ATOM      6  C   UNL     1       6.220   3.885  13.897  0.00  0.00    +0.000 A 
ATOM      7  C   UNL     1       6.386   3.662  12.520  0.00  0.00    +0.000 A 
ATOM      8 CL   UNL     1       5.424   2.438  11.818  0.00  0.00    +0.000 Cl
ATOM      9  C   UNL     1       7.282   4.425  11.769  0.00  0.00    +0.000 A 
ATOM     10  C   UNL     1       8.034   5.420  12.393  0.00  0.00    +0.000 A 
ATOM     11  C   UNL     1       7.885   5.689  13.759  0.00  0.00    +0.000 A 
ATOM     12  C   UNL     1       6.958   4.917  14.479  0.00  0.00    +0.000 A 
ATOM     13  N   UNL     1       6.549   4.923  15.796  0.00  0.00    +0.000 N 
ATOM     14  C   UNL     1       7.156   5.712  16.841  0.00  0.00    +0.000 C 
ATOM     15  H   UNL     1       4.435   2.763  17.142  0.00  0.00    +0.000 HD
ENDROOT
BRANCH   1  16
ATOM     16  C   UNL     1       3.552   4.200  19.097  0.00  0.00    +0.000 C 
BRANCH  16  17
ATOM     17  C   UNL     1       3.545   2.652  19.178  0.00  0.00    +0.000 C 
ATOM     18  C   UNL     1       4.328   2.121  20.380  0.00  0.00    +0.000 C 
ATOM     19  C   UNL     1       2.130   2.072  19.150  0.00  0.00    +0.000 C 
ENDBRANCH  16  17
BRANCH  16  21
ATOM     20  C   UNL     1       2.022   5.546  20.342  0.00  0.00    +0.000 C 
ATOM     21  O   UNL     1       2.225   4.741  19.182  0.00  0.00    +0.000 OA
ENDBRANCH  16  21
ENDBRANCH   1  16
TORSDOF 3
ENDMDL
MODEL 4
REMARK VINA RESULT:      -6.5      4.820      6.805
REMARK  Name = 
REMARK  7 active torsions:
REMARK  status: ('A' for Active; 'I' for Inactive)
REMARK    1  A    between atoms: C_1  and  O_2
REMARK    2  A    between atoms: O_2  and  C_3
REMARK    3  A    between atoms: C_3  and  C_4
REMARK    4  A    between atoms: C_3  and  C_18
REMARK    5  A    between atoms: N_16  and  C_17
REMARK    6  A    between atoms: C_18  and  C_19
REMARK    7  A    between atoms: C_18  and  C_20
REMARK                            x       y       z     vdW  Elec       q    Type
REMARK                         _______ _______ _______ _____ _____    ______ ____
ROOT
ATOM      1  C   UNL     1       1.565   8.783  18.791  0.00  0.00    +0.000 C 
ATOM      2  O   UNL     1       1.391   8.487  17.609  0.00  0.00    +0.000 OA
ATOM      3  N   UNL     1       2.070   7.926  19.752  0.00  0.00    +0.000 N 
ATOM      4  C   UNL     1       2.387   6.628  19.420  0.00  0.00    +0.000 A 
ATOM      5  N   UNL     1       2.000   5.589  20.123  0.00  0.00    +0.000 NA
ATOM      6  C   UNL     1       2.450   4.479  19.439  0.00  0.00    +0.000 A 
ATOM      7  C   UNL     1       2.253   3.104  19.649  0.00  0.00    +0.000 A 
ATOM      8 CL   UNL     1       1.218   2.664  20.934  0.00  0.00    +0.000 Cl
ATOM      9  C   UNL     1       2.863   2.154  18.827  0.00  0.00    +0.000 A 
ATOM     10  C   UNL     1       3.689   2.571  17.785  0.00  0.00    +0.000 A 
ATOM     11  C   UNL     1       3.898   3.933  17.528  0.00  0.00    +0.000 A 
ATOM     12  C   UNL     1       3.250   4.861  18.360  0.00  0.00    +0.000 A 
ATOM     13  N   UNL     1       3.212   6.239  18.383  0.00  0.00    +0.000 N 
ATOM     14  C   UNL     1       4.026   7.097  17.557  0.00  0.00    +0.000 C 
ATOM     15  H   UNL     1       1.682   8.063  20.680  0.00  0.00    +0.000 HD
ENDROOT
BRANCH   1  16
ATOM     16  C   UNL     1       1.269  10.209  19.307  0.00  0.00    +0.000 C 
BRANCH  16  17
ATOM     17  C   UNL     1      -0.116  10.257  20.001  0.00  0.00    +0.000 C 
ATOM     18  C   UNL     1      -0.120  11.139  21.251  0.00  0.00    +0.000 C 
ATOM     19  C   UNL     1      -1.236  10.667  19.043  0.00  0.00    +0.000 C 
ENDBRANCH  16  17
BRANCH  16  21
ATOM     20  C   UNL     1       2.100  12.333  18.598  0.00  0.00    +0.000 C 
ATOM     21  O   UNL     1       1.359  11.167  18.241  0.00  0.00    +0.000 OA
ENDBRANCH  16  21
ENDBRANCH   1  16
TORSDOF 3
ENDMDL
MODEL 5
REMARK VINA RESULT:      -6.3      0.888      1.436
REMARK  Name = 
REMARK  7 active torsions:
REMARK  status: ('A' for Active; 'I' for Inactive)
REMARK    1  A    between atoms: C_1  and  O_2
REMARK    2  A    between atoms: O_2  and  C_3
REMARK    3  A    between atoms: C_3  and  C_4
REMARK    4  A    between atoms: C_3  and  C_18
REMARK    5  A    between atoms: N_16  and  C_17
REMARK    6  A    between atoms: C_18  and  C_19
REMARK    7  A    between atoms: C_18  and  C_20
REMARK                            x       y       z     vdW  Elec       q    Type
REMARK                         _______ _______ _______ _____ _____    ______ ____
ROOT
ATOM      1  C   UNL     1       4.028   4.237  17.728  0.00  0.00    +0.000 C 
ATOM      2  O   UNL     1       3.976   5.440  17.470  0.00  0.00    +0.000 OA
ATOM      3  N   UNL     1       4.761   3.309  17.009  0.00  0.00    +0.000 N 
ATOM      4  C   UNL     1       5.475   3.702  15.900  0.00  0.00    +0.000 A 
ATOM      5  N   UNL     1       5.421   3.074  14.748  0.00  0.00    +0.000 NA
ATOM      6  C   UNL     1       6.209   3.804  13.881  0.00  0.00    +0.000 A 
ATOM      7  C   UNL     1       6.449   3.680  12.503  0.00  0.00    +0.000 A 
ATOM      8 CL   UNL     1       5.583   2.461  11.679  0.00  0.00    +0.000 Cl
ATOM      9  C   UNL     1       7.340   4.532  11.847  0.00  0.00    +0.000 A 
ATOM     10  C   UNL     1       8.011   5.517  12.569  0.00  0.00    +0.000 A 
ATOM     11  C   UNL     1       7.786   5.689  13.941  0.00  0.00    +0.000 A 
ATOM     12  C   UNL     1       6.866   4.829  14.564  0.00  0.00    +0.000 A 
ATOM     13  N   UNL     1       6.398   4.729  15.857  0.00  0.00    +0.000 N 
ATOM     14  C   UNL     1       6.915   5.475  16.978  0.00  0.00    +0.000 C 
ATOM     15  H   UNL     1       4.334   2.389  16.957  0.00  0.00    +0.000 HD
ENDROOT
BRANCH   1  16
ATOM     16  C   UNL     1       3.291   3.652  18.953  0.00  0.00    +0.000 C 
BRANCH  16  17
ATOM     17  C   UNL     1       2.043   4.506  19.292  0.00  0.00    +0.000 C 
ATOM     18  C   UNL     1       0.889   3.670  19.849  0.00  0.00    +0.000 C 
ATOM     19  C   UNL     1       2.370   5.672  20.227  0.00  0.00    +0.000 C 
ENDBRANCH  16  17
BRANCH  16  21
ATOM     20  C   UNL     1       4.440   2.189  20.451  0.00  0.00    +0.000 C 
ATOM     21  O   UNL     1       4.177   3.540  20.077  0.00  0.00    +0.000 OA
ENDBRANCH  16  21
ENDBRANCH   1  16
TORSDOF 3
ENDMDL
MODEL 6
REMARK VINA RESULT:      -6.1      5.420      7.440
REMARK  Name = 
REMARK  7 active torsions:
REMARK  status: ('A' for Active; 'I' for Inactive)
REMARK    1  A    between atoms: C_1  and  O_2
REMARK    2  A    between atoms: O_2  and  C_3
REMARK    3  A    between atoms: C_3  and  C_4
REMARK    4  A    between atoms: C_3  and  C_18
REMARK    5  A    between atoms: N_16  and  C_17
REMARK    6  A    between atoms: C_18  and  C_19
REMARK    7  A    between atoms: C_18  and  C_20
REMARK                            x       y       z     vdW  Elec       q    Type
REMARK                         _______ _______ _______ _____ _____    ______ ____
ROOT
ATOM      1  C   UNL     1       0.788   9.538  19.620  0.00  0.00    +0.000 C 
ATOM      2  O   UNL     1       0.424   9.298  18.469  0.00  0.00    +0.000 OA
ATOM      3  N   UNL     1       1.536   8.678  20.405  0.00  0.00    +0.000 N 
ATOM      4  C   UNL     1       1.898   7.441  19.921  0.00  0.00    +0.000 A 
ATOM      5  N   UNL     1       1.739   6.327  20.598  0.00  0.00    +0.000 NA
ATOM      6  C   UNL     1       2.150   5.312  19.759  0.00  0.00    +0.000 A 
ATOM      7  C   UNL     1       2.116   3.914  19.893  0.00  0.00    +0.000 A 
ATOM      8 CL   UNL     1       1.379   3.295  21.303  0.00  0.00    +0.000 Cl
ATOM      9  C   UNL     1       2.642   3.082  18.903  0.00  0.00    +0.000 A 
ATOM     10  C   UNL     1       3.221   3.643  17.766  0.00  0.00    +0.000 A 
ATOM     11  C   UNL     1       3.259   5.031  17.583  0.00  0.00    +0.000 A 
ATOM     12  C   UNL     1       2.699   5.837  18.588  0.00  0.00    +0.000 A 
ATOM     13  N   UNL     1       2.547   7.201  18.725  0.00  0.00    +0.000 N 
ATOM     14  C   UNL     1       3.115   8.184  17.836  0.00  0.00    +0.000 C 
ATOM     15  H   UNL     1       1.316   8.718  21.395  0.00  0.00    +0.000 HD
ENDROOT
BRANCH   1  16
ATOM     16  C   UNL     1       0.470  10.893  20.291  0.00  0.00    +0.000 C 
BRANCH  16  17
ATOM     17  C   UNL     1       1.229  12.041  19.578  0.00  0.00    +0.000 C 
ATOM     18  C   UNL     1       0.328  12.856  18.647  0.00  0.00    +0.000 C 
ATOM     19  C   UNL     1       1.964  12.954  20.561  0.00  0.00    +0.000 C 
ENDBRANCH  16  17
BRANCH  16  21
ATOM     20  C   UNL     1      -0.394  10.790  22.515  0.00  0.00    +0.000 C 
ATOM     21  O   UNL     1       0.771  10.852  21.694  0.00  0.00    +0.000 OA
ENDBRANCH  16  21
ENDBRANCH   1  16
TORSDOF 3
ENDMDL
MODEL 7
REMARK VINA RESULT:      -6.1      4.277      7.570
REMARK  Name = 
REMARK  7 active torsions:
REMARK  status: ('A' for Active; 'I' for Inactive)
REMARK    1  A    between atoms: C_1  and  O_2
REMARK    2  A    between atoms: O_2  and  C_3
REMARK    3  A    between atoms: C_3  and  C_4
REMARK    4  A    between atoms: C_3  and  C_18
REMARK    5  A    between atoms: N_16  and  C_17
REMARK    6  A    between atoms: C_18  and  C_19
REMARK    7  A    between atoms: C_18  and  C_20
REMARK                            x       y       z     vdW  Elec       q    Type
REMARK                         _______ _______ _______ _____ _____    ______ ____
ROOT
ATOM      1  C   UNL     1       2.701   4.986  17.843  0.00  0.00    +0.000 C 
ATOM      2  O   UNL     1       1.574   4.600  18.153  0.00  0.00    +0.000 OA
ATOM      3  N   UNL     1       3.244   6.204  18.208  0.00  0.00    +0.000 N 
ATOM      4  C   UNL     1       2.500   7.098  18.946  0.00  0.00    +0.000 A 
ATOM      5  N   UNL     1       2.384   8.368  18.634  0.00  0.00    +0.000 NA
ATOM      6  C   UNL     1       1.513   8.907  19.560  0.00  0.00    +0.000 A 
ATOM      7  C   UNL     1       0.935  10.182  19.672  0.00  0.00    +0.000 A 
ATOM      8 CL   UNL     1       1.282  11.295  18.424  0.00  0.00    +0.000 Cl
ATOM      9  C   UNL     1       0.103  10.505  20.745  0.00  0.00    +0.000 A 
ATOM     10  C   UNL     1      -0.155   9.552  21.729  0.00  0.00    +0.000 A 
ATOM     11  C   UNL     1       0.384   8.262  21.647  0.00  0.00    +0.000 A 
ATOM     12  C   UNL     1       1.199   7.965  20.541  0.00  0.00    +0.000 A 
ATOM     13  N   UNL     1       1.860   6.824  20.138  0.00  0.00    +0.000 N 
ATOM     14  C   UNL     1       1.973   5.619  20.925  0.00  0.00    +0.000 C 
ATOM     15  H   UNL     1       3.863   6.612  17.514  0.00  0.00    +0.000 HD
ENDROOT
BRANCH   1  16
ATOM     16  C   UNL     1       3.656   4.084  17.030  0.00  0.00    +0.000 C 
BRANCH  16  17
ATOM     17  C   UNL     1       4.209   2.941  17.920  0.00  0.00    +0.000 C 
ATOM     18  C   UNL     1       4.643   3.429  19.304  0.00  0.00    +0.000 C 
ATOM     19  C   UNL     1       3.233   1.769  18.038  0.00  0.00    +0.000 C 
ENDBRANCH  16  17
BRANCH  16  21
ATOM     20  C   UNL     1       5.668   4.061  15.743  0.00  0.00    +0.000 C 
ATOM     21  O   UNL     1       4.715   4.857  16.444  0.00  0.00    +0.000 OA
ENDBRANCH  16  21
ENDBRANCH   1  16
TORSDOF 3
ENDMDL
MODEL 8
REMARK VINA RESULT:      -6.1      5.532      7.754
REMARK  Name = 
REMARK  7 active torsions:
REMARK  status: ('A' for Active; 'I' for Inactive)
REMARK    1  A    between atoms: C_1  and  O_2
REMARK    2  A    between atoms: O_2  and  C_3
REMARK    3  A    between atoms: C_3  and  C_4
REMARK    4  A    between atoms: C_3  and  C_18
REMARK    5  A    between atoms: N_16  and  C_17
REMARK    6  A    between atoms: C_18  and  C_19
REMARK    7  A    between atoms: C_18  and  C_20
REMARK                            x       y       z     vdW  Elec       q    Type
REMARK                         _______ _______ _______ _____ _____    ______ ____
ROOT
ATOM      1  C   UNL     1       3.181   5.168  19.823  0.00  0.00    +0.000 C 
ATOM      2  O   UNL     1       4.118   5.908  19.522  0.00  0.00    +0.000 OA
ATOM      3  N   UNL     1       1.911   5.602  20.156  0.00  0.00    +0.000 N 
ATOM      4  C   UNL     1       1.631   6.950  20.199  0.00  0.00    +0.000 A 
ATOM      5  N   UNL     1       1.012   7.526  21.203  0.00  0.00    +0.000 NA
ATOM      6  C   UNL     1       0.985   8.874  20.909  0.00  0.00    +0.000 A 
ATOM      7  C   UNL     1       0.551   9.986  21.649  0.00  0.00    +0.000 A 
ATOM      8 CL   UNL     1       0.009   9.687  23.240  0.00  0.00    +0.000 Cl
ATOM      9  C   UNL     1       0.586  11.272  21.105  0.00  0.00    +0.000 A 
ATOM     10  C   UNL     1       1.050  11.458  19.804  0.00  0.00    +0.000 A 
ATOM     11  C   UNL     1       1.511  10.380  19.038  0.00  0.00    +0.000 A 
ATOM     12  C   UNL     1       1.483   9.104  19.625  0.00  0.00    +0.000 A 
ATOM     13  N   UNL     1       1.869   7.856  19.184  0.00  0.00    +0.000 N 
ATOM     14  C   UNL     1       2.294   7.556  17.838  0.00  0.00    +0.000 C 
ATOM     15  H   UNL     1       1.443   5.032  20.853  0.00  0.00    +0.000 HD
ENDROOT
BRANCH   1  16
ATOM     16  C   UNL     1       3.341   3.632  19.803  0.00  0.00    +0.000 C 
BRANCH  16  17
ATOM     17  C   UNL     1       3.609   3.135  18.359  0.00  0.00    +0.000 C 
ATOM     18  C   UNL     1       3.689   1.609  18.265  0.00  0.00    +0.000 C 
ATOM     19  C   UNL     1       2.597   3.689  17.354  0.00  0.00    +0.000 C 
ENDBRANCH  16  17
BRANCH  16  21
ATOM     20  C   UNL     1       2.407   2.560  21.722  0.00  0.00    +0.000 C 
ATOM     21  O   UNL     1       2.193   2.991  20.379  0.00  0.00    +0.000 OA
ENDBRANCH  16  21
ENDBRANCH   1  16
TORSDOF 3
ENDMDL
MODEL 9
REMARK VINA RESULT:      -5.9      3.883      5.451
REMARK  Name = 
REMARK  7 active torsions:
REMARK  status: ('A' for Active; 'I' for Inactive)
REMARK    1  A    between atoms: C_1  and  O_2
REMARK    2  A    between atoms: O_2  and  C_3
REMARK    3  A    between atoms: C_3  and  C_4
REMARK    4  A    between atoms: C_3  and  C_18
REMARK    5  A    between atoms: N_16  and  C_17
REMARK    6  A    between atoms: C_18  and  C_19
REMARK    7  A    between atoms: C_18  and  C_20
REMARK                            x       y       z     vdW  Elec       q    Type
REMARK                         _______ _______ _______ _____ _____    ______ ____
ROOT
ATOM      1  C   UNL     1       1.753   7.678  19.979  0.00  0.00    +0.000 C 
ATOM      2  O   UNL     1       1.841   6.597  20.563  0.00  0.00    +0.000 OA
ATOM      3  N   UNL     1       2.403   7.991  18.799  0.00  0.00    +0.000 N 
ATOM      4  C   UNL     1       3.244   7.074  18.210  0.00  0.00    +0.000 A 
ATOM      5  N   UNL     1       4.453   7.369  17.793  0.00  0.00    +0.000 NA
ATOM      6  C   UNL     1       4.996   6.185  17.336  0.00  0.00    +0.000 A 
ATOM      7  C   UNL     1       6.281   5.861  16.871  0.00  0.00    +0.000 A 
ATOM      8 CL   UNL     1       7.453   7.102  16.923  0.00  0.00    +0.000 Cl
ATOM      9  C   UNL     1       6.579   4.576  16.413  0.00  0.00    +0.000 A 
ATOM     10  C   UNL     1       5.586   3.598  16.405  0.00  0.00    +0.000 A 
ATOM     11  C   UNL     1       4.296   3.873  16.877  0.00  0.00    +0.000 A 
ATOM     12  C   UNL     1       4.038   5.170  17.353  0.00  0.00    +0.000 A 
ATOM     13  N   UNL     1       2.920   5.768  17.895  0.00  0.00    +0.000 N 
ATOM     14  C   UNL     1       1.614   5.160  17.962  0.00  0.00    +0.000 C 
ATOM     15  H   UNL     1       2.686   8.963  18.722  0.00  0.00    +0.000 HD
ENDROOT
BRANCH   1  16
ATOM     16  C   UNL     1       0.833   8.799  20.513  0.00  0.00    +0.000 C 
BRANCH  16  17
ATOM     17  C   UNL     1       0.736   9.954  19.484  0.00  0.00    +0.000 C 
ATOM     18  C   UNL     1      -0.663  10.087  18.877  0.00  0.00    +0.000 C 
ATOM     19  C   UNL     1       1.208  11.290  20.060  0.00  0.00    +0.000 C 
ENDBRANCH  16  17
BRANCH  16  21
ATOM     20  C   UNL     1       0.249   9.319  22.769  0.00  0.00    +0.000 C 
ATOM     21  O   UNL     1       1.287   9.267  21.792  0.00  0.00    +0.000 OA
ENDBRANCH  16  21
ENDBRANCH   1  16
TORSDOF 3
ENDMDL
