MODEL 1
REMARK VINA RESULT:      -8.0      0.000      0.000
REMARK  Name = 
REMARK  7 active torsions:
REMARK  status: ('A' for Active; 'I' for Inactive)
REMARK    1  A    between atoms: C_1  and  C_2
REMARK    2  A    between atoms: N_4  and  C_5
REMARK    3  A    between atoms: C_5  and  C_6
REMARK    4  A    between atoms: C_9  and  C_10
REMARK    5  A    between atoms: N_12  and  C_13
REMARK    6  A    between atoms: C_18  and  C_19
REMARK    7  A    between atoms: C_20  and  N_21
REMARK                            x       y       z     vdW  Elec       q    Type
REMARK                         _______ _______ _______ _____ _____    ______ ____
ROOT
ATOM      1  C   UNL     1       5.879   4.784  17.503  0.00  0.00    +0.000 A 
ATOM      2  C   UNL     1       7.140   4.898  16.905  0.00  0.00    +0.000 A 
ATOM      3  C   UNL     1       7.299   4.675  15.532  0.00  0.00    +0.000 A 
ATOM      4  C   UNL     1       6.204   4.343  14.717  0.00  0.00    +0.000 A 
ATOM      5  C   UNL     1       4.931   4.310  15.299  0.00  0.00    +0.000 A 
ATOM      6  C   UNL     1       4.772   4.532  16.679  0.00  0.00    +0.000 A 
ENDROOT
BRANCH   4   7
ATOM      7  C   UNL     1       6.493   3.993  13.288  0.00  0.00    +0.000 C 
ATOM      8  O   UNL     1       7.277   4.690  12.646  0.00  0.00    +0.000 OA
ATOM      9  N   UNL     1       5.893   2.865  12.743  0.00  0.00    +0.000 N 
ATOM     10  H   UNL     1       5.255   2.303  13.280  0.00  0.00    +0.000 HD
BRANCH   9  11
ATOM     11  C   UNL     1       6.195   2.440  11.405  0.00  0.00    +0.000 C 
ATOM     12  C   UNL     1       7.425   1.635  11.086  0.00  0.00    +0.000 C 
ATOM     13  C   UNL     1       6.072   0.989  11.033  0.00  0.00    +0.000 C 
ENDBRANCH   9  11
ENDBRANCH   4   7
BRANCH   1  14
ATOM     14  C   UNL     1       5.748   4.817  19.010  0.00  0.00    +0.000 C 
BRANCH  14  18
ATOM     15  C   UNL     1       1.451   6.234  20.703  0.00  0.00    +0.000 C 
ATOM     16  C   UNL     1       2.503   5.275  20.275  0.00  0.00    +0.000 A 
ATOM     17  N   UNL     1       3.652   5.738  19.765  0.00  0.00    +0.000 NA
ATOM     18  N   UNL     1       4.386   4.634  19.500  0.00  0.00    +0.000 N 
ATOM     19  C   UNL     1       3.770   3.470  19.916  0.00  0.00    +0.000 A 
ATOM     20  C   UNL     1       4.409   2.127  19.874  0.00  0.00    +0.000 C 
ATOM     21  C   UNL     1       2.503   3.859  20.342  0.00  0.00    +0.000 A 
BRANCH  21  22
ATOM     22  N   UNL     1       1.434   3.007  20.796  0.00  0.00    +0.000 N 
ATOM     23  O   UNL     1       1.463   2.641  21.977  0.00  0.00    +0.000 OA
ATOM     24  O   UNL     1       0.551   2.711  19.981  0.00  0.00    +0.000 OA
ENDBRANCH  21  22
ENDBRANCH  14  18
ENDBRANCH   1  14
TORSDOF 5
ENDMDL
MODEL 2
REMARK VINA RESULT:      -7.5      0.807      1.881
REMARK  Name = 
REMARK  7 active torsions:
REMARK  status: ('A' for Active; 'I' for Inactive)
REMARK    1  A    between atoms: C_1  and  C_2
REMARK    2  A    between atoms: N_4  and  C_5
REMARK    3  A    between atoms: C_5  and  C_6
REMARK    4  A    between atoms: C_9  and  C_10
REMARK    5  A    between atoms: N_12  and  C_13
REMARK    6  A    between atoms: C_18  and  C_19
REMARK    7  A    between atoms: C_20  and  N_21
REMARK                            x       y       z     vdW  Elec       q    Type
REMARK                         _______ _______ _______ _____ _____    ______ ____
ROOT
ATOM      1  C   UNL     1       5.996   5.527  17.467  0.00  0.00    +0.000 A 
ATOM      2  C   UNL     1       7.143   4.826  17.077  0.00  0.00    +0.000 A 
ATOM      3  C   UNL     1       7.366   4.521  15.729  0.00  0.00    +0.000 A 
ATOM      4  C   UNL     1       6.458   4.916  14.733  0.00  0.00    +0.000 A 
ATOM      5  C   UNL     1       5.353   5.689  15.113  0.00  0.00    +0.000 A 
ATOM      6  C   UNL     1       5.129   5.993  16.468  0.00  0.00    +0.000 A 
ENDROOT
BRANCH   4   7
ATOM      7  C   UNL     1       6.714   4.430  13.338  0.00  0.00    +0.000 C 
ATOM      8  O   UNL     1       7.560   4.998  12.651  0.00  0.00    +0.000 OA
ATOM      9  N   UNL     1       6.010   3.325  12.877  0.00  0.00    +0.000 N 
ATOM     10  H   UNL     1       5.321   2.869  13.451  0.00  0.00    +0.000 HD
BRANCH   9  11
ATOM     11  C   UNL     1       6.271   2.770  11.579  0.00  0.00    +0.000 C 
ATOM     12  C   UNL     1       7.287   1.680  11.371  0.00  0.00    +0.000 C 
ATOM     13  C   UNL     1       5.824   1.372  11.256  0.00  0.00    +0.000 C 
ENDBRANCH   9  11
ENDBRANCH   4   7
BRANCH   1  14
ATOM     14  C   UNL     1       5.656   5.669  18.934  0.00  0.00    +0.000 C 
BRANCH  14  18
ATOM     15  C   UNL     1       4.320   1.133  19.925  0.00  0.00    +0.000 C 
ATOM     16  C   UNL     1       4.190   2.612  19.857  0.00  0.00    +0.000 A 
ATOM     17  N   UNL     1       5.217   3.346  19.408  0.00  0.00    +0.000 NA
ATOM     18  N   UNL     1       4.778   4.624  19.453  0.00  0.00    +0.000 N 
ATOM     19  C   UNL     1       3.455   4.722  19.833  0.00  0.00    +0.000 A 
ATOM     20  C   UNL     1       2.678   5.991  19.834  0.00  0.00    +0.000 C 
ATOM     21  C   UNL     1       3.080   3.428  20.187  0.00  0.00    +0.000 A 
BRANCH  21  22
ATOM     22  N   UNL     1       1.815   3.004  20.733  0.00  0.00    +0.000 N 
ATOM     23  O   UNL     1       1.759   2.818  21.955  0.00  0.00    +0.000 OA
ATOM     24  O   UNL     1       0.868   2.869  19.948  0.00  0.00    +0.000 OA
ENDBRANCH  21  22
ENDBRANCH  14  18
ENDBRANCH   1  14
TORSDOF 5
ENDMDL
MODEL 3
REMARK VINA RESULT:      -7.5      1.152      1.833
REMARK  Name = 
REMARK  7 active torsions:
REMARK  status: ('A' for Active; 'I' for Inactive)
REMARK    1  A    between atoms: C_1  and  C_2
REMARK    2  A    between atoms: N_4  and  C_5
REMARK    3  A    between atoms: C_5  and  C_6
REMARK    4  A    between atoms: C_9  and  C_10
REMARK    5  A    between atoms: N_12  and  C_13
REMARK    6  A    between atoms: C_18  and  C_19
REMARK    7  A    between atoms: C_20  and  N_21
REMARK                            x       y       z     vdW  Elec       q    Type
REMARK                         _______ _______ _______ _____ _____    ______ ____
ROOT
ATOM      1  C   UNL     1       5.922   4.545  17.323  0.00  0.00    +0.000 A 
ATOM      2  C   UNL     1       4.829   3.953  16.678  0.00  0.00    +0.000 A 
ATOM      3  C   UNL     1       4.862   3.713  15.299  0.00  0.00    +0.000 A 
ATOM      4  C   UNL     1       5.988   4.046  14.529  0.00  0.00    +0.000 A 
ATOM      5  C   UNL     1       7.112   4.561  15.186  0.00  0.00    +0.000 A 
ATOM      6  C   UNL     1       7.078   4.804  16.572  0.00  0.00    +0.000 A 
ENDROOT
BRANCH   4   7
ATOM      7  C   UNL     1       5.879   3.874  13.043  0.00  0.00    +0.000 C 
ATOM      8  O   UNL     1       6.898   3.928  12.357  0.00  0.00    +0.000 OA
ATOM      9  N   UNL     1       4.631   3.620  12.491  0.00  0.00    +0.000 N 
ATOM     10  H   UNL     1       3.806   3.577  13.065  0.00  0.00    +0.000 HD
BRANCH   9  11
ATOM     11  C   UNL     1       4.480   3.370  11.085  0.00  0.00    +0.000 C 
ATOM     12  C   UNL     1       3.299   2.620  10.533  0.00  0.00    +0.000 C 
ATOM     13  C   UNL     1       3.424   4.097  10.301  0.00  0.00    +0.000 C 
ENDBRANCH   9  11
ENDBRANCH   4   7
BRANCH   1  14
ATOM     14  C   UNL     1       5.802   4.993  18.762  0.00  0.00    +0.000 C 
BRANCH  14  18
ATOM     15  C   UNL     1       1.564   6.459  20.561  0.00  0.00    +0.000 C 
ATOM     16  C   UNL     1       2.616   5.489  20.157  0.00  0.00    +0.000 A 
ATOM     17  N   UNL     1       3.726   5.931  19.551  0.00  0.00    +0.000 NA
ATOM     18  N   UNL     1       4.471   4.824  19.338  0.00  0.00    +0.000 N 
ATOM     19  C   UNL     1       3.906   3.686  19.877  0.00  0.00    +0.000 A 
ATOM     20  C   UNL     1       4.574   2.357  19.910  0.00  0.00    +0.000 C 
ATOM     21  C   UNL     1       2.653   4.084  20.338  0.00  0.00    +0.000 A 
BRANCH  21  22
ATOM     22  N   UNL     1       1.629   3.250  20.915  0.00  0.00    +0.000 N 
ATOM     23  O   UNL     1       0.674   2.943  20.192  0.00  0.00    +0.000 OA
ATOM     24  O   UNL     1       1.781   2.884  22.088  0.00  0.00    +0.000 OA
ENDBRANCH  21  22
ENDBRANCH  14  18
ENDBRANCH   1  14
TORSDOF 5
ENDMDL
MODEL 4
REMARK VINA RESULT:      -7.3      4.520      8.936
REMARK  Name = 
REMARK  7 active torsions:
REMARK  status: ('A' for Active; 'I' for Inactive)
REMARK    1  A    between atoms: C_1  and  C_2
REMARK    2  A    between atoms: N_4  and  C_5
REMARK    3  A    between atoms: C_5  and  C_6
REMARK    4  A    between atoms: C_9  and  C_10
REMARK    5  A    between atoms: N_12  and  C_13
REMARK    6  A    between atoms: C_18  and  C_19
REMARK    7  A    between atoms: C_20  and  N_21
REMARK                            x       y       z     vdW  Elec       q    Type
REMARK                         _______ _______ _______ _____ _____    ______ ____
ROOT
ATOM      1  C   UNL     1       2.311   7.653  18.710  0.00  0.00    +0.000 A 
ATOM      2  C   UNL     1       2.100   7.388  20.068  0.00  0.00    +0.000 A 
ATOM      3  C   UNL     1       1.404   8.299  20.871  0.00  0.00    +0.000 A 
ATOM      4  C   UNL     1       0.890   9.493  20.340  0.00  0.00    +0.000 A 
ATOM      5  C   UNL     1       1.029   9.720  18.965  0.00  0.00    +0.000 A 
ATOM      6  C   UNL     1       1.731   8.806  18.159  0.00  0.00    +0.000 A 
ENDROOT
BRANCH   4   7
ATOM      7  C   UNL     1       0.277  10.466  21.303  0.00  0.00    +0.000 C 
ATOM      8  O   UNL     1       0.615  10.434  22.484  0.00  0.00    +0.000 OA
ATOM      9  N   UNL     1      -0.629  11.401  20.820  0.00  0.00    +0.000 N 
ATOM     10  H   UNL     1      -0.895  11.416  19.850  0.00  0.00    +0.000 HD
BRANCH   9  11
ATOM     11  C   UNL     1      -1.187  12.405  21.682  0.00  0.00    +0.000 C 
ATOM     12  C   UNL     1      -2.503  13.068  21.382  0.00  0.00    +0.000 C 
ATOM     13  C   UNL     1      -2.397  12.091  22.516  0.00  0.00    +0.000 C 
ENDBRANCH   9  11
ENDBRANCH   4   7
BRANCH   1  14
ATOM     14  C   UNL     1       3.239   6.775  17.900  0.00  0.00    +0.000 C 
BRANCH  14  18
ATOM     15  C   UNL     1       0.962   2.590  18.699  0.00  0.00    +0.000 C 
ATOM     16  C   UNL     1       2.118   3.517  18.585  0.00  0.00    +0.000 A 
ATOM     17  N   UNL     1       1.916   4.780  18.185  0.00  0.00    +0.000 NA
ATOM     18  N   UNL     1       3.141   5.351  18.206  0.00  0.00    +0.000 N 
ATOM     19  C   UNL     1       4.117   4.509  18.701  0.00  0.00    +0.000 A 
ATOM     20  C   UNL     1       5.522   4.922  18.964  0.00  0.00    +0.000 C 
ATOM     21  C   UNL     1       3.486   3.279  18.870  0.00  0.00    +0.000 A 
BRANCH  21  22
ATOM     22  N   UNL     1       4.088   2.038  19.288  0.00  0.00    +0.000 N 
ATOM     23  O   UNL     1       4.723   2.045  20.349  0.00  0.00    +0.000 OA
ATOM     24  O   UNL     1       3.917   1.047  18.567  0.00  0.00    +0.000 OA
ENDBRANCH  21  22
ENDBRANCH  14  18
ENDBRANCH   1  14
TORSDOF 5
ENDMDL
MODEL 5
REMARK VINA RESULT:      -7.3      5.983      9.067
REMARK  Name = 
REMARK  7 active torsions:
REMARK  status: ('A' for Active; 'I' for Inactive)
REMARK    1  A    between atoms: C_1  and  C_2
REMARK    2  A    between atoms: N_4  and  C_5
REMARK    3  A    between atoms: C_5  and  C_6
REMARK    4  A    between atoms: C_9  and  C_10
REMARK    5  A    between atoms: N_12  and  C_13
REMARK    6  A    between atoms: C_18  and  C_19
REMARK    7  A    between atoms: C_20  and  N_21
REMARK                            x       y       z     vdW  Elec       q    Type
REMARK                         _______ _______ _______ _____ _____    ______ ____
ROOT
ATOM      1  C   UNL     1       0.943   9.973  19.129  0.00  0.00    +0.000 A 
ATOM      2  C   UNL     1       0.921   9.324  20.369  0.00  0.00    +0.000 A 
ATOM      3  C   UNL     1       1.517   8.067  20.524  0.00  0.00    +0.000 A 
ATOM      4  C   UNL     1       2.161   7.429  19.451  0.00  0.00    +0.000 A 
ATOM      5  C   UNL     1       2.255   8.114  18.233  0.00  0.00    +0.000 A 
ATOM      6  C   UNL     1       1.654   9.376  18.077  0.00  0.00    +0.000 A 
ENDROOT
BRANCH   4   7
ATOM      7  C   UNL     1       2.653   6.030  19.679  0.00  0.00    +0.000 C 
ATOM      8  O   UNL     1       3.829   5.762  19.441  0.00  0.00    +0.000 OA
ATOM      9  N   UNL     1       1.770   5.088  20.190  0.00  0.00    +0.000 N 
ATOM     10  H   UNL     1       0.811   5.322  20.382  0.00  0.00    +0.000 HD
BRANCH   9  11
ATOM     11  C   UNL     1       2.208   3.756  20.500  0.00  0.00    +0.000 C 
ATOM     12  C   UNL     1       1.466   2.882  21.475  0.00  0.00    +0.000 C 
ATOM     13  C   UNL     1       1.423   2.573  20.008  0.00  0.00    +0.000 C 
ENDBRANCH   9  11
ENDBRANCH   4   7
BRANCH   1  14
ATOM     14  C   UNL     1       0.120  11.224  18.912  0.00  0.00    +0.000 C 
BRANCH  14  18
ATOM     15  C   UNL     1      -2.972   9.645  15.553  0.00  0.00    +0.000 C 
ATOM     16  C   UNL     1      -2.543  10.310  16.811  0.00  0.00    +0.000 A 
ATOM     17  N   UNL     1      -1.249  10.294  17.159  0.00  0.00    +0.000 NA
ATOM     18  N   UNL     1      -1.192  10.987  18.319  0.00  0.00    +0.000 N 
ATOM     19  C   UNL     1      -2.409  11.529  18.679  0.00  0.00    +0.000 A 
ATOM     20  C   UNL     1      -2.605  12.450  19.831  0.00  0.00    +0.000 C 
ATOM     21  C   UNL     1      -3.322  11.024  17.756  0.00  0.00    +0.000 A 
BRANCH  21  22
ATOM     22  N   UNL     1      -4.749  11.222  17.740  0.00  0.00    +0.000 N 
ATOM     23  O   UNL     1      -5.429  10.504  18.483  0.00  0.00    +0.000 OA
ATOM     24  O   UNL     1      -5.198  12.105  16.998  0.00  0.00    +0.000 OA
ENDBRANCH  21  22
ENDBRANCH  14  18
ENDBRANCH   1  14
TORSDOF 5
ENDMDL
MODEL 6
REMARK VINA RESULT:      -7.3      4.653      8.703
REMARK  Name = 
REMARK  7 active torsions:
REMARK  status: ('A' for Active; 'I' for Inactive)
REMARK    1  A    between atoms: C_1  and  C_2
REMARK    2  A    between atoms: N_4  and  C_5
REMARK    3  A    between atoms: C_5  and  C_6
REMARK    4  A    between atoms: C_9  and  C_10
REMARK    5  A    between atoms: N_12  and  C_13
REMARK    6  A    between atoms: C_18  and  C_19
REMARK    7  A    between atoms: C_20  and  N_21
REMARK                            x       y       z     vdW  Elec       q    Type
REMARK                         _______ _______ _______ _____ _____    ______ ____
ROOT
ATOM      1  C   UNL     1       2.540   7.665  18.346  0.00  0.00    +0.000 A 
ATOM      2  C   UNL     1       2.233   8.827  17.629  0.00  0.00    +0.000 A 
ATOM      3  C   UNL     1       1.455   9.836  18.209  0.00  0.00    +0.000 A 
ATOM      4  C   UNL     1       0.973   9.719  19.523  0.00  0.00    +0.000 A 
ATOM      5  C   UNL     1       1.348   8.595  20.269  0.00  0.00    +0.000 A 
ATOM      6  C   UNL     1       2.128   7.580  19.685  0.00  0.00    +0.000 A 
ENDROOT
BRANCH   4   7
ATOM      7  C   UNL     1       0.040  10.789  20.010  0.00  0.00    +0.000 C 
ATOM      8  O   UNL     1      -0.252  11.716  19.259  0.00  0.00    +0.000 OA
ATOM      9  N   UNL     1      -0.495  10.675  21.286  0.00  0.00    +0.000 N 
ATOM     10  H   UNL     1      -0.248   9.909  21.889  0.00  0.00    +0.000 HD
BRANCH   9  11
ATOM     11  C   UNL     1      -1.453  11.627  21.774  0.00  0.00    +0.000 C 
ATOM     12  C   UNL     1      -1.917  11.627  23.205  0.00  0.00    +0.000 C 
ATOM     13  C   UNL     1      -1.017  12.720  22.709  0.00  0.00    +0.000 C 
ENDBRANCH   9  11
ENDBRANCH   4   7
BRANCH   1  14
ATOM     14  C   UNL     1       3.195   6.493  17.649  0.00  0.00    +0.000 C 
BRANCH  14  18
ATOM     15  C   UNL     1       0.860   2.636  19.384  0.00  0.00    +0.000 C 
ATOM     16  C   UNL     1       2.015   3.540  19.140  0.00  0.00    +0.000 A 
ATOM     17  N   UNL     1       1.860   4.615  18.356  0.00  0.00    +0.000 NA
ATOM     18  N   UNL     1       3.067   5.222  18.356  0.00  0.00    +0.000 N 
ATOM     19  C   UNL     1       3.974   4.612  19.199  0.00  0.00    +0.000 A 
ATOM     20  C   UNL     1       5.329   5.149  19.498  0.00  0.00    +0.000 C 
ATOM     21  C   UNL     1       3.334   3.461  19.652  0.00  0.00    +0.000 A 
BRANCH  21  22
ATOM     22  N   UNL     1       3.884   2.430  20.496  0.00  0.00    +0.000 N 
ATOM     23  O   UNL     1       4.833   1.777  20.047  0.00  0.00    +0.000 OA
ATOM     24  O   UNL     1       3.381   2.278  21.617  0.00  0.00    +0.000 OA
ENDBRANCH  21  22
ENDBRANCH  14  18
ENDBRANCH   1  14
TORSDOF 5
ENDMDL
MODEL 7
REMARK VINA RESULT:      -7.2      4.007      6.262
REMARK  Name = 
REMARK  7 active torsions:
REMARK  status: ('A' for Active; 'I' for Inactive)
REMARK    1  A    between atoms: C_1  and  C_2
REMARK    2  A    between atoms: N_4  and  C_5
REMARK    3  A    between atoms: C_5  and  C_6
REMARK    4  A    between atoms: C_9  and  C_10
REMARK    5  A    between atoms: N_12  and  C_13
REMARK    6  A    between atoms: C_18  and  C_19
REMARK    7  A    between atoms: C_20  and  N_21
REMARK                            x       y       z     vdW  Elec       q    Type
REMARK                         _______ _______ _______ _____ _____    ______ ____
ROOT
ATOM      1  C   UNL     1       6.714   5.562  18.056  0.00  0.00    +0.000 A 
ATOM      2  C   UNL     1       6.431   6.550  17.106  0.00  0.00    +0.000 A 
ATOM      3  C   UNL     1       7.058   7.801  17.172  0.00  0.00    +0.000 A 
ATOM      4  C   UNL     1       7.992   8.094  18.179  0.00  0.00    +0.000 A 
ATOM      5  C   UNL     1       8.338   7.078  19.079  0.00  0.00    +0.000 A 
ATOM      6  C   UNL     1       7.705   5.823  19.014  0.00  0.00    +0.000 A 
ENDROOT
BRANCH   4   7
ATOM      7  C   UNL     1       8.511   9.500  18.246  0.00  0.00    +0.000 C 
ATOM      8  O   UNL     1       8.152  10.312  17.397  0.00  0.00    +0.000 OA
ATOM      9  N   UNL     1       9.354   9.850  19.292  0.00  0.00    +0.000 N 
ATOM     10  H   UNL     1       9.638   9.175  19.981  0.00  0.00    +0.000 HD
BRANCH   9  11
ATOM     11  C   UNL     1       9.817  11.200  19.449  0.00  0.00    +0.000 C 
ATOM     12  C   UNL     1       9.200  12.140  20.449  0.00  0.00    +0.000 C 
ATOM     13  C   UNL     1      10.578  11.595  20.684  0.00  0.00    +0.000 C 
ENDBRANCH   9  11
ENDBRANCH   4   7
BRANCH   1  14
ATOM     14  C   UNL     1       5.884   4.298  18.107  0.00  0.00    +0.000 C 
BRANCH  14  18
ATOM     15  C   UNL     1       2.181   6.659  20.121  0.00  0.00    +0.000 C 
ATOM     16  C   UNL     1       3.023   5.488  19.763  0.00  0.00    +0.000 A 
ATOM     17  N   UNL     1       4.087   5.657  18.967  0.00  0.00    +0.000 NA
ATOM     18  N   UNL     1       4.637   4.426  18.854  0.00  0.00    +0.000 N 
ATOM     19  C   UNL     1       4.003   3.483  19.638  0.00  0.00    +0.000 A 
ATOM     20  C   UNL     1       4.481   2.085  19.813  0.00  0.00    +0.000 C 
ATOM     21  C   UNL     1       2.893   4.136  20.169  0.00  0.00    +0.000 A 
BRANCH  21  22
ATOM     22  N   UNL     1       1.856   3.567  20.993  0.00  0.00    +0.000 N 
ATOM     23  O   UNL     1       2.148   3.292  22.163  0.00  0.00    +0.000 OA
ATOM     24  O   UNL     1       0.741   3.407  20.480  0.00  0.00    +0.000 OA
ENDBRANCH  21  22
ENDBRANCH  14  18
ENDBRANCH   1  14
TORSDOF 5
ENDMDL
MODEL 8
REMARK VINA RESULT:      -7.2      4.301      9.422
REMARK  Name = 
REMARK  7 active torsions:
REMARK  status: ('A' for Active; 'I' for Inactive)
REMARK    1  A    between atoms: C_1  and  C_2
REMARK    2  A    between atoms: N_4  and  C_5
REMARK    3  A    between atoms: C_5  and  C_6
REMARK    4  A    between atoms: C_9  and  C_10
REMARK    5  A    between atoms: N_12  and  C_13
REMARK    6  A    between atoms: C_18  and  C_19
REMARK    7  A    between atoms: C_20  and  N_21
REMARK                            x       y       z     vdW  Elec       q    Type
REMARK                         _______ _______ _______ _____ _____    ______ ____
ROOT
ATOM      1  C   UNL     1       1.972   8.196  18.712  0.00  0.00    +0.000 A 
ATOM      2  C   UNL     1       2.018   7.625  19.988  0.00  0.00    +0.000 A 
ATOM      3  C   UNL     1       1.378   8.245  21.069  0.00  0.00    +0.000 A 
ATOM      4  C   UNL     1       0.667   9.445  20.902  0.00  0.00    +0.000 A 
ATOM      5  C   UNL     1       0.552   9.973  19.610  0.00  0.00    +0.000 A 
ATOM      6  C   UNL     1       1.197   9.351  18.526  0.00  0.00    +0.000 A 
ENDROOT
BRANCH   4   7
ATOM      7  C   UNL     1       0.130  10.102  22.138  0.00  0.00    +0.000 C 
ATOM      8  O   UNL     1       0.610   9.808  23.231  0.00  0.00    +0.000 OA
ATOM      9  N   UNL     1      -0.873  11.054  22.005  0.00  0.00    +0.000 N 
ATOM     10  H   UNL     1      -1.255  11.286  21.104  0.00  0.00    +0.000 HD
BRANCH   9  11
ATOM     11  C   UNL     1      -1.369  11.771  23.146  0.00  0.00    +0.000 C 
ATOM     12  C   UNL     1      -1.801  13.209  23.055  0.00  0.00    +0.000 C 
ATOM     13  C   UNL     1      -2.826  12.128  23.234  0.00  0.00    +0.000 C 
ENDBRANCH   9  11
ENDBRANCH   4   7
BRANCH   1  14
ATOM     14  C   UNL     1       2.835   7.640  17.600  0.00  0.00    +0.000 C 
BRANCH  14  18
ATOM     15  C   UNL     1       6.794   4.999  18.433  0.00  0.00    +0.000 C 
ATOM     16  C   UNL     1       5.340   5.277  18.296  0.00  0.00    +0.000 A 
ATOM     17  N   UNL     1       4.927   6.527  18.045  0.00  0.00    +0.000 NA
ATOM     18  N   UNL     1       3.580   6.438  17.960  0.00  0.00    +0.000 N 
ATOM     19  C   UNL     1       3.122   5.139  18.060  0.00  0.00    +0.000 A 
ATOM     20  C   UNL     1       1.703   4.737  17.863  0.00  0.00    +0.000 C 
ATOM     21  C   UNL     1       4.247   4.378  18.368  0.00  0.00    +0.000 A 
BRANCH  21  22
ATOM     22  N   UNL     1       4.294   2.967  18.657  0.00  0.00    +0.000 N 
ATOM     23  O   UNL     1       4.716   2.630  19.770  0.00  0.00    +0.000 OA
ATOM     24  O   UNL     1       3.896   2.188  17.781  0.00  0.00    +0.000 OA
ENDBRANCH  21  22
ENDBRANCH  14  18
ENDBRANCH   1  14
TORSDOF 5
ENDMDL
MODEL 9
REMARK VINA RESULT:      -7.2      3.994      8.917
REMARK  Name = 
REMARK  7 active torsions:
REMARK  status: ('A' for Active; 'I' for Inactive)
REMARK    1  A    between atoms: C_1  and  C_2
REMARK    2  A    between atoms: N_4  and  C_5
REMARK    3  A    between atoms: C_5  and  C_6
REMARK    4  A    between atoms: C_9  and  C_10
REMARK    5  A    between atoms: N_12  and  C_13
REMARK    6  A    between atoms: C_18  and  C_19
REMARK    7  A    between atoms: C_20  and  N_21
REMARK                            x       y       z     vdW  Elec       q    Type
REMARK                         _______ _______ _______ _____ _____    ______ ____
ROOT
ATOM      1  C   UNL     1       2.430   6.124  19.407  0.00  0.00    +0.000 A 
ATOM      2  C   UNL     1       1.818   6.467  20.618  0.00  0.00    +0.000 A 
ATOM      3  C   UNL     1       1.319   7.759  20.821  0.00  0.00    +0.000 A 
ATOM      4  C   UNL     1       1.407   8.739  19.819  0.00  0.00    +0.000 A 
ATOM      5  C   UNL     1       1.945   8.373  18.579  0.00  0.00    +0.000 A 
ATOM      6  C   UNL     1       2.448   7.075  18.376  0.00  0.00    +0.000 A 
ENDROOT
BRANCH   4   7
ATOM      7  C   UNL     1       0.965  10.128  20.176  0.00  0.00    +0.000 C 
ATOM      8  O   UNL     1       1.211  11.052  19.404  0.00  0.00    +0.000 OA
ATOM      9  N   UNL     1       0.256  10.320  21.354  0.00  0.00    +0.000 N 
ATOM     10  H   UNL     1       0.060   9.554  21.976  0.00  0.00    +0.000 HD
BRANCH   9  11
ATOM     11  C   UNL     1      -0.258  11.614  21.705  0.00  0.00    +0.000 C 
ATOM     12  C   UNL     1      -1.701  11.981  21.491  0.00  0.00    +0.000 C 
ATOM     13  C   UNL     1      -1.183  11.761  22.881  0.00  0.00    +0.000 C 
ENDBRANCH   9  11
ENDBRANCH   4   7
BRANCH   1  14
ATOM     14  C   UNL     1       3.152   4.802  19.270  0.00  0.00    +0.000 C 
BRANCH  14  18
ATOM     15  C   UNL     1       7.834   5.955  19.570  0.00  0.00    +0.000 C 
ATOM     16  C   UNL     1       6.588   5.455  18.934  0.00  0.00    +0.000 A 
ATOM     17  N   UNL     1       5.462   5.377  19.655  0.00  0.00    +0.000 NA
ATOM     18  N   UNL     1       4.528   4.912  18.794  0.00  0.00    +0.000 N 
ATOM     19  C   UNL     1       5.007   4.777  17.507  0.00  0.00    +0.000 A 
ATOM     20  C   UNL     1       4.163   4.418  16.335  0.00  0.00    +0.000 C 
ATOM     21  C   UNL     1       6.372   5.041  17.595  0.00  0.00    +0.000 A 
BRANCH  21  22
ATOM     22  N   UNL     1       7.349   4.953  16.540  0.00  0.00    +0.000 N 
ATOM     23  O   UNL     1       7.309   5.818  15.657  0.00  0.00    +0.000 OA
ATOM     24  O   UNL     1       8.171   4.029  16.595  0.00  0.00    +0.000 OA
ENDBRANCH  21  22
ENDBRANCH  14  18
ENDBRANCH   1  14
TORSDOF 5
ENDMDL
