MODEL 1
REMARK VINA RESULT:      -7.6      0.000      0.000
REMARK  Name = 
REMARK  9 active torsions:
REMARK  status: ('A' for Active; 'I' for Inactive)
REMARK    1  A    between atoms: C_1  and  C_2
REMARK    2  A    between atoms: C_2  and  N_3
REMARK    3  A    between atoms: C_5  and  C_6
REMARK    4  A    between atoms: C_6  and  N_7
REMARK    5  A    between atoms: C_9  and  C_10
REMARK    6  A    between atoms: C_13  and  N_14
REMARK    7  A    between atoms: C_15  and  C_17
REMARK    8  A    between atoms: C_17  and  C_18
REMARK    9  A    between atoms: C_18  and  C_19
REMARK                            x       y       z     vdW  Elec       q    Type
REMARK                         _______ _______ _______ _____ _____    ______ ____
ROOT
ATOM      1  N   UNL     1       2.797   6.021  18.118  0.00  0.00    +0.000 NA
ATOM      2  C   UNL     1       2.566   4.577  17.971  0.00  0.00    +0.000 C 
ATOM      3  C   UNL     1       3.928   3.872  18.003  0.00  0.00    +0.000 C 
ATOM      4  C   UNL     1       4.893   4.937  17.454  0.00  0.00    +0.000 C 
ATOM      5  C   UNL     1       4.102   6.263  17.476  0.00  0.00    +0.000 C 
ENDROOT
BRANCH   4   6
ATOM      6  N   UNL     1       5.356   4.625  16.099  0.00  0.00    +0.000 N 
ATOM      7  C   UNL     1       6.542   5.135  15.625  0.00  0.00    +0.000 C 
ATOM      8  O   UNL     1       7.253   5.900  16.269  0.00  0.00    +0.000 OA
ATOM      9  H   UNL     1       4.872   3.916  15.563  0.00  0.00    +0.000 HD
BRANCH   7  10
ATOM     10  C   UNL     1       6.878   4.711  14.211  0.00  0.00    +0.000 C 
BRANCH  10  11
ATOM     11  C   UNL     1       5.838   3.739  13.663  0.00  0.00    +0.000 C 
BRANCH  11  12
ATOM     12  C   UNL     1       6.024   3.461  12.181  0.00  0.00    +0.000 C 
ATOM     13  F   UNL     1       6.231   2.153  11.917  0.00  0.00    +0.000 F 
ATOM     14  F   UNL     1       4.910   3.825  11.501  0.00  0.00    +0.000 F 
ATOM     15  F   UNL     1       7.053   4.163  11.667  0.00  0.00    +0.000 F 
ENDBRANCH  11  12
ENDBRANCH  10  11
ENDBRANCH   7  10
ENDBRANCH   4   6
BRANCH   3  16
ATOM     16  C   UNL     1       4.280   3.397  19.402  0.00  0.00    +0.000 C 
ATOM     17  C   UNL     1       4.387   1.935  19.744  0.00  0.00    +0.000 C 
ATOM     18  C   UNL     1       3.226   2.738  20.254  0.00  0.00    +0.000 C 
ENDBRANCH   3  16
BRANCH   1  19
ATOM     19  C   UNL     1       2.822   6.524  19.494  0.00  0.00    +0.000 C 
BRANCH  19  22
ATOM     20  N   UNL     1       0.695   9.360  20.345  0.00  0.00    +0.000 N 
ATOM     21  C   UNL     1       1.488   8.340  20.789  0.00  0.00    +0.000 A 
ATOM     22  C   UNL     1       2.093   7.811  19.666  0.00  0.00    +0.000 A 
ATOM     23  C   UNL     1       1.728   8.710  18.634  0.00  0.00    +0.000 A 
ATOM     24  N   UNL     1       0.899   9.668  19.051  0.00  0.00    +0.000 NA
BRANCH  20  26
ATOM     25  C   UNL     1      -0.367   9.615  22.534  0.00  0.00    +0.000 C 
ATOM     26  C   UNL     1      -0.449   9.914  21.043  0.00  0.00    +0.000 C 
ENDBRANCH  20  26
ENDBRANCH  19  22
ENDBRANCH   1  19
TORSDOF 8
ENDMDL
MODEL 2
REMARK VINA RESULT:      -7.6      4.884      8.393
REMARK  Name = 
REMARK  9 active torsions:
REMARK  status: ('A' for Active; 'I' for Inactive)
REMARK    1  A    between atoms: C_1  and  C_2
REMARK    2  A    between atoms: C_2  and  N_3
REMARK    3  A    between atoms: C_5  and  C_6
REMARK    4  A    between atoms: C_6  and  N_7
REMARK    5  A    between atoms: C_9  and  C_10
REMARK    6  A    between atoms: C_13  and  N_14
REMARK    7  A    between atoms: C_15  and  C_17
REMARK    8  A    between atoms: C_17  and  C_18
REMARK    9  A    between atoms: C_18  and  C_19
REMARK                            x       y       z     vdW  Elec       q    Type
REMARK                         _______ _______ _______ _____ _____    ______ ____
ROOT
ATOM      1  N   UNL     1       5.009   4.990  18.169  0.00  0.00    +0.000 NA
ATOM      2  C   UNL     1       4.637   4.481  19.496  0.00  0.00    +0.000 C 
ATOM      3  C   UNL     1       3.117   4.623  19.651  0.00  0.00    +0.000 C 
ATOM      4  C   UNL     1       2.779   5.824  18.750  0.00  0.00    +0.000 C 
ATOM      5  C   UNL     1       4.038   6.062  17.888  0.00  0.00    +0.000 C 
ENDROOT
BRANCH   4   6
ATOM      6  N   UNL     1       2.439   7.022  19.523  0.00  0.00    +0.000 N 
ATOM      7  C   UNL     1       1.919   8.135  18.904  0.00  0.00    +0.000 C 
ATOM      8  O   UNL     1       1.752   8.216  17.691  0.00  0.00    +0.000 OA
ATOM      9  H   UNL     1       2.450   6.978  20.534  0.00  0.00    +0.000 HD
BRANCH   7  10
ATOM     10  C   UNL     1       1.615   9.282  19.844  0.00  0.00    +0.000 C 
BRANCH  10  11
ATOM     11  C   UNL     1       1.241   8.775  21.233  0.00  0.00    +0.000 C 
BRANCH  11  12
ATOM     12  C   UNL     1      -0.184   9.132  21.620  0.00  0.00    +0.000 C 
ATOM     13  F   UNL     1      -0.246   9.909  22.722  0.00  0.00    +0.000 F 
ATOM     14  F   UNL     1      -0.773   9.827  20.617  0.00  0.00    +0.000 F 
ATOM     15  F   UNL     1      -0.933   8.032  21.837  0.00  0.00    +0.000 F 
ENDBRANCH  11  12
ENDBRANCH  10  11
ENDBRANCH   7  10
ENDBRANCH   4   6
BRANCH   3  16
ATOM     16  C   UNL     1       2.393   3.347  19.259  0.00  0.00    +0.000 C 
ATOM     17  C   UNL     1       0.934   3.339  18.892  0.00  0.00    +0.000 C 
ATOM     18  C   UNL     1       1.379   2.746  20.198  0.00  0.00    +0.000 C 
ENDBRANCH   3  16
BRANCH   1  19
ATOM     19  C   UNL     1       4.990   4.007  17.082  0.00  0.00    +0.000 C 
BRANCH  19  22
ATOM     20  N   UNL     1       6.603   4.552  13.859  0.00  0.00    +0.000 N 
ATOM     21  C   UNL     1       5.457   4.245  14.537  0.00  0.00    +0.000 A 
ATOM     22  C   UNL     1       5.741   4.446  15.874  0.00  0.00    +0.000 A 
ATOM     23  C   UNL     1       7.024   5.044  15.859  0.00  0.00    +0.000 A 
ATOM     24  N   UNL     1       7.539   5.134  14.631  0.00  0.00    +0.000 NA
BRANCH  20  26
ATOM     25  C   UNL     1       5.909   3.116  12.005  0.00  0.00    +0.000 C 
ATOM     26  C   UNL     1       6.955   4.089  12.530  0.00  0.00    +0.000 C 
ENDBRANCH  20  26
ENDBRANCH  19  22
ENDBRANCH   1  19
TORSDOF 8
ENDMDL
MODEL 3
REMARK VINA RESULT:      -7.6      5.190      8.652
REMARK  Name = 
REMARK  9 active torsions:
REMARK  status: ('A' for Active; 'I' for Inactive)
REMARK    1  A    between atoms: C_1  and  C_2
REMARK    2  A    between atoms: C_2  and  N_3
REMARK    3  A    between atoms: C_5  and  C_6
REMARK    4  A    between atoms: C_6  and  N_7
REMARK    5  A    between atoms: C_9  and  C_10
REMARK    6  A    between atoms: C_13  and  N_14
REMARK    7  A    between atoms: C_15  and  C_17
REMARK    8  A    between atoms: C_17  and  C_18
REMARK    9  A    between atoms: C_18  and  C_19
REMARK                            x       y       z     vdW  Elec       q    Type
REMARK                         _______ _______ _______ _____ _____    ______ ____
ROOT
ATOM      1  N   UNL     1       4.626   5.668  18.289  0.00  0.00    +0.000 NA
ATOM      2  C   UNL     1       4.416   5.108  19.631  0.00  0.00    +0.000 C 
ATOM      3  C   UNL     1       2.922   5.216  19.963  0.00  0.00    +0.000 C 
ATOM      4  C   UNL     1       2.465   6.439  19.150  0.00  0.00    +0.000 C 
ATOM      5  C   UNL     1       3.613   6.730  18.158  0.00  0.00    +0.000 C 
ENDROOT
BRANCH   4   6
ATOM      6  N   UNL     1       2.198   7.604  19.998  0.00  0.00    +0.000 N 
ATOM      7  C   UNL     1       1.442   8.655  19.532  0.00  0.00    +0.000 C 
ATOM      8  O   UNL     1       0.991   8.710  18.392  0.00  0.00    +0.000 OA
ATOM      9  H   UNL     1       2.447   7.570  20.977  0.00  0.00    +0.000 HD
BRANCH   7  10
ATOM     10  C   UNL     1       1.254   9.775  20.533  0.00  0.00    +0.000 C 
BRANCH  10  11
ATOM     11  C   UNL     1       1.205   9.238  21.961  0.00  0.00    +0.000 C 
BRANCH  11  12
ATOM     12  C   UNL     1      -0.181   9.342  22.575  0.00  0.00    +0.000 C 
ATOM     13  F   UNL     1      -0.955   8.271  22.300  0.00  0.00    +0.000 F 
ATOM     14  F   UNL     1      -0.082   9.417  23.924  0.00  0.00    +0.000 F 
ATOM     15  F   UNL     1      -0.829  10.449  22.160  0.00  0.00    +0.000 F 
ENDBRANCH  11  12
ENDBRANCH  10  11
ENDBRANCH   7  10
ENDBRANCH   4   6
BRANCH   3  16
ATOM     16  C   UNL     1       2.178   3.940  19.613  0.00  0.00    +0.000 C 
ATOM     17  C   UNL     1       0.773   3.681  20.085  0.00  0.00    +0.000 C 
ATOM     18  C   UNL     1       1.915   2.911  20.682  0.00  0.00    +0.000 C 
ENDBRANCH   3  16
BRANCH   1  19
ATOM     19  C   UNL     1       4.497   4.720  17.178  0.00  0.00    +0.000 C 
BRANCH  19  22
ATOM     20  N   UNL     1       6.627   4.797  14.221  0.00  0.00    +0.000 N 
ATOM     21  C   UNL     1       5.358   4.781  14.727  0.00  0.00    +0.000 A 
ATOM     22  C   UNL     1       5.491   4.944  16.092  0.00  0.00    +0.000 A 
ATOM     23  C   UNL     1       6.867   5.228  16.264  0.00  0.00    +0.000 A 
ATOM     24  N   UNL     1       7.556   5.165  15.123  0.00  0.00    +0.000 NA
BRANCH  20  26
ATOM     25  C   UNL     1       5.949   3.349  12.369  0.00  0.00    +0.000 C 
ATOM     26  C   UNL     1       7.044   4.233  12.951  0.00  0.00    +0.000 C 
ENDBRANCH  20  26
ENDBRANCH  19  22
ENDBRANCH   1  19
TORSDOF 8
ENDMDL
MODEL 4
REMARK VINA RESULT:      -7.6      4.343      8.204
REMARK  Name = 
REMARK  9 active torsions:
REMARK  status: ('A' for Active; 'I' for Inactive)
REMARK    1  A    between atoms: C_1  and  C_2
REMARK    2  A    between atoms: C_2  and  N_3
REMARK    3  A    between atoms: C_5  and  C_6
REMARK    4  A    between atoms: C_6  and  N_7
REMARK    5  A    between atoms: C_9  and  C_10
REMARK    6  A    between atoms: C_13  and  N_14
REMARK    7  A    between atoms: C_15  and  C_17
REMARK    8  A    between atoms: C_17  and  C_18
REMARK    9  A    between atoms: C_18  and  C_19
REMARK                            x       y       z     vdW  Elec       q    Type
REMARK                         _______ _______ _______ _____ _____    ______ ____
ROOT
ATOM      1  N   UNL     1       5.068   4.616  16.091  0.00  0.00    +0.000 NA
ATOM      2  C   UNL     1       5.019   6.077  16.249  0.00  0.00    +0.000 C 
ATOM      3  C   UNL     1       5.695   6.434  17.579  0.00  0.00    +0.000 C 
ATOM      4  C   UNL     1       5.464   5.182  18.442  0.00  0.00    +0.000 C 
ATOM      5  C   UNL     1       4.994   4.084  17.463  0.00  0.00    +0.000 C 
ENDROOT
BRANCH   4   6
ATOM      6  N   UNL     1       4.468   5.406  19.494  0.00  0.00    +0.000 N 
ATOM      7  C   UNL     1       3.124   5.397  19.204  0.00  0.00    +0.000 C 
ATOM      8  O   UNL     1       2.679   5.252  18.070  0.00  0.00    +0.000 OA
ATOM      9  H   UNL     1       4.766   5.422  20.461  0.00  0.00    +0.000 HD
BRANCH   7  10
ATOM     10  C   UNL     1       2.230   5.637  20.402  0.00  0.00    +0.000 C 
BRANCH  10  11
ATOM     11  C   UNL     1       2.288   4.465  21.379  0.00  0.00    +0.000 C 
BRANCH  11  12
ATOM     12  C   UNL     1       1.441   3.287  20.927  0.00  0.00    +0.000 C 
ATOM     13  F   UNL     1       0.910   2.600  21.960  0.00  0.00    +0.000 F 
ATOM     14  F   UNL     1       0.404   3.727  20.174  0.00  0.00    +0.000 F 
ATOM     15  F   UNL     1       2.149   2.427  20.167  0.00  0.00    +0.000 F 
ENDBRANCH  11  12
ENDBRANCH  10  11
ENDBRANCH   7  10
ENDBRANCH   4   6
BRANCH   3  16
ATOM     16  C   UNL     1       7.162   6.777  17.387  0.00  0.00    +0.000 C 
ATOM     17  C   UNL     1       8.074   7.058  18.550  0.00  0.00    +0.000 C 
ATOM     18  C   UNL     1       7.641   8.181  17.653  0.00  0.00    +0.000 C 
ENDBRANCH   3  16
BRANCH   1  19
ATOM     19  C   UNL     1       6.259   4.089  15.418  0.00  0.00    +0.000 C 
BRANCH  19  22
ATOM     20  N   UNL     1       5.400   3.338  11.956  0.00  0.00    +0.000 N 
ATOM     21  C   UNL     1       4.961   3.675  13.205  0.00  0.00    +0.000 A 
ATOM     22  C   UNL     1       6.094   3.952  13.945  0.00  0.00    +0.000 A 
ATOM     23  C   UNL     1       7.136   3.925  12.986  0.00  0.00    +0.000 A 
ATOM     24  N   UNL     1       6.711   3.577  11.770  0.00  0.00    +0.000 NA
BRANCH  20  26
ATOM     25  C   UNL     1       3.392   3.276  10.561  0.00  0.00    +0.000 C 
ATOM     26  C   UNL     1       4.667   2.556  10.979  0.00  0.00    +0.000 C 
ENDBRANCH  20  26
ENDBRANCH  19  22
ENDBRANCH   1  19
TORSDOF 8
ENDMDL
MODEL 5
REMARK VINA RESULT:      -7.5      0.954      1.624
REMARK  Name = 
REMARK  9 active torsions:
REMARK  status: ('A' for Active; 'I' for Inactive)
REMARK    1  A    between atoms: C_1  and  C_2
REMARK    2  A    between atoms: C_2  and  N_3
REMARK    3  A    between atoms: C_5  and  C_6
REMARK    4  A    between atoms: C_6  and  N_7
REMARK    5  A    between atoms: C_9  and  C_10
REMARK    6  A    between atoms: C_13  and  N_14
REMARK    7  A    between atoms: C_15  and  C_17
REMARK    8  A    between atoms: C_17  and  C_18
REMARK    9  A    between atoms: C_18  and  C_19
REMARK                            x       y       z     vdW  Elec       q    Type
REMARK                         _______ _______ _______ _____ _____    ______ ____
ROOT
ATOM      1  N   UNL     1       2.727   6.457  18.057  0.00  0.00    +0.000 NA
ATOM      2  C   UNL     1       2.211   5.094  17.867  0.00  0.00    +0.000 C 
ATOM      3  C   UNL     1       3.391   4.120  17.969  0.00  0.00    +0.000 C 
ATOM      4  C   UNL     1       4.590   4.963  17.502  0.00  0.00    +0.000 C 
ATOM      5  C   UNL     1       4.092   6.425  17.501  0.00  0.00    +0.000 C 
ENDROOT
BRANCH   4   6
ATOM      6  N   UNL     1       5.064   4.571  16.172  0.00  0.00    +0.000 N 
ATOM      7  C   UNL     1       6.377   4.761  15.809  0.00  0.00    +0.000 C 
ATOM      8  O   UNL     1       7.208   5.299  16.534  0.00  0.00    +0.000 OA
ATOM      9  H   UNL     1       4.459   4.025  15.573  0.00  0.00    +0.000 HD
BRANCH   7  10
ATOM     10  C   UNL     1       6.705   4.295  14.406  0.00  0.00    +0.000 C 
BRANCH  10  11
ATOM     11  C   UNL     1       5.454   3.814  13.675  0.00  0.00    +0.000 C 
BRANCH  11  12
ATOM     12  C   UNL     1       5.729   3.450  12.227  0.00  0.00    +0.000 C 
ATOM     13  F   UNL     1       6.836   4.049  11.739  0.00  0.00    +0.000 F 
ATOM     14  F   UNL     1       5.926   2.114  12.116  0.00  0.00    +0.000 F 
ATOM     15  F   UNL     1       4.691   3.767  11.427  0.00  0.00    +0.000 F 
ENDBRANCH  11  12
ENDBRANCH  10  11
ENDBRANCH   7  10
ENDBRANCH   4   6
BRANCH   3  16
ATOM     16  C   UNL     1       3.545   3.572  19.378  0.00  0.00    +0.000 C 
ATOM     17  C   UNL     1       4.364   2.345  19.671  0.00  0.00    +0.000 C 
ATOM     18  C   UNL     1       2.867   2.280  19.755  0.00  0.00    +0.000 C 
ENDBRANCH   3  16
BRANCH   1  19
ATOM     19  C   UNL     1       2.767   6.935  19.442  0.00  0.00    +0.000 C 
BRANCH  19  22
ATOM     20  N   UNL     1       0.916  10.064  19.699  0.00  0.00    +0.000 N 
ATOM     21  C   UNL     1       1.525   9.149  18.888  0.00  0.00    +0.000 A 
ATOM     22  C   UNL     1       1.849   8.079  19.698  0.00  0.00    +0.000 A 
ATOM     23  C   UNL     1       1.225   8.390  20.931  0.00  0.00    +0.000 A 
ATOM     24  N   UNL     1       0.634   9.586  20.925  0.00  0.00    +0.000 NA
BRANCH  20  26
ATOM     25  C   UNL     1       1.916  11.958  18.517  0.00  0.00    +0.000 C 
ATOM     26  C   UNL     1       0.800  11.487  19.439  0.00  0.00    +0.000 C 
ENDBRANCH  20  26
ENDBRANCH  19  22
ENDBRANCH   1  19
TORSDOF 8
ENDMDL
MODEL 6
REMARK VINA RESULT:      -7.5      5.332      7.139
REMARK  Name = 
REMARK  9 active torsions:
REMARK  status: ('A' for Active; 'I' for Inactive)
REMARK    1  A    between atoms: C_1  and  C_2
REMARK    2  A    between atoms: C_2  and  N_3
REMARK    3  A    between atoms: C_5  and  C_6
REMARK    4  A    between atoms: C_6  and  N_7
REMARK    5  A    between atoms: C_9  and  C_10
REMARK    6  A    between atoms: C_13  and  N_14
REMARK    7  A    between atoms: C_15  and  C_17
REMARK    8  A    between atoms: C_17  and  C_18
REMARK    9  A    between atoms: C_18  and  C_19
REMARK                            x       y       z     vdW  Elec       q    Type
REMARK                         _______ _______ _______ _____ _____    ______ ____
ROOT
ATOM      1  N   UNL     1       7.187   6.404  18.309  0.00  0.00    +0.000 NA
ATOM      2  C   UNL     1       7.812   5.169  17.814  0.00  0.00    +0.000 C 
ATOM      3  C   UNL     1       6.756   4.387  17.021  0.00  0.00    +0.000 C 
ATOM      4  C   UNL     1       5.431   4.816  17.674  0.00  0.00    +0.000 C 
ATOM      5  C   UNL     1       5.775   6.049  18.539  0.00  0.00    +0.000 C 
ENDROOT
BRANCH   4   6
ATOM      6  N   UNL     1       4.841   3.752  18.492  0.00  0.00    +0.000 N 
ATOM      7  C   UNL     1       3.603   3.236  18.189  0.00  0.00    +0.000 C 
ATOM      8  O   UNL     1       2.905   3.651  17.269  0.00  0.00    +0.000 OA
ATOM      9  H   UNL     1       5.410   3.295  19.192  0.00  0.00    +0.000 HD
BRANCH   7  10
ATOM     10  C   UNL     1       3.142   2.139  19.126  0.00  0.00    +0.000 C 
BRANCH  10  11
ATOM     11  C   UNL     1       2.816   2.694  20.510  0.00  0.00    +0.000 C 
BRANCH  11  12
ATOM     12  C   UNL     1       1.357   3.091  20.649  0.00  0.00    +0.000 C 
ATOM     13  F   UNL     1       0.585   2.598  19.657  0.00  0.00    +0.000 F 
ATOM     14  F   UNL     1       0.856   2.606  21.811  0.00  0.00    +0.000 F 
ATOM     15  F   UNL     1       1.205   4.430  20.677  0.00  0.00    +0.000 F 
ENDBRANCH  11  12
ENDBRANCH  10  11
ENDBRANCH   7  10
ENDBRANCH   4   6
BRANCH   3  16
ATOM     16  C   UNL     1       6.829   4.696  15.536  0.00  0.00    +0.000 C 
ATOM     17  C   UNL     1       5.620   5.125  14.750  0.00  0.00    +0.000 C 
ATOM     18  C   UNL     1       6.195   3.753  14.545  0.00  0.00    +0.000 C 
ENDBRANCH   3  16
BRANCH   1  19
ATOM     19  C   UNL     1       7.267   7.560  17.411  0.00  0.00    +0.000 C 
BRANCH  19  22
ATOM     20  N   UNL     1       9.145  10.057  19.290  0.00  0.00    +0.000 N 
ATOM     21  C   UNL     1       8.825   8.739  19.125  0.00  0.00    +0.000 A 
ATOM     22  C   UNL     1       8.109   8.666  17.946  0.00  0.00    +0.000 A 
ATOM     23  C   UNL     1       8.221   9.969  17.404  0.00  0.00    +0.000 A 
ATOM     24  N   UNL     1       8.874  10.810  18.208  0.00  0.00    +0.000 NA
BRANCH  20  26
ATOM     25  C   UNL     1      10.521  11.793  20.327  0.00  0.00    +0.000 C 
ATOM     26  C   UNL     1       9.484  10.700  20.545  0.00  0.00    +0.000 C 
ENDBRANCH  20  26
ENDBRANCH  19  22
ENDBRANCH   1  19
TORSDOF 8
ENDMDL
MODEL 7
REMARK VINA RESULT:      -7.5      5.238      8.771
REMARK  Name = 
REMARK  9 active torsions:
REMARK  status: ('A' for Active; 'I' for Inactive)
REMARK    1  A    between atoms: C_1  and  C_2
REMARK    2  A    between atoms: C_2  and  N_3
REMARK    3  A    between atoms: C_5  and  C_6
REMARK    4  A    between atoms: C_6  and  N_7
REMARK    5  A    between atoms: C_9  and  C_10
REMARK    6  A    between atoms: C_13  and  N_14
REMARK    7  A    between atoms: C_15  and  C_17
REMARK    8  A    between atoms: C_17  and  C_18
REMARK    9  A    between atoms: C_18  and  C_19
REMARK                            x       y       z     vdW  Elec       q    Type
REMARK                         _______ _______ _______ _____ _____    ______ ____
ROOT
ATOM      1  N   UNL     1       5.117   5.552  18.002  0.00  0.00    +0.000 NA
ATOM      2  C   UNL     1       4.820   5.262  19.412  0.00  0.00    +0.000 C 
ATOM      3  C   UNL     1       3.297   5.284  19.591  0.00  0.00    +0.000 C 
ATOM      4  C   UNL     1       2.824   6.260  18.500  0.00  0.00    +0.000 C 
ATOM      5  C   UNL     1       4.038   6.455  17.565  0.00  0.00    +0.000 C 
ENDROOT
BRANCH   4   6
ATOM      6  N   UNL     1       2.378   7.542  19.053  0.00  0.00    +0.000 N 
ATOM      7  C   UNL     1       1.667   7.591  20.230  0.00  0.00    +0.000 C 
ATOM      8  O   UNL     1       1.326   6.592  20.855  0.00  0.00    +0.000 OA
ATOM      9  H   UNL     1       2.720   8.402  18.645  0.00  0.00    +0.000 HD
BRANCH   7  10
ATOM     10  C   UNL     1       1.289   8.990  20.668  0.00  0.00    +0.000 C 
BRANCH  10  11
ATOM     11  C   UNL     1       1.348   9.130  22.186  0.00  0.00    +0.000 C 
BRANCH  11  12
ATOM     12  C   UNL     1      -0.021   9.353  22.805  0.00  0.00    +0.000 C 
ATOM     13  F   UNL     1       0.022   9.431  24.152  0.00  0.00    +0.000 F 
ATOM     14  F   UNL     1      -0.542  10.522  22.361  0.00  0.00    +0.000 F 
ATOM     15  F   UNL     1      -0.886   8.376  22.467  0.00  0.00    +0.000 F 
ENDBRANCH  11  12
ENDBRANCH  10  11
ENDBRANCH   7  10
ENDBRANCH   4   6
BRANCH   3  16
ATOM     16  C   UNL     1       2.698   3.894  19.464  0.00  0.00    +0.000 C 
ATOM     17  C   UNL     1       1.270   3.676  19.044  0.00  0.00    +0.000 C 
ATOM     18  C   UNL     1       1.676   3.426  20.467  0.00  0.00    +0.000 C 
ENDBRANCH   3  16
BRANCH   1  19
ATOM     19  C   UNL     1       5.178   4.387  17.113  0.00  0.00    +0.000 C 
BRANCH  19  22
ATOM     20  N   UNL     1       6.589   4.535  13.755  0.00  0.00    +0.000 N 
ATOM     21  C   UNL     1       5.475   4.384  14.532  0.00  0.00    +0.000 A 
ATOM     22  C   UNL     1       5.872   4.663  15.825  0.00  0.00    +0.000 A 
ATOM     23  C   UNL     1       7.195   5.143  15.674  0.00  0.00    +0.000 A 
ATOM     24  N   UNL     1       7.624   5.091  14.411  0.00  0.00    +0.000 NA
BRANCH  20  26
ATOM     25  C   UNL     1       5.640   3.032  12.075  0.00  0.00    +0.000 C 
ATOM     26  C   UNL     1       6.802   3.942  12.449  0.00  0.00    +0.000 C 
ENDBRANCH  20  26
ENDBRANCH  19  22
ENDBRANCH   1  19
TORSDOF 8
ENDMDL
MODEL 8
REMARK VINA RESULT:      -7.5      4.776      8.162
REMARK  Name = 
REMARK  9 active torsions:
REMARK  status: ('A' for Active; 'I' for Inactive)
REMARK    1  A    between atoms: C_1  and  C_2
REMARK    2  A    between atoms: C_2  and  N_3
REMARK    3  A    between atoms: C_5  and  C_6
REMARK    4  A    between atoms: C_6  and  N_7
REMARK    5  A    between atoms: C_9  and  C_10
REMARK    6  A    between atoms: C_13  and  N_14
REMARK    7  A    between atoms: C_15  and  C_17
REMARK    8  A    between atoms: C_17  and  C_18
REMARK    9  A    between atoms: C_18  and  C_19
REMARK                            x       y       z     vdW  Elec       q    Type
REMARK                         _______ _______ _______ _____ _____    ______ ____
ROOT
ATOM      1  N   UNL     1       4.992   5.440  18.256  0.00  0.00    +0.000 NA
ATOM      2  C   UNL     1       4.520   5.109  19.608  0.00  0.00    +0.000 C 
ATOM      3  C   UNL     1       2.989   5.215  19.616  0.00  0.00    +0.000 C 
ATOM      4  C   UNL     1       2.700   6.264  18.528  0.00  0.00    +0.000 C 
ATOM      5  C   UNL     1       4.022   6.425  17.746  0.00  0.00    +0.000 C 
ENDROOT
BRANCH   4   6
ATOM      6  N   UNL     1       2.265   7.545  19.091  0.00  0.00    +0.000 N 
ATOM      7  C   UNL     1       2.047   8.633  18.278  0.00  0.00    +0.000 C 
ATOM      8  O   UNL     1       2.240   8.620  17.066  0.00  0.00    +0.000 OA
ATOM      9  H   UNL     1       1.983   7.588  20.062  0.00  0.00    +0.000 HD
BRANCH   7  10
ATOM     10  C   UNL     1       1.594   9.876  19.014  0.00  0.00    +0.000 C 
BRANCH  10  11
ATOM     11  C   UNL     1       0.309  10.438  18.413  0.00  0.00    +0.000 C 
BRANCH  11  12
ATOM     12  C   UNL     1      -0.878  10.313  19.353  0.00  0.00    +0.000 C 
ATOM     13  F   UNL     1      -2.008   9.933  18.720  0.00  0.00    +0.000 F 
ATOM     14  F   UNL     1      -0.623   9.374  20.295  0.00  0.00    +0.000 F 
ATOM     15  F   UNL     1      -1.126  11.470  20.000  0.00  0.00    +0.000 F 
ENDBRANCH  11  12
ENDBRANCH  10  11
ENDBRANCH   7  10
ENDBRANCH   4   6
BRANCH   3  16
ATOM     16  C   UNL     1       2.334   3.870  19.353  0.00  0.00    +0.000 C 
ATOM     17  C   UNL     1       1.169   3.721  18.413  0.00  0.00    +0.000 C 
ATOM     18  C   UNL     1       0.954   3.594  19.893  0.00  0.00    +0.000 C 
ENDBRANCH   3  16
BRANCH   1  19
ATOM     19  C   UNL     1       5.091   4.313  17.324  0.00  0.00    +0.000 C 
BRANCH  19  22
ATOM     20  N   UNL     1       6.590   4.602  14.014  0.00  0.00    +0.000 N 
ATOM     21  C   UNL     1       5.464   4.374  14.753  0.00  0.00    +0.000 A 
ATOM     22  C   UNL     1       5.805   4.652  16.062  0.00  0.00    +0.000 A 
ATOM     23  C   UNL     1       7.103   5.209  15.960  0.00  0.00    +0.000 A 
ATOM     24  N   UNL     1       7.572   5.204  14.710  0.00  0.00    +0.000 NA
BRANCH  20  26
ATOM     25  C   UNL     1       5.695   3.231  12.197  0.00  0.00    +0.000 C 
ATOM     26  C   UNL     1       6.876   4.045  12.705  0.00  0.00    +0.000 C 
ENDBRANCH  20  26
ENDBRANCH  19  22
ENDBRANCH   1  19
TORSDOF 8
ENDMDL
MODEL 9
REMARK VINA RESULT:      -7.5      0.967      1.510
REMARK  Name = 
REMARK  9 active torsions:
REMARK  status: ('A' for Active; 'I' for Inactive)
REMARK    1  A    between atoms: C_1  and  C_2
REMARK    2  A    between atoms: C_2  and  N_3
REMARK    3  A    between atoms: C_5  and  C_6
REMARK    4  A    between atoms: C_6  and  N_7
REMARK    5  A    between atoms: C_9  and  C_10
REMARK    6  A    between atoms: C_13  and  N_14
REMARK    7  A    between atoms: C_15  and  C_17
REMARK    8  A    between atoms: C_17  and  C_18
REMARK    9  A    between atoms: C_18  and  C_19
REMARK                            x       y       z     vdW  Elec       q    Type
REMARK                         _______ _______ _______ _____ _____    ______ ____
ROOT
ATOM      1  N   UNL     1       2.544   6.539  18.175  0.00  0.00    +0.000 NA
ATOM      2  C   UNL     1       2.007   5.227  17.786  0.00  0.00    +0.000 C 
ATOM      3  C   UNL     1       3.169   4.225  17.765  0.00  0.00    +0.000 C 
ATOM      4  C   UNL     1       4.390   5.103  17.441  0.00  0.00    +0.000 C 
ATOM      5  C   UNL     1       3.918   6.560  17.641  0.00  0.00    +0.000 C 
ENDROOT
BRANCH   4   6
ATOM      6  N   UNL     1       4.880   4.894  16.076  0.00  0.00    +0.000 N 
ATOM      7  C   UNL     1       6.183   4.518  15.845  0.00  0.00    +0.000 C 
ATOM      8  O   UNL     1       7.014   4.380  16.737  0.00  0.00    +0.000 OA
ATOM      9  H   UNL     1       4.220   4.885  15.310  0.00  0.00    +0.000 HD
BRANCH   7  10
ATOM     10  C   UNL     1       6.526   4.337  14.382  0.00  0.00    +0.000 C 
BRANCH  10  11
ATOM     11  C   UNL     1       5.402   3.628  13.633  0.00  0.00    +0.000 C 
BRANCH  11  12
ATOM     12  C   UNL     1       5.742   3.373  12.175  0.00  0.00    +0.000 C 
ATOM     13  F   UNL     1       4.771   3.785  11.333  0.00  0.00    +0.000 F 
ATOM     14  F   UNL     1       6.866   4.050  11.839  0.00  0.00    +0.000 F 
ATOM     15  F   UNL     1       5.978   2.066  11.939  0.00  0.00    +0.000 F 
ENDBRANCH  11  12
ENDBRANCH  10  11
ENDBRANCH   7  10
ENDBRANCH   4   6
BRANCH   3  16
ATOM     16  C   UNL     1       3.289   3.480  19.083  0.00  0.00    +0.000 C 
ATOM     17  C   UNL     1       4.592   2.889  19.549  0.00  0.00    +0.000 C 
ATOM     18  C   UNL     1       3.487   1.986  19.081  0.00  0.00    +0.000 C 
ENDBRANCH   3  16
BRANCH   1  19
ATOM     19  C   UNL     1       2.568   6.814  19.615  0.00  0.00    +0.000 C 
BRANCH  19  22
ATOM     20  N   UNL     1       0.877   9.989  20.203  0.00  0.00    +0.000 N 
ATOM     21  C   UNL     1       1.389   9.108  19.294  0.00  0.00    +0.000 A 
ATOM     22  C   UNL     1       1.721   7.973  20.008  0.00  0.00    +0.000 A 
ATOM     23  C   UNL     1       1.195   8.224  21.299  0.00  0.00    +0.000 A 
ATOM     24  N   UNL     1       0.658   9.440  21.412  0.00  0.00    +0.000 NA
BRANCH  20  26
ATOM     25  C   UNL     1      -0.574  11.946  20.428  0.00  0.00    +0.000 C 
ATOM     26  C   UNL     1       0.806  11.430  20.044  0.00  0.00    +0.000 C 
ENDBRANCH  20  26
ENDBRANCH  19  22
ENDBRANCH   1  19
TORSDOF 8
ENDMDL
