MODEL 1
REMARK VINA RESULT:      -7.4      0.000      0.000
REMARK  Name = 
REMARK  9 active torsions:
REMARK  status: ('A' for Active; 'I' for Inactive)
REMARK    1  A    between atoms: C_1  and  C_2
REMARK    2  A    between atoms: N_4  and  C_5
REMARK    3  A    between atoms: C_7  and  O_8
REMARK    4  A    between atoms: O_8  and  C_9
REMARK    5  A    between atoms: C_9  and  C_10
REMARK    6  A    between atoms: C_9  and  C_16
REMARK    7  A    between atoms: C_9  and  C_22
REMARK    8  A    between atoms: C_28  and  C_29
REMARK    9  A    between atoms: C_29  and  O_30
REMARK                            x       y       z     vdW  Elec       q    Type
REMARK                         _______ _______ _______ _____ _____    ______ ____
ROOT
ATOM      1  O   UNL     1      -0.015  11.401  21.207  0.00  0.00    +0.000 OA
ENDROOT
BRANCH   1   4
ATOM      2  C   UNL     1      -2.486  12.724  23.667  0.00  0.00    +0.000 C 
ATOM      3  C   UNL     1      -1.814  11.556  22.973  0.00  0.00    +0.000 C 
ATOM      4  C   UNL     1      -1.028  12.185  21.848  0.00  0.00    +0.000 C 
ATOM      5  C   UNL     1      -0.672  13.553  22.427  0.00  0.00    +0.000 C 
ATOM      6  O   UNL     1      -1.623  13.859  23.474  0.00  0.00    +0.000 OA
BRANCH   2  10
ATOM      7  C   UNL     1      -5.401  14.754  20.247  0.00  0.00    +0.000 C 
ATOM      8  C   UNL     1      -5.204  13.973  21.497  0.00  0.00    +0.000 A 
ATOM      9  C   UNL     1      -4.000  13.763  22.039  0.00  0.00    +0.000 A 
ATOM     10  N   UNL     1      -3.817  12.994  23.164  0.00  0.00    +0.000 N 
ATOM     11  C   UNL     1      -4.883  12.484  23.894  0.00  0.00    +0.000 A 
ATOM     12  O   UNL     1      -4.767  11.859  24.947  0.00  0.00    +0.000 OA
ATOM     13  N   UNL     1      -6.120  12.706  23.338  0.00  0.00    +0.000 N 
ATOM     14  C   UNL     1      -6.375  13.371  22.172  0.00  0.00    +0.000 A 
ATOM     15  O   UNL     1      -7.509  13.474  21.721  0.00  0.00    +0.000 OA
ATOM     16  H   UNL     1      -6.904  12.319  23.818  0.00  0.00    +0.000 HD
ENDBRANCH   2  10
BRANCH   5  17
ATOM     17  C   UNL     1      -0.726  14.679  21.380  0.00  0.00    +0.000 C 
BRANCH  17  18
ATOM     18  O   UNL     1       0.324  15.624  21.598  0.00  0.00    +0.000 OA
ATOM     19  H   UNL     1       0.477  15.660  22.561  0.00  0.00    +0.000 HD
ENDBRANCH  17  18
ENDBRANCH   5  17
ENDBRANCH   1   4
BRANCH   1  20
ATOM     20  C   UNL     1       0.251  11.392  19.760  0.00  0.00    +0.000 C 
BRANCH  20  21
ATOM     21  C   UNL     1       1.216  12.603  19.482  0.00  0.00    +0.000 A 
ATOM     22  C   UNL     1       2.280  12.892  20.372  0.00  0.00    +0.000 A 
ATOM     23  C   UNL     1       3.103  14.019  20.200  0.00  0.00    +0.000 A 
ATOM     24  C   UNL     1       2.901  14.887  19.131  0.00  0.00    +0.000 A 
ATOM     25  C   UNL     1       1.838  14.669  18.272  0.00  0.00    +0.000 A 
ATOM     26  C   UNL     1       0.994  13.571  18.475  0.00  0.00    +0.000 A 
ENDBRANCH  20  21
BRANCH  20  27
ATOM     27  C   UNL     1       0.966  10.016  19.487  0.00  0.00    +0.000 A 
ATOM     28  C   UNL     1       1.607   9.751  18.255  0.00  0.00    +0.000 A 
ATOM     29  C   UNL     1       2.296   8.553  18.027  0.00  0.00    +0.000 A 
ATOM     30  C   UNL     1       2.337   7.575  19.012  0.00  0.00    +0.000 A 
ATOM     31  C   UNL     1       1.715   7.806  20.235  0.00  0.00    +0.000 A 
ATOM     32  C   UNL     1       1.058   9.020  20.480  0.00  0.00    +0.000 A 
ENDBRANCH  20  27
BRANCH  20  33
ATOM     33  C   UNL     1      -1.114  11.335  18.992  0.00  0.00    +0.000 A 
ATOM     34  C   UNL     1      -2.167  12.241  19.187  0.00  0.00    +0.000 A 
ATOM     35  C   UNL     1      -3.482  11.914  18.833  0.00  0.00    +0.000 A 
ATOM     36  C   UNL     1      -3.742  10.761  18.107  0.00  0.00    +0.000 A 
ATOM     37  C   UNL     1      -2.680   9.981  17.674  0.00  0.00    +0.000 A 
ATOM     38  C   UNL     1      -1.378  10.276  18.097  0.00  0.00    +0.000 A 
ENDBRANCH  20  33
ENDBRANCH   1  20
TORSDOF 8
ENDMDL
MODEL 2
REMARK VINA RESULT:      -7.3      0.111      1.134
REMARK  Name = 
REMARK  9 active torsions:
REMARK  status: ('A' for Active; 'I' for Inactive)
REMARK    1  A    between atoms: C_1  and  C_2
REMARK    2  A    between atoms: N_4  and  C_5
REMARK    3  A    between atoms: C_7  and  O_8
REMARK    4  A    between atoms: O_8  and  C_9
REMARK    5  A    between atoms: C_9  and  C_10
REMARK    6  A    between atoms: C_9  and  C_16
REMARK    7  A    between atoms: C_9  and  C_22
REMARK    8  A    between atoms: C_28  and  C_29
REMARK    9  A    between atoms: C_29  and  O_30
REMARK                            x       y       z     vdW  Elec       q    Type
REMARK                         _______ _______ _______ _____ _____    ______ ____
ROOT
ATOM      1  O   UNL     1      -0.068  11.383  21.260  0.00  0.00    +0.000 OA
ENDROOT
BRANCH   1   4
ATOM      2  C   UNL     1      -2.552  12.750  23.682  0.00  0.00    +0.000 C 
ATOM      3  C   UNL     1      -1.867  11.569  23.023  0.00  0.00    +0.000 C 
ATOM      4  C   UNL     1      -1.089  12.175  21.878  0.00  0.00    +0.000 C 
ATOM      5  C   UNL     1      -0.749  13.562  22.416  0.00  0.00    +0.000 C 
ATOM      6  O   UNL     1      -1.702  13.888  23.456  0.00  0.00    +0.000 OA
BRANCH   2  10
ATOM      7  C   UNL     1      -5.492  14.631  20.199  0.00  0.00    +0.000 C 
ATOM      8  C   UNL     1      -5.285  13.897  21.476  0.00  0.00    +0.000 A 
ATOM      9  C   UNL     1      -4.079  13.716  22.022  0.00  0.00    +0.000 A 
ATOM     10  N   UNL     1      -3.887  12.989  23.173  0.00  0.00    +0.000 N 
ATOM     11  C   UNL     1      -4.946  12.495  23.923  0.00  0.00    +0.000 A 
ATOM     12  O   UNL     1      -4.822  11.909  24.997  0.00  0.00    +0.000 OA
ATOM     13  N   UNL     1      -6.186  12.686  23.363  0.00  0.00    +0.000 N 
ATOM     14  C   UNL     1      -6.450  13.307  22.174  0.00  0.00    +0.000 A 
ATOM     15  O   UNL     1      -7.585  13.384  21.722  0.00  0.00    +0.000 OA
ATOM     16  H   UNL     1      -6.966  12.309  23.857  0.00  0.00    +0.000 HD
ENDBRANCH   2  10
BRANCH   5  17
ATOM     17  C   UNL     1      -0.816  14.657  21.337  0.00  0.00    +0.000 C 
BRANCH  17  18
ATOM     18  O   UNL     1       0.271  15.574  21.478  0.00  0.00    +0.000 OA
ATOM     19  H   UNL     1       0.181  15.988  22.357  0.00  0.00    +0.000 HD
ENDBRANCH  17  18
ENDBRANCH   5  17
ENDBRANCH   1   4
BRANCH   1  20
ATOM     20  C   UNL     1       0.251  11.397  19.824  0.00  0.00    +0.000 C 
BRANCH  20  21
ATOM     21  C   UNL     1       1.194  12.635  19.592  0.00  0.00    +0.000 A 
ATOM     22  C   UNL     1       1.095  13.399  18.402  0.00  0.00    +0.000 A 
ATOM     23  C   UNL     1       1.982  14.454  18.125  0.00  0.00    +0.000 A 
ATOM     24  C   UNL     1       2.986  14.791  19.028  0.00  0.00    +0.000 A 
ATOM     25  C   UNL     1       3.148  14.034  20.175  0.00  0.00    +0.000 A 
ATOM     26  C   UNL     1       2.292  12.955  20.424  0.00  0.00    +0.000 A 
ENDBRANCH  20  21
BRANCH  20  27
ATOM     27  C   UNL     1       1.011  10.042  19.564  0.00  0.00    +0.000 A 
ATOM     28  C   UNL     1       1.045   9.018  20.539  0.00  0.00    +0.000 A 
ATOM     29  C   UNL     1       1.666   7.788  20.293  0.00  0.00    +0.000 A 
ATOM     30  C   UNL     1       2.297   7.558  19.076  0.00  0.00    +0.000 A 
ATOM     31  C   UNL     1       2.282   8.547  18.097  0.00  0.00    +0.000 A 
ATOM     32  C   UNL     1       1.626   9.764  18.328  0.00  0.00    +0.000 A 
ENDBRANCH  20  27
BRANCH  20  33
ATOM     33  C   UNL     1      -1.083  11.313  19.005  0.00  0.00    +0.000 A 
ATOM     34  C   UNL     1      -2.162  12.195  19.165  0.00  0.00    +0.000 A 
ATOM     35  C   UNL     1      -3.456  11.841  18.760  0.00  0.00    +0.000 A 
ATOM     36  C   UNL     1      -3.664  10.685  18.022  0.00  0.00    +0.000 A 
ATOM     37  C   UNL     1      -2.569   9.930  17.626  0.00  0.00    +0.000 A 
ATOM     38  C   UNL     1      -1.291  10.252  18.098  0.00  0.00    +0.000 A 
ENDBRANCH  20  33
ENDBRANCH   1  20
TORSDOF 8
ENDMDL
MODEL 3
REMARK VINA RESULT:      -7.1      0.986      1.163
REMARK  Name = 
REMARK  9 active torsions:
REMARK  status: ('A' for Active; 'I' for Inactive)
REMARK    1  A    between atoms: C_1  and  C_2
REMARK    2  A    between atoms: N_4  and  C_5
REMARK    3  A    between atoms: C_7  and  O_8
REMARK    4  A    between atoms: O_8  and  C_9
REMARK    5  A    between atoms: C_9  and  C_10
REMARK    6  A    between atoms: C_9  and  C_16
REMARK    7  A    between atoms: C_9  and  C_22
REMARK    8  A    between atoms: C_28  and  C_29
REMARK    9  A    between atoms: C_29  and  O_30
REMARK                            x       y       z     vdW  Elec       q    Type
REMARK                         _______ _______ _______ _____ _____    ______ ____
ROOT
ATOM      1  O   UNL     1       0.337  11.233  21.225  0.00  0.00    +0.000 OA
ENDROOT
BRANCH   1   4
ATOM      2  C   UNL     1      -2.424  12.293  23.495  0.00  0.00    +0.000 C 
ATOM      3  C   UNL     1      -1.598  11.200  22.847  0.00  0.00    +0.000 C 
ATOM      4  C   UNL     1      -0.788  11.914  21.791  0.00  0.00    +0.000 C 
ATOM      5  C   UNL     1      -0.604  13.299  22.406  0.00  0.00    +0.000 C 
ATOM      6  O   UNL     1      -1.656  13.503  23.379  0.00  0.00    +0.000 OA
BRANCH   2  10
ATOM      7  C   UNL     1      -5.221  12.610  19.446  0.00  0.00    +0.000 C 
ATOM      8  C   UNL     1      -5.063  12.591  20.925  0.00  0.00    +0.000 A 
ATOM      9  C   UNL     1      -3.871  12.523  21.526  0.00  0.00    +0.000 A 
ATOM     10  N   UNL     1      -3.732  12.450  22.892  0.00  0.00    +0.000 N 
ATOM     11  C   UNL     1      -4.814  12.569  23.754  0.00  0.00    +0.000 A 
ATOM     12  O   UNL     1      -4.726  12.588  24.981  0.00  0.00    +0.000 OA
ATOM     13  N   UNL     1      -6.039  12.644  23.134  0.00  0.00    +0.000 N 
ATOM     14  C   UNL     1      -6.266  12.619  21.787  0.00  0.00    +0.000 A 
ATOM     15  O   UNL     1      -7.398  12.635  21.321  0.00  0.00    +0.000 OA
ATOM     16  H   UNL     1      -6.840  12.692  23.726  0.00  0.00    +0.000 HD
ENDBRANCH   2  10
BRANCH   5  17
ATOM     17  C   UNL     1      -0.678  14.432  21.367  0.00  0.00    +0.000 C 
BRANCH  17  18
ATOM     18  O   UNL     1      -2.018  14.604  20.902  0.00  0.00    +0.000 OA
ATOM     19  H   UNL     1      -2.368  13.715  20.707  0.00  0.00    +0.000 HD
ENDBRANCH  17  18
ENDBRANCH   5  17
ENDBRANCH   1   4
BRANCH   1  20
ATOM     20  C   UNL     1       0.610  11.114  19.784  0.00  0.00    +0.000 C 
BRANCH  20  21
ATOM     21  C   UNL     1       1.661  12.233  19.439  0.00  0.00    +0.000 A 
ATOM     22  C   UNL     1       2.322  12.940  20.475  0.00  0.00    +0.000 A 
ATOM     23  C   UNL     1       3.198  14.005  20.201  0.00  0.00    +0.000 A 
ATOM     24  C   UNL     1       3.454  14.392  18.889  0.00  0.00    +0.000 A 
ATOM     25  C   UNL     1       2.785  13.761  17.854  0.00  0.00    +0.000 A 
ATOM     26  C   UNL     1       1.880  12.733  18.134  0.00  0.00    +0.000 A 
ENDBRANCH  20  21
BRANCH  20  27
ATOM     27  C   UNL     1       1.224   9.675  19.605  0.00  0.00    +0.000 A 
ATOM     28  C   UNL     1       1.803   9.269  18.380  0.00  0.00    +0.000 A 
ATOM     29  C   UNL     1       2.405   8.014  18.231  0.00  0.00    +0.000 A 
ATOM     30  C   UNL     1       2.418   7.118  19.293  0.00  0.00    +0.000 A 
ATOM     31  C   UNL     1       1.856   7.488  20.511  0.00  0.00    +0.000 A 
ATOM     32  C   UNL     1       1.288   8.759  20.673  0.00  0.00    +0.000 A 
ENDBRANCH  20  27
BRANCH  20  33
ATOM     33  C   UNL     1      -0.752  11.107  19.007  0.00  0.00    +0.000 A 
ATOM     34  C   UNL     1      -1.609   9.999  18.929  0.00  0.00    +0.000 A 
ATOM     35  C   UNL     1      -2.555   9.884  17.904  0.00  0.00    +0.000 A 
ATOM     36  C   UNL     1      -2.794  10.952  17.051  0.00  0.00    +0.000 A 
ATOM     37  C   UNL     1      -2.140  12.155  17.276  0.00  0.00    +0.000 A 
ATOM     38  C   UNL     1      -1.144  12.236  18.256  0.00  0.00    +0.000 A 
ENDBRANCH  20  33
ENDBRANCH   1  20
TORSDOF 8
ENDMDL
MODEL 4
REMARK VINA RESULT:      -7.0      2.064      2.924
REMARK  Name = 
REMARK  9 active torsions:
REMARK  status: ('A' for Active; 'I' for Inactive)
REMARK    1  A    between atoms: C_1  and  C_2
REMARK    2  A    between atoms: N_4  and  C_5
REMARK    3  A    between atoms: C_7  and  O_8
REMARK    4  A    between atoms: O_8  and  C_9
REMARK    5  A    between atoms: C_9  and  C_10
REMARK    6  A    between atoms: C_9  and  C_16
REMARK    7  A    between atoms: C_9  and  C_22
REMARK    8  A    between atoms: C_28  and  C_29
REMARK    9  A    between atoms: C_29  and  O_30
REMARK                            x       y       z     vdW  Elec       q    Type
REMARK                         _______ _______ _______ _____ _____    ______ ____
ROOT
ATOM      1  O   UNL     1      -1.227  11.331  20.373  0.00  0.00    +0.000 OA
ENDROOT
BRANCH   1   4
ATOM      2  C   UNL     1      -4.008  13.585  21.416  0.00  0.00    +0.000 C 
ATOM      3  C   UNL     1      -3.443  12.536  20.479  0.00  0.00    +0.000 C 
ATOM      4  C   UNL     1      -1.978  12.458  20.837  0.00  0.00    +0.000 C 
ATOM      5  C   UNL     1      -1.990  12.799  22.325  0.00  0.00    +0.000 C 
ATOM      6  O   UNL     1      -3.204  13.536  22.608  0.00  0.00    +0.000 OA
BRANCH   2  10
ATOM      7  C   UNL     1      -1.624  17.792  20.452  0.00  0.00    +0.000 C 
ATOM      8  C   UNL     1      -2.837  16.933  20.383  0.00  0.00    +0.000 A 
ATOM      9  C   UNL     1      -2.907  15.730  20.959  0.00  0.00    +0.000 A 
ATOM     10  N   UNL     1      -4.009  14.916  20.846  0.00  0.00    +0.000 N 
ATOM     11  C   UNL     1      -5.181  15.337  20.231  0.00  0.00    +0.000 A 
ATOM     12  O   UNL     1      -6.215  14.673  20.176  0.00  0.00    +0.000 OA
ATOM     13  N   UNL     1      -5.109  16.578  19.644  0.00  0.00    +0.000 N 
ATOM     14  C   UNL     1      -4.018  17.402  19.625  0.00  0.00    +0.000 A 
ATOM     15  O   UNL     1      -4.025  18.471  19.028  0.00  0.00    +0.000 OA
ATOM     16  H   UNL     1      -5.922  16.894  19.160  0.00  0.00    +0.000 HD
ENDBRANCH   2  10
BRANCH   5  17
ATOM     17  C   UNL     1      -0.790  13.661  22.753  0.00  0.00    +0.000 C 
BRANCH  17  18
ATOM     18  O   UNL     1       0.421  13.161  22.181  0.00  0.00    +0.000 OA
ATOM     19  H   UNL     1       0.175  12.687  21.365  0.00  0.00    +0.000 HD
ENDBRANCH  17  18
ENDBRANCH   5  17
ENDBRANCH   1   4
BRANCH   1  20
ATOM     20  C   UNL     1      -0.552  11.250  19.068  0.00  0.00    +0.000 C 
BRANCH  20  21
ATOM     21  C   UNL     1       0.226  12.605  18.888  0.00  0.00    +0.000 A 
ATOM     22  C   UNL     1       1.641  12.635  18.969  0.00  0.00    +0.000 A 
ATOM     23  C   UNL     1       2.360  13.842  18.903  0.00  0.00    +0.000 A 
ATOM     24  C   UNL     1       1.695  15.054  18.741  0.00  0.00    +0.000 A 
ATOM     25  C   UNL     1       0.312  15.070  18.713  0.00  0.00    +0.000 A 
ATOM     26  C   UNL     1      -0.401  13.871  18.826  0.00  0.00    +0.000 A 
ENDBRANCH  20  21
BRANCH  20  27
ATOM     27  C   UNL     1       0.438  10.033  19.198  0.00  0.00    +0.000 A 
ATOM     28  C   UNL     1       0.642   9.377  20.434  0.00  0.00    +0.000 A 
ATOM     29  C   UNL     1       1.474   8.257  20.545  0.00  0.00    +0.000 A 
ATOM     30  C   UNL     1       2.150   7.779  19.430  0.00  0.00    +0.000 A 
ATOM     31  C   UNL     1       1.972   8.404  18.199  0.00  0.00    +0.000 A 
ATOM     32  C   UNL     1       1.109   9.501  18.079  0.00  0.00    +0.000 A 
ENDBRANCH  20  27
BRANCH  20  33
ATOM     33  C   UNL     1      -1.602  10.843  17.977  0.00  0.00    +0.000 A 
ATOM     34  C   UNL     1      -1.803  11.542  16.778  0.00  0.00    +0.000 A 
ATOM     35  C   UNL     1      -3.001  11.426  16.061  0.00  0.00    +0.000 A 
ATOM     36  C   UNL     1      -3.942  10.473  16.424  0.00  0.00    +0.000 A 
ATOM     37  C   UNL     1      -3.646   9.590  17.453  0.00  0.00    +0.000 A 
ATOM     38  C   UNL     1      -2.480   9.762  18.208  0.00  0.00    +0.000 A 
ENDBRANCH  20  33
ENDBRANCH   1  20
TORSDOF 8
ENDMDL
MODEL 5
REMARK VINA RESULT:      -6.9      1.010      1.555
REMARK  Name = 
REMARK  9 active torsions:
REMARK  status: ('A' for Active; 'I' for Inactive)
REMARK    1  A    between atoms: C_1  and  C_2
REMARK    2  A    between atoms: N_4  and  C_5
REMARK    3  A    between atoms: C_7  and  O_8
REMARK    4  A    between atoms: O_8  and  C_9
REMARK    5  A    between atoms: C_9  and  C_10
REMARK    6  A    between atoms: C_9  and  C_16
REMARK    7  A    between atoms: C_9  and  C_22
REMARK    8  A    between atoms: C_28  and  C_29
REMARK    9  A    between atoms: C_29  and  O_30
REMARK                            x       y       z     vdW  Elec       q    Type
REMARK                         _______ _______ _______ _____ _____    ______ ____
ROOT
ATOM      1  O   UNL     1      -0.218  11.378  21.316  0.00  0.00    +0.000 OA
ENDROOT
BRANCH   1   4
ATOM      2  C   UNL     1      -2.698  12.871  23.666  0.00  0.00    +0.000 C 
ATOM      3  C   UNL     1      -2.117  11.665  22.955  0.00  0.00    +0.000 C 
ATOM      4  C   UNL     1      -1.177  12.248  21.928  0.00  0.00    +0.000 C 
ATOM      5  C   UNL     1      -0.708  13.531  22.610  0.00  0.00    +0.000 C 
ATOM      6  O   UNL     1      -1.695  13.899  23.604  0.00  0.00    +0.000 OA
BRANCH   2  10
ATOM      7  C   UNL     1      -6.440  12.146  20.538  0.00  0.00    +0.000 C 
ATOM      8  C   UNL     1      -5.744  12.952  21.577  0.00  0.00    +0.000 A 
ATOM      9  C   UNL     1      -4.558  12.609  22.087  0.00  0.00    +0.000 A 
ATOM     10  N   UNL     1      -3.945  13.327  23.086  0.00  0.00    +0.000 N 
ATOM     11  C   UNL     1      -4.453  14.532  23.552  0.00  0.00    +0.000 A 
ATOM     12  O   UNL     1      -3.898  15.244  24.387  0.00  0.00    +0.000 OA
ATOM     13  N   UNL     1      -5.671  14.886  23.023  0.00  0.00    +0.000 N 
ATOM     14  C   UNL     1      -6.391  14.175  22.103  0.00  0.00    +0.000 A 
ATOM     15  O   UNL     1      -7.498  14.538  21.726  0.00  0.00    +0.000 OA
ATOM     16  H   UNL     1      -6.083  15.727  23.365  0.00  0.00    +0.000 HD
ENDBRANCH   2  10
BRANCH   5  17
ATOM     17  C   UNL     1      -0.545  14.706  21.631  0.00  0.00    +0.000 C 
BRANCH  17  18
ATOM     18  O   UNL     1      -1.803  15.062  21.053  0.00  0.00    +0.000 OA
ATOM     19  H   UNL     1      -2.494  14.622  21.584  0.00  0.00    +0.000 HD
ENDBRANCH  17  18
ENDBRANCH   5  17
ENDBRANCH   1   4
BRANCH   1  20
ATOM     20  C   UNL     1       0.154  11.405  19.893  0.00  0.00    +0.000 C 
BRANCH  20  21
ATOM     21  C   UNL     1       1.095  12.652  19.705  0.00  0.00    +0.000 A 
ATOM     22  C   UNL     1       0.965  13.484  18.565  0.00  0.00    +0.000 A 
ATOM     23  C   UNL     1       1.848  14.551  18.323  0.00  0.00    +0.000 A 
ATOM     24  C   UNL     1       2.879  14.833  19.214  0.00  0.00    +0.000 A 
ATOM     25  C   UNL     1       3.072  14.009  20.310  0.00  0.00    +0.000 A 
ATOM     26  C   UNL     1       2.219  12.921  20.521  0.00  0.00    +0.000 A 
ENDBRANCH  20  21
BRANCH  20  27
ATOM     27  C   UNL     1       0.932  10.059  19.651  0.00  0.00    +0.000 A 
ATOM     28  C   UNL     1       0.973   9.044  20.635  0.00  0.00    +0.000 A 
ATOM     29  C   UNL     1       1.611   7.819  20.404  0.00  0.00    +0.000 A 
ATOM     30  C   UNL     1       2.254   7.587  19.195  0.00  0.00    +0.000 A 
ATOM     31  C   UNL     1       2.234   8.567  18.207  0.00  0.00    +0.000 A 
ATOM     32  C   UNL     1       1.561   9.777  18.422  0.00  0.00    +0.000 A 
ENDBRANCH  20  27
BRANCH  20  33
ATOM     33  C   UNL     1      -1.149  11.318  19.025  0.00  0.00    +0.000 A 
ATOM     34  C   UNL     1      -2.254  12.170  19.175  0.00  0.00    +0.000 A 
ATOM     35  C   UNL     1      -3.524  11.800  18.714  0.00  0.00    +0.000 A 
ATOM     36  C   UNL     1      -3.678  10.664  17.931  0.00  0.00    +0.000 A 
ATOM     37  C   UNL     1      -2.552   9.948  17.550  0.00  0.00    +0.000 A 
ATOM     38  C   UNL     1      -1.300  10.284  18.077  0.00  0.00    +0.000 A 
ENDBRANCH  20  33
ENDBRANCH   1  20
TORSDOF 8
ENDMDL
MODEL 6
REMARK VINA RESULT:      -6.9      1.044      1.217
REMARK  Name = 
REMARK  9 active torsions:
REMARK  status: ('A' for Active; 'I' for Inactive)
REMARK    1  A    between atoms: C_1  and  C_2
REMARK    2  A    between atoms: N_4  and  C_5
REMARK    3  A    between atoms: C_7  and  O_8
REMARK    4  A    between atoms: O_8  and  C_9
REMARK    5  A    between atoms: C_9  and  C_10
REMARK    6  A    between atoms: C_9  and  C_16
REMARK    7  A    between atoms: C_9  and  C_22
REMARK    8  A    between atoms: C_28  and  C_29
REMARK    9  A    between atoms: C_29  and  O_30
REMARK                            x       y       z     vdW  Elec       q    Type
REMARK                         _______ _______ _______ _____ _____    ______ ____
ROOT
ATOM      1  O   UNL     1      -0.272  11.572  21.357  0.00  0.00    +0.000 OA
ENDROOT
BRANCH   1   4
ATOM      2  C   UNL     1      -2.880  13.079  23.554  0.00  0.00    +0.000 C 
ATOM      3  C   UNL     1      -2.251  11.866  22.897  0.00  0.00    +0.000 C 
ATOM      4  C   UNL     1      -1.270  12.441  21.903  0.00  0.00    +0.000 C 
ATOM      5  C   UNL     1      -0.850  13.744  22.580  0.00  0.00    +0.000 C 
ATOM      6  O   UNL     1      -1.888  14.119  23.517  0.00  0.00    +0.000 OA
BRANCH   2  10
ATOM      7  C   UNL     1      -6.841  11.993  20.825  0.00  0.00    +0.000 C 
ATOM      8  C   UNL     1      -6.011  12.958  21.595  0.00  0.00    +0.000 A 
ATOM      9  C   UNL     1      -4.840  12.627  22.147  0.00  0.00    +0.000 A 
ATOM     10  N   UNL     1      -4.103  13.506  22.905  0.00  0.00    +0.000 N 
ATOM     11  C   UNL     1      -4.459  14.841  23.048  0.00  0.00    +0.000 A 
ATOM     12  O   UNL     1      -3.789  15.678  23.650  0.00  0.00    +0.000 OA
ATOM     13  N   UNL     1      -5.661  15.180  22.475  0.00  0.00    +0.000 N 
ATOM     14  C   UNL     1      -6.499  14.341  21.795  0.00  0.00    +0.000 A 
ATOM     15  O   UNL     1      -7.582  14.716  21.364  0.00  0.00    +0.000 OA
ATOM     16  H   UNL     1      -5.965  16.123  22.592  0.00  0.00    +0.000 HD
ENDBRANCH   2  10
BRANCH   5  17
ATOM     17  C   UNL     1      -0.655  14.901  21.585  0.00  0.00    +0.000 C 
BRANCH  17  18
ATOM     18  O   UNL     1      -1.205  16.113  22.104  0.00  0.00    +0.000 OA
ATOM     19  H   UNL     1      -1.860  15.861  22.781  0.00  0.00    +0.000 HD
ENDBRANCH  17  18
ENDBRANCH   5  17
ENDBRANCH   1   4
BRANCH   1  20
ATOM     20  C   UNL     1       0.067  11.474  19.928  0.00  0.00    +0.000 C 
BRANCH  20  21
ATOM     21  C   UNL     1       1.063  12.654  19.628  0.00  0.00    +0.000 A 
ATOM     22  C   UNL     1       2.111  12.955  20.532  0.00  0.00    +0.000 A 
ATOM     23  C   UNL     1       2.961  14.059  20.339  0.00  0.00    +0.000 A 
ATOM     24  C   UNL     1       2.803  14.889  19.233  0.00  0.00    +0.000 A 
ATOM     25  C   UNL     1       1.756  14.659  18.358  0.00  0.00    +0.000 A 
ATOM     26  C   UNL     1       0.885  13.587  18.580  0.00  0.00    +0.000 A 
ENDBRANCH  20  21
BRANCH  20  27
ATOM     27  C   UNL     1       0.772  10.075  19.773  0.00  0.00    +0.000 A 
ATOM     28  C   UNL     1       1.459   9.724  18.587  0.00  0.00    +0.000 A 
ATOM     29  C   UNL     1       2.140   8.507  18.464  0.00  0.00    +0.000 A 
ATOM     30  C   UNL     1       2.127   7.593  19.511  0.00  0.00    +0.000 A 
ATOM     31  C   UNL     1       1.459   7.909  20.690  0.00  0.00    +0.000 A 
ATOM     32  C   UNL     1       0.810   9.143  20.829  0.00  0.00    +0.000 A 
ENDBRANCH  20  27
BRANCH  20  33
ATOM     33  C   UNL     1      -1.259  11.389  19.096  0.00  0.00    +0.000 A 
ATOM     34  C   UNL     1      -2.349  12.257  19.258  0.00  0.00    +0.000 A 
ATOM     35  C   UNL     1      -3.635  11.896  18.837  0.00  0.00    +0.000 A 
ATOM     36  C   UNL     1      -3.825  10.749  18.080  0.00  0.00    +0.000 A 
ATOM     37  C   UNL     1      -2.719  10.011  17.684  0.00  0.00    +0.000 A 
ATOM     38  C   UNL     1      -1.449  10.339  18.172  0.00  0.00    +0.000 A 
ENDBRANCH  20  33
ENDBRANCH   1  20
TORSDOF 8
ENDMDL
MODEL 7
REMARK VINA RESULT:      -6.9      0.634      3.952
REMARK  Name = 
REMARK  9 active torsions:
REMARK  status: ('A' for Active; 'I' for Inactive)
REMARK    1  A    between atoms: C_1  and  C_2
REMARK    2  A    between atoms: N_4  and  C_5
REMARK    3  A    between atoms: C_7  and  O_8
REMARK    4  A    between atoms: O_8  and  C_9
REMARK    5  A    between atoms: C_9  and  C_10
REMARK    6  A    between atoms: C_9  and  C_16
REMARK    7  A    between atoms: C_9  and  C_22
REMARK    8  A    between atoms: C_28  and  C_29
REMARK    9  A    between atoms: C_29  and  O_30
REMARK                            x       y       z     vdW  Elec       q    Type
REMARK                         _______ _______ _______ _____ _____    ______ ____
ROOT
ATOM      1  O   UNL     1      -0.289  11.468  21.410  0.00  0.00    +0.000 OA
ENDROOT
BRANCH   1   4
ATOM      2  C   UNL     1      -2.811  12.806  23.808  0.00  0.00    +0.000 C 
ATOM      3  C   UNL     1      -2.210  11.646  23.039  0.00  0.00    +0.000 C 
ATOM      4  C   UNL     1      -1.264  12.294  22.056  0.00  0.00    +0.000 C 
ATOM      5  C   UNL     1      -0.817  13.542  22.812  0.00  0.00    +0.000 C 
ATOM      6  O   UNL     1      -1.818  13.845  23.813  0.00  0.00    +0.000 OA
BRANCH   2  10
ATOM      7  C   UNL     1      -5.175  15.596  20.500  0.00  0.00    +0.000 C 
ATOM      8  C   UNL     1      -5.175  14.627  21.628  0.00  0.00    +0.000 A 
ATOM      9  C   UNL     1      -4.056  14.218  22.233  0.00  0.00    +0.000 A 
ATOM     10  N   UNL     1      -4.056  13.280  23.238  0.00  0.00    +0.000 N 
ATOM     11  C   UNL     1      -5.231  12.781  23.786  0.00  0.00    +0.000 A 
ATOM     12  O   UNL     1      -5.278  12.002  24.737  0.00  0.00    +0.000 OA
ATOM     13  N   UNL     1      -6.381  13.207  23.166  0.00  0.00    +0.000 N 
ATOM     14  C   UNL     1      -6.457  14.056  22.098  0.00  0.00    +0.000 A 
ATOM     15  O   UNL     1      -7.526  14.339  21.571  0.00  0.00    +0.000 OA
ATOM     16  H   UNL     1      -7.241  12.837  23.511  0.00  0.00    +0.000 HD
ENDBRANCH   2  10
BRANCH   5  17
ATOM     17  C   UNL     1      -0.655  14.770  21.900  0.00  0.00    +0.000 C 
BRANCH  17  18
ATOM     18  O   UNL     1      -0.958  15.972  22.611  0.00  0.00    +0.000 OA
ATOM     19  H   UNL     1      -1.484  16.533  22.009  0.00  0.00    +0.000 HD
ENDBRANCH  17  18
ENDBRANCH   5  17
ENDBRANCH   1   4
BRANCH   1  20
ATOM     20  C   UNL     1      -0.115  11.356  19.953  0.00  0.00    +0.000 C 
BRANCH  20  21
ATOM     21  C   UNL     1      -1.561  11.268  19.340  0.00  0.00    +0.000 A 
ATOM     22  C   UNL     1      -1.860  10.303  18.346  0.00  0.00    +0.000 A 
ATOM     23  C   UNL     1      -3.116  10.256  17.714  0.00  0.00    +0.000 A 
ATOM     24  C   UNL     1      -4.116  11.160  18.061  0.00  0.00    +0.000 A 
ATOM     25  C   UNL     1      -3.843  12.151  18.987  0.00  0.00    +0.000 A 
ATOM     26  C   UNL     1      -2.578  12.221  19.579  0.00  0.00    +0.000 A 
ENDBRANCH  20  21
BRANCH  20  27
ATOM     27  C   UNL     1       0.607  12.689  19.528  0.00  0.00    +0.000 A 
ATOM     28  C   UNL     1       0.011  13.591  18.616  0.00  0.00    +0.000 A 
ATOM     29  C   UNL     1       0.619  14.807  18.279  0.00  0.00    +0.000 A 
ATOM     30  C   UNL     1       1.854  15.141  18.821  0.00  0.00    +0.000 A 
ATOM     31  C   UNL     1       2.467  14.273  19.720  0.00  0.00    +0.000 A 
ATOM     32  C   UNL     1       1.841  13.074  20.088  0.00  0.00    +0.000 A 
ENDBRANCH  20  27
BRANCH  20  33
ATOM     33  C   UNL     1       0.895  10.197  19.649  0.00  0.00    +0.000 A 
ATOM     34  C   UNL     1       1.560  10.031  18.425  0.00  0.00    +0.000 A 
ATOM     35  C   UNL     1       2.087   8.790  18.046  0.00  0.00    +0.000 A 
ATOM     36  C   UNL     1       2.127   7.743  18.955  0.00  0.00    +0.000 A 
ATOM     37  C   UNL     1       1.713   7.965  20.260  0.00  0.00    +0.000 A 
ATOM     38  C   UNL     1       1.120   9.185  20.607  0.00  0.00    +0.000 A 
ENDBRANCH  20  33
ENDBRANCH   1  20
TORSDOF 8
ENDMDL
MODEL 8
REMARK VINA RESULT:      -6.8      2.029      2.849
REMARK  Name = 
REMARK  9 active torsions:
REMARK  status: ('A' for Active; 'I' for Inactive)
REMARK    1  A    between atoms: C_1  and  C_2
REMARK    2  A    between atoms: N_4  and  C_5
REMARK    3  A    between atoms: C_7  and  O_8
REMARK    4  A    between atoms: O_8  and  C_9
REMARK    5  A    between atoms: C_9  and  C_10
REMARK    6  A    between atoms: C_9  and  C_16
REMARK    7  A    between atoms: C_9  and  C_22
REMARK    8  A    between atoms: C_28  and  C_29
REMARK    9  A    between atoms: C_29  and  O_30
REMARK                            x       y       z     vdW  Elec       q    Type
REMARK                         _______ _______ _______ _____ _____    ______ ____
ROOT
ATOM      1  O   UNL     1      -1.194  11.359  20.551  0.00  0.00    +0.000 OA
ENDROOT
BRANCH   1   4
ATOM      2  C   UNL     1      -4.091  13.517  21.474  0.00  0.00    +0.000 C 
ATOM      3  C   UNL     1      -3.412  12.565  20.509  0.00  0.00    +0.000 C 
ATOM      4  C   UNL     1      -2.001  12.439  21.032  0.00  0.00    +0.000 C 
ATOM      5  C   UNL     1      -2.195  12.628  22.535  0.00  0.00    +0.000 C 
ATOM      6  O   UNL     1      -3.437  13.342  22.742  0.00  0.00    +0.000 OA
BRANCH   2  10
ATOM      7  C   UNL     1      -1.723  17.842  21.418  0.00  0.00    +0.000 C 
ATOM      8  C   UNL     1      -2.865  16.974  21.024  0.00  0.00    +0.000 A 
ATOM      9  C   UNL     1      -3.002  15.717  21.455  0.00  0.00    +0.000 A 
ATOM     10  N   UNL     1      -4.029  14.900  21.045  0.00  0.00    +0.000 N 
ATOM     11  C   UNL     1      -5.071  15.361  20.251  0.00  0.00    +0.000 A 
ATOM     12  O   UNL     1      -6.048  14.687  19.927  0.00  0.00    +0.000 OA
ATOM     13  N   UNL     1      -4.931  16.656  19.813  0.00  0.00    +0.000 N 
ATOM     14  C   UNL     1      -3.890  17.496  20.093  0.00  0.00    +0.000 A 
ATOM     15  O   UNL     1      -3.818  18.620  19.613  0.00  0.00    +0.000 OA
ATOM     16  H   UNL     1      -5.643  17.005  19.209  0.00  0.00    +0.000 HD
ENDBRANCH   2  10
BRANCH   5  17
ATOM     17  C   UNL     1      -1.058  13.432  23.190  0.00  0.00    +0.000 C 
BRANCH  17  18
ATOM     18  O   UNL     1      -0.054  13.765  22.229  0.00  0.00    +0.000 OA
ATOM     19  H   UNL     1      -0.457  13.655  21.347  0.00  0.00    +0.000 HD
ENDBRANCH  17  18
ENDBRANCH   5  17
ENDBRANCH   1   4
BRANCH   1  20
ATOM     20  C   UNL     1      -0.598  11.289  19.207  0.00  0.00    +0.000 C 
BRANCH  20  21
ATOM     21  C   UNL     1       0.221  12.619  19.017  0.00  0.00    +0.000 A 
ATOM     22  C   UNL     1       1.615  12.645  19.271  0.00  0.00    +0.000 A 
ATOM     23  C   UNL     1       2.358  13.837  19.198  0.00  0.00    +0.000 A 
ATOM     24  C   UNL     1       1.741  15.037  18.858  0.00  0.00    +0.000 A 
ATOM     25  C   UNL     1       0.371  15.061  18.657  0.00  0.00    +0.000 A 
ATOM     26  C   UNL     1      -0.371  13.881  18.776  0.00  0.00    +0.000 A 
ENDBRANCH  20  21
BRANCH  20  27
ATOM     27  C   UNL     1       0.351  10.033  19.248  0.00  0.00    +0.000 A 
ATOM     28  C   UNL     1       1.007   9.567  18.085  0.00  0.00    +0.000 A 
ATOM     29  C   UNL     1       1.898   8.488  18.126  0.00  0.00    +0.000 A 
ATOM     30  C   UNL     1       2.135   7.825  19.323  0.00  0.00    +0.000 A 
ATOM     31  C   UNL     1       1.504   8.260  20.485  0.00  0.00    +0.000 A 
ATOM     32  C   UNL     1       0.641   9.364  20.454  0.00  0.00    +0.000 A 
ENDBRANCH  20  27
BRANCH  20  33
ATOM     33  C   UNL     1      -1.723  10.953  18.169  0.00  0.00    +0.000 A 
ATOM     34  C   UNL     1      -2.593   9.857  18.276  0.00  0.00    +0.000 A 
ATOM     35  C   UNL     1      -3.260   9.347  17.155  0.00  0.00    +0.000 A 
ATOM     36  C   UNL     1      -3.221  10.031  15.949  0.00  0.00    +0.000 A 
ATOM     37  C   UNL     1      -2.580  11.260  15.890  0.00  0.00    +0.000 A 
ATOM     38  C   UNL     1      -1.855  11.724  16.993  0.00  0.00    +0.000 A 
ENDBRANCH  20  33
ENDBRANCH   1  20
TORSDOF 8
ENDMDL
MODEL 9
REMARK VINA RESULT:      -6.7      1.999      4.545
REMARK  Name = 
REMARK  9 active torsions:
REMARK  status: ('A' for Active; 'I' for Inactive)
REMARK    1  A    between atoms: C_1  and  C_2
REMARK    2  A    between atoms: N_4  and  C_5
REMARK    3  A    between atoms: C_7  and  O_8
REMARK    4  A    between atoms: O_8  and  C_9
REMARK    5  A    between atoms: C_9  and  C_10
REMARK    6  A    between atoms: C_9  and  C_16
REMARK    7  A    between atoms: C_9  and  C_22
REMARK    8  A    between atoms: C_28  and  C_29
REMARK    9  A    between atoms: C_29  and  O_30
REMARK                            x       y       z     vdW  Elec       q    Type
REMARK                         _______ _______ _______ _____ _____    ______ ____
ROOT
ATOM      1  O   UNL     1      -0.876  11.309  20.433  0.00  0.00    +0.000 OA
ENDROOT
BRANCH   1   4
ATOM      2  C   UNL     1      -3.381  13.662  21.878  0.00  0.00    +0.000 C 
ATOM      3  C   UNL     1      -3.040  12.491  20.978  0.00  0.00    +0.000 C 
ATOM      4  C   UNL     1      -1.530  12.484  20.922  0.00  0.00    +0.000 C 
ATOM      5  C   UNL     1      -1.154  13.045  22.292  0.00  0.00    +0.000 C 
ATOM      6  O   UNL     1      -2.281  13.802  22.793  0.00  0.00    +0.000 OA
BRANCH   2  10
ATOM      7  C   UNL     1      -1.676  17.963  20.174  0.00  0.00    +0.000 C 
ATOM      8  C   UNL     1      -2.762  16.958  20.328  0.00  0.00    +0.000 A 
ATOM      9  C   UNL     1      -2.622  15.845  21.053  0.00  0.00    +0.000 A 
ATOM     10  N   UNL     1      -3.608  14.892  21.148  0.00  0.00    +0.000 N 
ATOM     11  C   UNL     1      -4.871  15.076  20.599  0.00  0.00    +0.000 A 
ATOM     12  O   UNL     1      -5.805  14.286  20.726  0.00  0.00    +0.000 OA
ATOM     13  N   UNL     1      -5.014  16.224  19.857  0.00  0.00    +0.000 N 
ATOM     14  C   UNL     1      -4.051  17.167  19.632  0.00  0.00    +0.000 A 
ATOM     15  O   UNL     1      -4.250  18.136  18.910  0.00  0.00    +0.000 OA
ATOM     16  H   UNL     1      -5.898  16.367  19.417  0.00  0.00    +0.000 HD
ENDBRANCH   2  10
BRANCH   5  17
ATOM     17  C   UNL     1       0.071  13.975  22.243  0.00  0.00    +0.000 C 
BRANCH  17  18
ATOM     18  O   UNL     1       1.222  13.272  21.770  0.00  0.00    +0.000 OA
ATOM     19  H   UNL     1       1.614  12.820  22.541  0.00  0.00    +0.000 HD
ENDBRANCH  17  18
ENDBRANCH   5  17
ENDBRANCH   1   4
BRANCH   1  20
ATOM     20  C   UNL     1      -0.261  11.182  19.102  0.00  0.00    +0.000 C 
BRANCH  20  21
ATOM     21  C   UNL     1       0.704   9.942  19.178  0.00  0.00    +0.000 A 
ATOM     22  C   UNL     1       1.299   9.423  18.000  0.00  0.00    +0.000 A 
ATOM     23  C   UNL     1       2.092   8.262  18.022  0.00  0.00    +0.000 A 
ATOM     24  C   UNL     1       2.331   7.590  19.217  0.00  0.00    +0.000 A 
ATOM     25  C   UNL     1       1.723   8.035  20.378  0.00  0.00    +0.000 A 
ATOM     26  C   UNL     1       0.896   9.163  20.343  0.00  0.00    +0.000 A 
ENDBRANCH  20  21
BRANCH  20  27
ATOM     27  C   UNL     1      -1.463  10.913  18.123  0.00  0.00    +0.000 A 
ATOM     28  C   UNL     1      -2.417   9.903  18.386  0.00  0.00    +0.000 A 
ATOM     29  C   UNL     1      -3.523   9.698  17.552  0.00  0.00    +0.000 A 
ATOM     30  C   UNL     1      -3.690  10.477  16.414  0.00  0.00    +0.000 A 
ATOM     31  C   UNL     1      -2.767  11.478  16.126  0.00  0.00    +0.000 A 
ATOM     32  C   UNL     1      -1.681  11.710  16.981  0.00  0.00    +0.000 A 
ENDBRANCH  20  27
BRANCH  20  33
ATOM     33  C   UNL     1       0.340  12.569  18.685  0.00  0.00    +0.000 A 
ATOM     34  C   UNL     1       1.698  12.790  18.415  0.00  0.00    +0.000 A 
ATOM     35  C   UNL     1       2.253  14.075  18.482  0.00  0.00    +0.000 A 
ATOM     36  C   UNL     1       1.431  15.182  18.633  0.00  0.00    +0.000 A 
ATOM     37  C   UNL     1       0.055  15.006  18.639  0.00  0.00    +0.000 A 
ATOM     38  C   UNL     1      -0.484  13.714  18.646  0.00  0.00    +0.000 A 
ENDBRANCH  20  33
ENDBRANCH   1  20
TORSDOF 8
ENDMDL
