MODEL 1
REMARK VINA RESULT:      -8.7      0.000      0.000
REMARK  Name = 
REMARK  7 active torsions:
REMARK  status: ('A' for Active; 'I' for Inactive)
REMARK    1  A    between atoms: C_2  and  C_5
REMARK    2  A    between atoms: N_3  and  O_4
REMARK    3  A    between atoms: C_5  and  N_6
REMARK    4  A    between atoms: N_6  and  S_7
REMARK    5  A    between atoms: S_7  and  C_10
REMARK    6  A    between atoms: C_13  and  O_14
REMARK    7  A    between atoms: O_14  and  C_15
REMARK                            x       y       z     vdW  Elec       q    Type
REMARK                         _______ _______ _______ _____ _____    ______ ____
ROOT
ATOM      1  S   UNL     1       3.543   5.965  18.468  0.00  0.00    +0.000 S 
ATOM      2  O   UNL     1       2.769   5.032  17.684  0.00  0.00    +0.000 OA
ATOM      3  O   UNL     1       4.066   5.620  19.772  0.00  0.00    +0.000 OA
ENDROOT
BRANCH   1   4
ATOM      4  C   UNL     1       2.582   7.443  18.697  0.00  0.00    +0.000 A 
ATOM      5  C   UNL     1       2.477   8.387  17.672  0.00  0.00    +0.000 A 
ATOM      6  C   UNL     1       1.713   9.537  17.878  0.00  0.00    +0.000 A 
ATOM      7  C   UNL     1       1.047   9.733  19.092  0.00  0.00    +0.000 A 
ATOM      8  C   UNL     1       1.183   8.797  20.123  0.00  0.00    +0.000 A 
ATOM      9  C   UNL     1       1.923   7.633  19.915  0.00  0.00    +0.000 A 
BRANCH   7  10
ATOM     10  O   UNL     1       0.335  10.905  19.200  0.00  0.00    +0.000 OA
BRANCH  10  11
ATOM     11  C   UNL     1      -0.977  10.958  18.783  0.00  0.00    +0.000 A 
ATOM     12  C   UNL     1      -1.328  10.048  17.780  0.00  0.00    +0.000 A 
ATOM     13  C   UNL     1      -2.632  10.020  17.284  0.00  0.00    +0.000 A 
ATOM     14  C   UNL     1      -3.576  10.903  17.795  0.00  0.00    +0.000 A 
ATOM     15  F   UNL     1      -4.821  10.895  17.303  0.00  0.00    +0.000 F 
ATOM     16  C   UNL     1      -3.250  11.787  18.816  0.00  0.00    +0.000 A 
ATOM     17  C   UNL     1      -1.953  11.796  19.333  0.00  0.00    +0.000 A 
ENDBRANCH  10  11
ENDBRANCH   7  10
ENDBRANCH   1   4
BRANCH   1  18
ATOM     18  N   UNL     1       4.867   6.514  17.559  0.00  0.00    +0.000 NA
ATOM     19  H   UNL     1       4.576   6.953  16.687  0.00  0.00    +0.000 HD
BRANCH  18  20
ATOM     20  C   UNL     1       6.099   5.674  17.431  0.00  0.00    +0.000 C 
ATOM     21  C   UNL     1       6.725   5.969  16.049  0.00  0.00    +0.000 C 
ATOM     22  C   UNL     1       6.039   5.034  15.061  0.00  0.00    +0.000 C 
ATOM     23  C   UNL     1       5.493   3.872  15.876  0.00  0.00    +0.000 C 
ATOM     24  C   UNL     1       5.792   4.181  17.342  0.00  0.00    +0.000 C 
BRANCH  20  26
ATOM     25  O   UNL     1       7.960   6.917  18.427  0.00  0.00    +0.000 OA
ATOM     26  C   UNL     1       7.140   6.004  18.519  0.00  0.00    +0.000 C 
ATOM     27  N   UNL     1       7.073   5.209  19.638  0.00  0.00    +0.000 N 
ATOM     28  H   UNL     1       6.430   4.437  19.777  0.00  0.00    +0.000 HD
BRANCH  27  29
ATOM     29  O   UNL     1       8.057   5.429  20.626  0.00  0.00    +0.000 OA
ATOM     30  H   UNL     1       8.128   6.410  20.630  0.00  0.00    +0.000 HD
ENDBRANCH  27  29
ENDBRANCH  20  26
ENDBRANCH  18  20
ENDBRANCH   1  18
TORSDOF 7
ENDMDL
MODEL 2
REMARK VINA RESULT:      -8.5      1.848      2.607
REMARK  Name = 
REMARK  7 active torsions:
REMARK  status: ('A' for Active; 'I' for Inactive)
REMARK    1  A    between atoms: C_2  and  C_5
REMARK    2  A    between atoms: N_3  and  O_4
REMARK    3  A    between atoms: C_5  and  N_6
REMARK    4  A    between atoms: N_6  and  S_7
REMARK    5  A    between atoms: S_7  and  C_10
REMARK    6  A    between atoms: C_13  and  O_14
REMARK    7  A    between atoms: O_14  and  C_15
REMARK                            x       y       z     vdW  Elec       q    Type
REMARK                         _______ _______ _______ _____ _____    ______ ____
ROOT
ATOM      1  S   UNL     1       2.571   5.328  19.776  0.00  0.00    +0.000 S 
ATOM      2  O   UNL     1       1.923   4.473  18.811  0.00  0.00    +0.000 OA
ATOM      3  O   UNL     1       2.442   5.110  21.201  0.00  0.00    +0.000 OA
ENDROOT
BRANCH   1   4
ATOM      4  C   UNL     1       2.054   7.004  19.485  0.00  0.00    +0.000 A 
ATOM      5  C   UNL     1       1.471   7.754  20.509  0.00  0.00    +0.000 A 
ATOM      6  C   UNL     1       1.078   9.069  20.253  0.00  0.00    +0.000 A 
ATOM      7  C   UNL     1       1.282   9.634  18.990  0.00  0.00    +0.000 A 
ATOM      8  C   UNL     1       1.840   8.865  17.963  0.00  0.00    +0.000 A 
ATOM      9  C   UNL     1       2.260   7.559  18.218  0.00  0.00    +0.000 A 
BRANCH   7  10
ATOM     10  O   UNL     1       0.846  10.929  18.836  0.00  0.00    +0.000 OA
BRANCH  10  11
ATOM     11  C   UNL     1      -0.503  11.207  18.828  0.00  0.00    +0.000 A 
ATOM     12  C   UNL     1      -1.262  10.485  17.899  0.00  0.00    +0.000 A 
ATOM     13  C   UNL     1      -2.639  10.693  17.807  0.00  0.00    +0.000 A 
ATOM     14  C   UNL     1      -3.247  11.622  18.643  0.00  0.00    +0.000 A 
ATOM     15  F   UNL     1      -4.564  11.841  18.539  0.00  0.00    +0.000 F 
ATOM     16  C   UNL     1      -2.511  12.319  19.594  0.00  0.00    +0.000 A 
ATOM     17  C   UNL     1      -1.139  12.091  19.706  0.00  0.00    +0.000 A 
ENDBRANCH  10  11
ENDBRANCH   7  10
ENDBRANCH   1   4
BRANCH   1  18
ATOM     18  N   UNL     1       4.238   5.388  19.458  0.00  0.00    +0.000 NA
ATOM     19  H   UNL     1       4.574   6.346  19.363  0.00  0.00    +0.000 HD
BRANCH  18  20
ATOM     20  C   UNL     1       4.860   4.431  18.491  0.00  0.00    +0.000 C 
ATOM     21  C   UNL     1       6.375   4.731  18.443  0.00  0.00    +0.000 C 
ATOM     22  C   UNL     1       6.560   5.831  17.405  0.00  0.00    +0.000 C 
ATOM     23  C   UNL     1       5.349   5.763  16.487  0.00  0.00    +0.000 C 
ATOM     24  C   UNL     1       4.428   4.681  17.048  0.00  0.00    +0.000 C 
BRANCH  20  26
ATOM     25  O   UNL     1       5.003   2.525  20.025  0.00  0.00    +0.000 OA
ATOM     26  C   UNL     1       4.667   2.964  18.924  0.00  0.00    +0.000 C 
ATOM     27  N   UNL     1       4.057   2.164  17.988  0.00  0.00    +0.000 N 
ATOM     28  H   UNL     1       3.763   2.456  17.062  0.00  0.00    +0.000 HD
BRANCH  27  29
ATOM     29  O   UNL     1       3.929   0.797  18.315  0.00  0.00    +0.000 OA
ATOM     30  H   UNL     1       3.458   0.836  19.178  0.00  0.00    +0.000 HD
ENDBRANCH  27  29
ENDBRANCH  20  26
ENDBRANCH  18  20
ENDBRANCH   1  18
TORSDOF 7
ENDMDL
MODEL 3
REMARK VINA RESULT:      -8.3      0.723      1.044
REMARK  Name = 
REMARK  7 active torsions:
REMARK  status: ('A' for Active; 'I' for Inactive)
REMARK    1  A    between atoms: C_2  and  C_5
REMARK    2  A    between atoms: N_3  and  O_4
REMARK    3  A    between atoms: C_5  and  N_6
REMARK    4  A    between atoms: N_6  and  S_7
REMARK    5  A    between atoms: S_7  and  C_10
REMARK    6  A    between atoms: C_13  and  O_14
REMARK    7  A    between atoms: O_14  and  C_15
REMARK                            x       y       z     vdW  Elec       q    Type
REMARK                         _______ _______ _______ _____ _____    ______ ____
ROOT
ATOM      1  S   UNL     1       3.798   5.604  18.377  0.00  0.00    +0.000 S 
ATOM      2  O   UNL     1       3.053   4.775  17.460  0.00  0.00    +0.000 OA
ATOM      3  O   UNL     1       4.337   5.084  19.615  0.00  0.00    +0.000 OA
ENDROOT
BRANCH   1   4
ATOM      4  C   UNL     1       2.789   6.997  18.826  0.00  0.00    +0.000 A 
ATOM      5  C   UNL     1       2.574   8.038  17.919  0.00  0.00    +0.000 A 
ATOM      6  C   UNL     1       1.774   9.119  18.297  0.00  0.00    +0.000 A 
ATOM      7  C   UNL     1       1.181   9.149  19.563  0.00  0.00    +0.000 A 
ATOM      8  C   UNL     1       1.427   8.116  20.474  0.00  0.00    +0.000 A 
ATOM      9  C   UNL     1       2.203   7.021  20.095  0.00  0.00    +0.000 A 
BRANCH   7  10
ATOM     10  O   UNL     1       0.426  10.264  19.843  0.00  0.00    +0.000 OA
BRANCH  10  11
ATOM     11  C   UNL     1      -0.659  10.579  19.055  0.00  0.00    +0.000 A 
ATOM     12  C   UNL     1      -0.745  11.917  18.654  0.00  0.00    +0.000 A 
ATOM     13  C   UNL     1      -1.807  12.343  17.856  0.00  0.00    +0.000 A 
ATOM     14  C   UNL     1      -2.777  11.427  17.464  0.00  0.00    +0.000 A 
ATOM     15  F   UNL     1      -3.810  11.839  16.719  0.00  0.00    +0.000 F 
ATOM     16  C   UNL     1      -2.685  10.088  17.826  0.00  0.00    +0.000 A 
ATOM     17  C   UNL     1      -1.608   9.656  18.601  0.00  0.00    +0.000 A 
ENDBRANCH  10  11
ENDBRANCH   7  10
ENDBRANCH   1   4
BRANCH   1  18
ATOM     18  N   UNL     1       5.099   6.329  17.564  0.00  0.00    +0.000 NA
ATOM     19  H   UNL     1       4.804   6.792  16.706  0.00  0.00    +0.000 HD
BRANCH  18  20
ATOM     20  C   UNL     1       6.410   5.617  17.445  0.00  0.00    +0.000 C 
ATOM     21  C   UNL     1       7.056   6.043  16.107  0.00  0.00    +0.000 C 
ATOM     22  C   UNL     1       6.499   5.103  15.045  0.00  0.00    +0.000 C 
ATOM     23  C   UNL     1       6.037   3.852  15.777  0.00  0.00    +0.000 C 
ATOM     24  C   UNL     1       6.252   4.108  17.268  0.00  0.00    +0.000 C 
BRANCH  20  26
ATOM     25  O   UNL     1       8.145   6.943  18.555  0.00  0.00    +0.000 OA
ATOM     26  C   UNL     1       7.374   5.984  18.590  0.00  0.00    +0.000 C 
ATOM     27  N   UNL     1       7.297   5.164  19.691  0.00  0.00    +0.000 N 
ATOM     28  H   UNL     1       6.693   4.354  19.783  0.00  0.00    +0.000 HD
BRANCH  27  29
ATOM     29  O   UNL     1       8.216   5.420  20.732  0.00  0.00    +0.000 OA
ATOM     30  H   UNL     1       8.030   6.362  20.942  0.00  0.00    +0.000 HD
ENDBRANCH  27  29
ENDBRANCH  20  26
ENDBRANCH  18  20
ENDBRANCH   1  18
TORSDOF 7
ENDMDL
MODEL 4
REMARK VINA RESULT:      -8.3      1.530      2.071
REMARK  Name = 
REMARK  7 active torsions:
REMARK  status: ('A' for Active; 'I' for Inactive)
REMARK    1  A    between atoms: C_2  and  C_5
REMARK    2  A    between atoms: N_3  and  O_4
REMARK    3  A    between atoms: C_5  and  N_6
REMARK    4  A    between atoms: N_6  and  S_7
REMARK    5  A    between atoms: S_7  and  C_10
REMARK    6  A    between atoms: C_13  and  O_14
REMARK    7  A    between atoms: O_14  and  C_15
REMARK                            x       y       z     vdW  Elec       q    Type
REMARK                         _______ _______ _______ _____ _____    ______ ____
ROOT
ATOM      1  S   UNL     1       2.913   5.571  18.995  0.00  0.00    +0.000 S 
ATOM      2  O   UNL     1       1.810   4.641  19.012  0.00  0.00    +0.000 OA
ATOM      3  O   UNL     1       3.953   5.545  20.001  0.00  0.00    +0.000 OA
ENDROOT
BRANCH   1   4
ATOM      4  C   UNL     1       2.259   7.224  19.005  0.00  0.00    +0.000 A 
ATOM      5  C   UNL     1       2.303   8.011  17.852  0.00  0.00    +0.000 A 
ATOM      6  C   UNL     1       1.778   9.304  17.888  0.00  0.00    +0.000 A 
ATOM      7  C   UNL     1       1.199   9.799  19.061  0.00  0.00    +0.000 A 
ATOM      8  C   UNL     1       1.186   9.013  20.218  0.00  0.00    +0.000 A 
ATOM      9  C   UNL     1       1.685   7.711  20.183  0.00  0.00    +0.000 A 
BRANCH   7  10
ATOM     10  O   UNL     1       0.725  11.089  18.996  0.00  0.00    +0.000 OA
BRANCH  10  11
ATOM     11  C   UNL     1      -0.630  11.326  18.948  0.00  0.00    +0.000 A 
ATOM     12  C   UNL     1      -1.340  10.578  18.001  0.00  0.00    +0.000 A 
ATOM     13  C   UNL     1      -2.720  10.744  17.869  0.00  0.00    +0.000 A 
ATOM     14  C   UNL     1      -3.379  11.657  18.683  0.00  0.00    +0.000 A 
ATOM     15  F   UNL     1      -4.698  11.836  18.540  0.00  0.00    +0.000 F 
ATOM     16  C   UNL     1      -2.692  12.380  19.651  0.00  0.00    +0.000 A 
ATOM     17  C   UNL     1      -1.317  12.194  19.804  0.00  0.00    +0.000 A 
ENDBRANCH  10  11
ENDBRANCH   7  10
ENDBRANCH   1   4
BRANCH   1  18
ATOM     18  N   UNL     1       3.706   5.490  17.496  0.00  0.00    +0.000 NA
ATOM     19  H   UNL     1       3.058   5.592  16.716  0.00  0.00    +0.000 HD
BRANCH  18  20
ATOM     20  C   UNL     1       4.781   4.477  17.261  0.00  0.00    +0.000 C 
ATOM     21  C   UNL     1       6.116   5.088  17.743  0.00  0.00    +0.000 C 
ATOM     22  C   UNL     1       6.671   5.884  16.568  0.00  0.00    +0.000 C 
ATOM     23  C   UNL     1       6.033   5.302  15.315  0.00  0.00    +0.000 C 
ATOM     24  C   UNL     1       5.049   4.229  15.778  0.00  0.00    +0.000 C 
BRANCH  20  26
ATOM     25  O   UNL     1       3.724   2.310  17.698  0.00  0.00    +0.000 OA
ATOM     26  C   UNL     1       4.530   3.174  18.045  0.00  0.00    +0.000 C 
ATOM     27  N   UNL     1       5.301   3.024  19.172  0.00  0.00    +0.000 N 
ATOM     28  H   UNL     1       5.976   3.697  19.521  0.00  0.00    +0.000 HD
BRANCH  27  29
ATOM     29  O   UNL     1       5.049   1.880  19.961  0.00  0.00    +0.000 OA
ATOM     30  H   UNL     1       5.342   1.153  19.367  0.00  0.00    +0.000 HD
ENDBRANCH  27  29
ENDBRANCH  20  26
ENDBRANCH  18  20
ENDBRANCH   1  18
TORSDOF 7
ENDMDL
MODEL 5
REMARK VINA RESULT:      -8.2      1.570      2.478
REMARK  Name = 
REMARK  7 active torsions:
REMARK  status: ('A' for Active; 'I' for Inactive)
REMARK    1  A    between atoms: C_2  and  C_5
REMARK    2  A    between atoms: N_3  and  O_4
REMARK    3  A    between atoms: C_5  and  N_6
REMARK    4  A    between atoms: N_6  and  S_7
REMARK    5  A    between atoms: S_7  and  C_10
REMARK    6  A    between atoms: C_13  and  O_14
REMARK    7  A    between atoms: O_14  and  C_15
REMARK                            x       y       z     vdW  Elec       q    Type
REMARK                         _______ _______ _______ _____ _____    ______ ____
ROOT
ATOM      1  S   UNL     1       2.886   5.676  19.118  0.00  0.00    +0.000 S 
ATOM      2  O   UNL     1       1.788   4.755  19.291  0.00  0.00    +0.000 OA
ATOM      3  O   UNL     1       4.007   5.711  20.033  0.00  0.00    +0.000 OA
ENDROOT
BRANCH   1   4
ATOM      4  C   UNL     1       2.235   7.329  19.072  0.00  0.00    +0.000 A 
ATOM      5  C   UNL     1       1.593   7.870  20.189  0.00  0.00    +0.000 A 
ATOM      6  C   UNL     1       1.095   9.173  20.127  0.00  0.00    +0.000 A 
ATOM      7  C   UNL     1       1.252   9.933  18.964  0.00  0.00    +0.000 A 
ATOM      8  C   UNL     1       1.870   9.373  17.841  0.00  0.00    +0.000 A 
ATOM      9  C   UNL     1       2.394   8.081  17.905  0.00  0.00    +0.000 A 
BRANCH   7  10
ATOM     10  O   UNL     1       0.712  11.198  18.999  0.00  0.00    +0.000 OA
BRANCH  10  11
ATOM     11  C   UNL     1      -0.652  11.369  18.922  0.00  0.00    +0.000 A 
ATOM     12  C   UNL     1      -1.206  12.236  19.871  0.00  0.00    +0.000 A 
ATOM     13  C   UNL     1      -2.581  12.477  19.883  0.00  0.00    +0.000 A 
ATOM     14  C   UNL     1      -3.392  11.848  18.945  0.00  0.00    +0.000 A 
ATOM     15  F   UNL     1      -4.714  12.058  18.970  0.00  0.00    +0.000 F 
ATOM     16  C   UNL     1      -2.851  11.013  17.975  0.00  0.00    +0.000 A 
ATOM     17  C   UNL     1      -1.473  10.794  17.945  0.00  0.00    +0.000 A 
ENDBRANCH  10  11
ENDBRANCH   7  10
ENDBRANCH   1   4
BRANCH   1  18
ATOM     18  N   UNL     1       3.550   5.491  17.567  0.00  0.00    +0.000 NA
ATOM     19  H   UNL     1       2.832   5.474  16.844  0.00  0.00    +0.000 HD
BRANCH  18  20
ATOM     20  C   UNL     1       4.667   4.523  17.331  0.00  0.00    +0.000 C 
ATOM     21  C   UNL     1       5.976   5.193  17.806  0.00  0.00    +0.000 C 
ATOM     22  C   UNL     1       6.492   6.008  16.627  0.00  0.00    +0.000 C 
ATOM     23  C   UNL     1       5.875   5.396  15.379  0.00  0.00    +0.000 C 
ATOM     24  C   UNL     1       4.940   4.283  15.848  0.00  0.00    +0.000 C 
BRANCH  20  26
ATOM     25  O   UNL     1       3.655   2.345  17.817  0.00  0.00    +0.000 OA
ATOM     26  C   UNL     1       4.474   3.213  18.121  0.00  0.00    +0.000 C 
ATOM     27  N   UNL     1       5.315   3.063  19.197  0.00  0.00    +0.000 N 
ATOM     28  H   UNL     1       6.004   3.739  19.508  0.00  0.00    +0.000 HD
BRANCH  27  29
ATOM     29  O   UNL     1       5.120   1.912  19.991  0.00  0.00    +0.000 OA
ATOM     30  H   UNL     1       5.940   1.398  19.812  0.00  0.00    +0.000 HD
ENDBRANCH  27  29
ENDBRANCH  20  26
ENDBRANCH  18  20
ENDBRANCH   1  18
TORSDOF 7
ENDMDL
MODEL 6
REMARK VINA RESULT:      -8.2      2.072      2.707
REMARK  Name = 
REMARK  7 active torsions:
REMARK  status: ('A' for Active; 'I' for Inactive)
REMARK    1  A    between atoms: C_2  and  C_5
REMARK    2  A    between atoms: N_3  and  O_4
REMARK    3  A    between atoms: C_5  and  N_6
REMARK    4  A    between atoms: N_6  and  S_7
REMARK    5  A    between atoms: S_7  and  C_10
REMARK    6  A    between atoms: C_13  and  O_14
REMARK    7  A    between atoms: O_14  and  C_15
REMARK                            x       y       z     vdW  Elec       q    Type
REMARK                         _______ _______ _______ _____ _____    ______ ____
ROOT
ATOM      1  S   UNL     1       3.453   5.776  18.547  0.00  0.00    +0.000 S 
ATOM      2  O   UNL     1       2.668   4.953  17.658  0.00  0.00    +0.000 OA
ATOM      3  O   UNL     1       4.034   5.251  19.763  0.00  0.00    +0.000 OA
ENDROOT
BRANCH   1   4
ATOM      4  C   UNL     1       2.471   7.176  19.034  0.00  0.00    +0.000 A 
ATOM      5  C   UNL     1       1.988   7.283  20.341  0.00  0.00    +0.000 A 
ATOM      6  C   UNL     1       1.222   8.395  20.697  0.00  0.00    +0.000 A 
ATOM      7  C   UNL     1       0.958   9.399  19.760  0.00  0.00    +0.000 A 
ATOM      8  C   UNL     1       1.421   9.268  18.446  0.00  0.00    +0.000 A 
ATOM      9  C   UNL     1       2.208   8.173  18.090  0.00  0.00    +0.000 A 
BRANCH   7  10
ATOM     10  O   UNL     1       0.182  10.443  20.206  0.00  0.00    +0.000 OA
BRANCH  10  11
ATOM     11  C   UNL     1       0.381  11.712  19.710  0.00  0.00    +0.000 A 
ATOM     12  C   UNL     1       1.521  12.373  20.182  0.00  0.00    +0.000 A 
ATOM     13  C   UNL     1       1.814  13.666  19.744  0.00  0.00    +0.000 A 
ATOM     14  C   UNL     1       0.964  14.289  18.838  0.00  0.00    +0.000 A 
ATOM     15  F   UNL     1       1.230  15.537  18.435  0.00  0.00    +0.000 F 
ATOM     16  C   UNL     1      -0.151  13.631  18.333  0.00  0.00    +0.000 A 
ATOM     17  C   UNL     1      -0.430  12.328  18.749  0.00  0.00    +0.000 A 
ENDBRANCH  10  11
ENDBRANCH   7  10
ENDBRANCH   1   4
BRANCH   1  18
ATOM     18  N   UNL     1       4.728   6.493  17.686  0.00  0.00    +0.000 NA
ATOM     19  H   UNL     1       4.395   7.022  16.881  0.00  0.00    +0.000 HD
BRANCH  18  20
ATOM     20  C   UNL     1       5.991   5.733  17.430  0.00  0.00    +0.000 C 
ATOM     21  C   UNL     1       6.527   6.167  16.047  0.00  0.00    +0.000 C 
ATOM     22  C   UNL     1       5.836   5.277  15.022  0.00  0.00    +0.000 C 
ATOM     23  C   UNL     1       5.393   4.027  15.767  0.00  0.00    +0.000 C 
ATOM     24  C   UNL     1       5.755   4.237  17.237  0.00  0.00    +0.000 C 
BRANCH  20  26
ATOM     25  O   UNL     1       7.902   6.935  18.381  0.00  0.00    +0.000 OA
ATOM     26  C   UNL     1       7.071   6.033  18.488  0.00  0.00    +0.000 C 
ATOM     27  N   UNL     1       7.029   5.223  19.597  0.00  0.00    +0.000 N 
ATOM     28  H   UNL     1       6.380   4.458  19.747  0.00  0.00    +0.000 HD
BRANCH  27  29
ATOM     29  O   UNL     1       8.048   5.415  20.556  0.00  0.00    +0.000 OA
ATOM     30  H   UNL     1       8.819   5.647  19.991  0.00  0.00    +0.000 HD
ENDBRANCH  27  29
ENDBRANCH  20  26
ENDBRANCH  18  20
ENDBRANCH   1  18
TORSDOF 7
ENDMDL
MODEL 7
REMARK VINA RESULT:      -8.2      1.653      2.453
REMARK  Name = 
REMARK  7 active torsions:
REMARK  status: ('A' for Active; 'I' for Inactive)
REMARK    1  A    between atoms: C_2  and  C_5
REMARK    2  A    between atoms: N_3  and  O_4
REMARK    3  A    between atoms: C_5  and  N_6
REMARK    4  A    between atoms: N_6  and  S_7
REMARK    5  A    between atoms: S_7  and  C_10
REMARK    6  A    between atoms: C_13  and  O_14
REMARK    7  A    between atoms: O_14  and  C_15
REMARK                            x       y       z     vdW  Elec       q    Type
REMARK                         _______ _______ _______ _____ _____    ______ ____
ROOT
ATOM      1  S   UNL     1       2.824   5.476  19.115  0.00  0.00    +0.000 S 
ATOM      2  O   UNL     1       2.082   4.702  18.149  0.00  0.00    +0.000 OA
ATOM      3  O   UNL     1       2.902   5.089  20.508  0.00  0.00    +0.000 OA
ENDROOT
BRANCH   1   4
ATOM      4  C   UNL     1       2.206   7.142  19.100  0.00  0.00    +0.000 A 
ATOM      5  C   UNL     1       2.272   7.913  17.936  0.00  0.00    +0.000 A 
ATOM      6  C   UNL     1       1.775   9.217  17.951  0.00  0.00    +0.000 A 
ATOM      7  C   UNL     1       1.202   9.740  19.115  0.00  0.00    +0.000 A 
ATOM      8  C   UNL     1       1.168   8.972  20.283  0.00  0.00    +0.000 A 
ATOM      9  C   UNL     1       1.638   7.658  20.268  0.00  0.00    +0.000 A 
BRANCH   7  10
ATOM     10  O   UNL     1       0.758  11.040  19.030  0.00  0.00    +0.000 OA
BRANCH  10  11
ATOM     11  C   UNL     1      -0.592  11.306  18.984  0.00  0.00    +0.000 A 
ATOM     12  C   UNL     1      -1.051  12.262  19.899  0.00  0.00    +0.000 A 
ATOM     13  C   UNL     1      -2.403  12.604  19.936  0.00  0.00    +0.000 A 
ATOM     14  C   UNL     1      -3.288  11.987  19.059  0.00  0.00    +0.000 A 
ATOM     15  F   UNL     1      -4.590  12.296  19.111  0.00  0.00    +0.000 F 
ATOM     16  C   UNL     1      -2.841  11.064  18.122  0.00  0.00    +0.000 A 
ATOM     17  C   UNL     1      -1.484  10.742  18.065  0.00  0.00    +0.000 A 
ENDBRANCH  10  11
ENDBRANCH   7  10
ENDBRANCH   1   4
BRANCH   1  18
ATOM     18  N   UNL     1       4.426   5.665  18.589  0.00  0.00    +0.000 NA
ATOM     19  H   UNL     1       4.574   6.562  18.130  0.00  0.00    +0.000 HD
BRANCH  18  20
ATOM     20  C   UNL     1       5.149   4.527  17.938  0.00  0.00    +0.000 C 
ATOM     21  C   UNL     1       6.665   4.791  18.082  0.00  0.00    +0.000 C 
ATOM     22  C   UNL     1       7.062   5.663  16.897  0.00  0.00    +0.000 C 
ATOM     23  C   UNL     1       6.009   5.434  15.823  0.00  0.00    +0.000 C 
ATOM     24  C   UNL     1       4.963   4.496  16.422  0.00  0.00    +0.000 C 
BRANCH  20  26
ATOM     25  O   UNL     1       5.185   2.870  19.742  0.00  0.00    +0.000 OA
ATOM     26  C   UNL     1       4.823   3.177  18.605  0.00  0.00    +0.000 C 
ATOM     27  N   UNL     1       4.062   2.326  17.840  0.00  0.00    +0.000 N 
ATOM     28  H   UNL     1       3.738   2.510  16.896  0.00  0.00    +0.000 HD
BRANCH  27  29
ATOM     29  O   UNL     1       3.805   1.049  18.385  0.00  0.00    +0.000 OA
ATOM     30  H   UNL     1       4.162   1.140  19.297  0.00  0.00    +0.000 HD
ENDBRANCH  27  29
ENDBRANCH  20  26
ENDBRANCH  18  20
ENDBRANCH   1  18
TORSDOF 7
ENDMDL
MODEL 8
REMARK VINA RESULT:      -8.2      1.956      2.671
REMARK  Name = 
REMARK  7 active torsions:
REMARK  status: ('A' for Active; 'I' for Inactive)
REMARK    1  A    between atoms: C_2  and  C_5
REMARK    2  A    between atoms: N_3  and  O_4
REMARK    3  A    between atoms: C_5  and  N_6
REMARK    4  A    between atoms: N_6  and  S_7
REMARK    5  A    between atoms: S_7  and  C_10
REMARK    6  A    between atoms: C_13  and  O_14
REMARK    7  A    between atoms: O_14  and  C_15
REMARK                            x       y       z     vdW  Elec       q    Type
REMARK                         _______ _______ _______ _____ _____    ______ ____
ROOT
ATOM      1  S   UNL     1       3.056   5.756  19.797  0.00  0.00    +0.000 S 
ATOM      2  O   UNL     1       2.331   5.122  20.872  0.00  0.00    +0.000 OA
ATOM      3  O   UNL     1       4.471   6.042  19.893  0.00  0.00    +0.000 OA
ENDROOT
BRANCH   1   4
ATOM      4  C   UNL     1       2.265   7.301  19.415  0.00  0.00    +0.000 A 
ATOM      5  C   UNL     1       1.549   7.993  20.396  0.00  0.00    +0.000 A 
ATOM      6  C   UNL     1       0.941   9.206  20.069  0.00  0.00    +0.000 A 
ATOM      7  C   UNL     1       1.062   9.731  18.779  0.00  0.00    +0.000 A 
ATOM      8  C   UNL     1       1.756   9.016  17.796  0.00  0.00    +0.000 A 
ATOM      9  C   UNL     1       2.388   7.817  18.122  0.00  0.00    +0.000 A 
BRANCH   7  10
ATOM     10  O   UNL     1       0.413  10.923  18.555  0.00  0.00    +0.000 OA
BRANCH  10  11
ATOM     11  C   UNL     1      -0.951  10.942  18.365  0.00  0.00    +0.000 A 
ATOM     12  C   UNL     1      -1.444  10.020  17.434  0.00  0.00    +0.000 A 
ATOM     13  C   UNL     1      -2.812   9.959  17.165  0.00  0.00    +0.000 A 
ATOM     14  C   UNL     1      -3.678  10.820  17.829  0.00  0.00    +0.000 A 
ATOM     15  F   UNL     1      -4.987  10.780  17.554  0.00  0.00    +0.000 F 
ATOM     16  C   UNL     1      -3.206  11.716  18.782  0.00  0.00    +0.000 A 
ATOM     17  C   UNL     1      -1.841  11.758  19.072  0.00  0.00    +0.000 A 
ENDBRANCH  10  11
ENDBRANCH   7  10
ENDBRANCH   1   4
BRANCH   1  18
ATOM     18  N   UNL     1       2.851   4.865  18.367  0.00  0.00    +0.000 NA
ATOM     19  H   UNL     1       1.867   4.751  18.125  0.00  0.00    +0.000 HD
BRANCH  18  20
ATOM     20  C   UNL     1       3.681   3.648  18.106  0.00  0.00    +0.000 C 
ATOM     21  C   UNL     1       2.912   2.762  17.100  0.00  0.00    +0.000 C 
ATOM     22  C   UNL     1       1.975   1.891  17.928  0.00  0.00    +0.000 C 
ATOM     23  C   UNL     1       2.567   1.832  19.328  0.00  0.00    +0.000 C 
ATOM     24  C   UNL     1       3.798   2.737  19.326  0.00  0.00    +0.000 C 
BRANCH  20  26
ATOM     25  O   UNL     1       5.211   4.332  16.319  0.00  0.00    +0.000 OA
ATOM     26  C   UNL     1       5.051   4.002  17.495  0.00  0.00    +0.000 C 
ATOM     27  N   UNL     1       6.104   3.950  18.376  0.00  0.00    +0.000 N 
ATOM     28  H   UNL     1       6.046   3.680  19.352  0.00  0.00    +0.000 HD
BRANCH  27  29
ATOM     29  O   UNL     1       7.387   4.194  17.839  0.00  0.00    +0.000 OA
ATOM     30  H   UNL     1       7.587   3.342  17.390  0.00  0.00    +0.000 HD
ENDBRANCH  27  29
ENDBRANCH  20  26
ENDBRANCH  18  20
ENDBRANCH   1  18
TORSDOF 7
ENDMDL
MODEL 9
REMARK VINA RESULT:      -8.2      1.781      2.280
REMARK  Name = 
REMARK  7 active torsions:
REMARK  status: ('A' for Active; 'I' for Inactive)
REMARK    1  A    between atoms: C_2  and  C_5
REMARK    2  A    between atoms: N_3  and  O_4
REMARK    3  A    between atoms: C_5  and  N_6
REMARK    4  A    between atoms: N_6  and  S_7
REMARK    5  A    between atoms: S_7  and  C_10
REMARK    6  A    between atoms: C_13  and  O_14
REMARK    7  A    between atoms: O_14  and  C_15
REMARK                            x       y       z     vdW  Elec       q    Type
REMARK                         _______ _______ _______ _____ _____    ______ ____
ROOT
ATOM      1  S   UNL     1       2.751   5.667  18.956  0.00  0.00    +0.000 S 
ATOM      2  O   UNL     1       1.947   4.939  18.005  0.00  0.00    +0.000 OA
ATOM      3  O   UNL     1       2.870   5.249  20.336  0.00  0.00    +0.000 OA
ENDROOT
BRANCH   1   4
ATOM      4  C   UNL     1       2.189   7.353  18.998  0.00  0.00    +0.000 A 
ATOM      5  C   UNL     1       1.612   7.879  20.157  0.00  0.00    +0.000 A 
ATOM      6  C   UNL     1       1.182   9.207  20.163  0.00  0.00    +0.000 A 
ATOM      7  C   UNL     1       1.345  10.007  19.027  0.00  0.00    +0.000 A 
ATOM      8  C   UNL     1       1.896   9.462  17.863  0.00  0.00    +0.000 A 
ATOM      9  C   UNL     1       2.352   8.143  17.857  0.00  0.00    +0.000 A 
BRANCH   7  10
ATOM     10  O   UNL     1       0.874  11.295  19.130  0.00  0.00    +0.000 OA
BRANCH  10  11
ATOM     11  C   UNL     1      -0.481  11.535  19.177  0.00  0.00    +0.000 A 
ATOM     12  C   UNL     1      -1.223  11.014  18.110  0.00  0.00    +0.000 A 
ATOM     13  C   UNL     1      -2.605  11.203  18.060  0.00  0.00    +0.000 A 
ATOM     14  C   UNL     1      -3.235  11.911  19.076  0.00  0.00    +0.000 A 
ATOM     15  F   UNL     1      -4.557  12.115  19.017  0.00  0.00    +0.000 F 
ATOM     16  C   UNL     1      -2.515  12.402  20.159  0.00  0.00    +0.000 A 
ATOM     17  C   UNL     1      -1.137  12.190  20.225  0.00  0.00    +0.000 A 
ENDBRANCH  10  11
ENDBRANCH   7  10
ENDBRANCH   1   4
BRANCH   1  18
ATOM     18  N   UNL     1       4.337   5.814  18.370  0.00  0.00    +0.000 NA
ATOM     19  H   UNL     1       4.499   6.719  17.930  0.00  0.00    +0.000 HD
BRANCH  18  20
ATOM     20  C   UNL     1       4.992   4.671  17.661  0.00  0.00    +0.000 C 
ATOM     21  C   UNL     1       6.521   4.891  17.730  0.00  0.00    +0.000 C 
ATOM     22  C   UNL     1       6.880   5.776  16.543  0.00  0.00    +0.000 C 
ATOM     23  C   UNL     1       5.767   5.598  15.522  0.00  0.00    +0.000 C 
ATOM     24  C   UNL     1       4.727   4.676  16.157  0.00  0.00    +0.000 C 
BRANCH  20  26
ATOM     25  O   UNL     1       3.909   2.480  17.821  0.00  0.00    +0.000 OA
ATOM     26  C   UNL     1       4.663   3.317  18.319  0.00  0.00    +0.000 C 
ATOM     27  N   UNL     1       5.302   3.088  19.513  0.00  0.00    +0.000 N 
ATOM     28  H   UNL     1       5.928   3.735  19.983  0.00  0.00    +0.000 HD
BRANCH  27  29
ATOM     29  O   UNL     1       4.970   1.892  20.186  0.00  0.00    +0.000 OA
ATOM     30  H   UNL     1       4.102   2.118  20.589  0.00  0.00    +0.000 HD
ENDBRANCH  27  29
ENDBRANCH  20  26
ENDBRANCH  18  20
ENDBRANCH   1  18
TORSDOF 7
ENDMDL
