MODEL 1
REMARK VINA RESULT:      -8.5      0.000      0.000
REMARK  Name = 
REMARK  5 active torsions:
REMARK  status: ('A' for Active; 'I' for Inactive)
REMARK    1  A    between atoms: C_2  and  C_3
REMARK    2  A    between atoms: C_3  and  N_4
REMARK    3  A    between atoms: N_18  and  C_19
REMARK    4  A    between atoms: C_19  and  C_20
REMARK    5  A    between atoms: C_20  and  C_21
REMARK                            x       y       z     vdW  Elec       q    Type
REMARK                         _______ _______ _______ _____ _____    ______ ____
ROOT
ATOM      1  N   UNL     1       6.326   5.256  17.769  0.00  0.00    +0.000 N 
ATOM      2  N   UNL     1       5.539   4.838  16.694  0.00  0.00    +0.000 NA
ATOM      3  C   UNL     1       4.379   4.298  16.939  0.00  0.00    +0.000 A 
ATOM      4  N   UNL     1       3.911   4.142  18.238  0.00  0.00    +0.000 N 
ATOM      5  C   UNL     1       4.657   4.547  19.309  0.00  0.00    +0.000 A 
ATOM      6  C   UNL     1       3.937   4.304  20.455  0.00  0.00    +0.000 A 
ATOM      7  C   UNL     1       2.709   3.710  20.071  0.00  0.00    +0.000 A 
ATOM      8  C   UNL     1       1.594   3.249  20.795  0.00  0.00    +0.000 A 
ATOM      9  C   UNL     1       0.514   2.685  20.112  0.00  0.00    +0.000 A 
ATOM     10  C   UNL     1       0.537   2.578  18.724  0.00  0.00    +0.000 A 
ATOM     11  C   UNL     1       1.631   3.033  17.979  0.00  0.00    +0.000 A 
ATOM     12  C   UNL     1       2.712   3.602  18.674  0.00  0.00    +0.000 A 
ATOM     13  C   UNL     1       5.959   5.112  19.116  0.00  0.00    +0.000 A 
ATOM     14  O   UNL     1       6.707   5.427  20.041  0.00  0.00    +0.000 OA
ENDROOT
BRANCH   1  15
ATOM     15  C   UNL     1       7.611   5.871  17.444  0.00  0.00    +0.000 C 
BRANCH  15  17
ATOM     16  O   UNL     1       6.641   7.965  16.722  0.00  0.00    +0.000 OA
ATOM     17  C   UNL     1       7.517   7.395  17.373  0.00  0.00    +0.000 C 
ATOM     18  N   UNL     1       8.408   8.081  18.177  0.00  0.00    +0.000 N 
ATOM     19  H   UNL     1       8.967   7.550  18.842  0.00  0.00    +0.000 HD
BRANCH  18  20
ATOM     20  C   UNL     1       8.374   9.530  18.264  0.00  0.00    +0.000 C 
BRANCH  20  21
ATOM     21  C   UNL     1       9.211  10.064  19.429  0.00  0.00    +0.000 C 
BRANCH  21  22
ATOM     22  C   UNL     1      10.171  11.167  19.032  0.00  0.00    +0.000 C 
ATOM     23  C   UNL     1      10.218  11.645  17.773  0.00  0.00    +0.000 C 
ATOM     24  C   UNL     1      11.151  12.738  17.331  0.00  0.00    +0.000 C 
ATOM     25  C   UNL     1      12.275  13.012  18.331  0.00  0.00    +0.000 C 
ATOM     26  C   UNL     1      11.736  13.049  19.756  0.00  0.00    +0.000 C 
ATOM     27  C   UNL     1      11.052  11.730  20.126  0.00  0.00    +0.000 C 
ENDBRANCH  21  22
ENDBRANCH  20  21
ENDBRANCH  18  20
ENDBRANCH  15  17
ENDBRANCH   1  15
TORSDOF 5
ENDMDL
MODEL 2
REMARK VINA RESULT:      -8.2      1.469      1.858
REMARK  Name = 
REMARK  5 active torsions:
REMARK  status: ('A' for Active; 'I' for Inactive)
REMARK    1  A    between atoms: C_2  and  C_3
REMARK    2  A    between atoms: C_3  and  N_4
REMARK    3  A    between atoms: N_18  and  C_19
REMARK    4  A    between atoms: C_19  and  C_20
REMARK    5  A    between atoms: C_20  and  C_21
REMARK                            x       y       z     vdW  Elec       q    Type
REMARK                         _______ _______ _______ _____ _____    ______ ____
ROOT
ATOM      1  N   UNL     1       6.079   6.278  17.641  0.00  0.00    +0.000 N 
ATOM      2  N   UNL     1       4.863   6.962  17.576  0.00  0.00    +0.000 NA
ATOM      3  C   UNL     1       3.808   6.416  18.113  0.00  0.00    +0.000 A 
ATOM      4  N   UNL     1       3.874   5.184  18.751  0.00  0.00    +0.000 N 
ATOM      5  C   UNL     1       5.051   4.496  18.835  0.00  0.00    +0.000 A 
ATOM      6  C   UNL     1       4.828   3.339  19.543  0.00  0.00    +0.000 A 
ATOM      7  C   UNL     1       3.453   3.310  19.892  0.00  0.00    +0.000 A 
ATOM      8  C   UNL     1       2.659   2.390  20.601  0.00  0.00    +0.000 A 
ATOM      9  C   UNL     1       1.296   2.644  20.770  0.00  0.00    +0.000 A 
ATOM     10  C   UNL     1       0.724   3.799  20.243  0.00  0.00    +0.000 A 
ATOM     11  C   UNL     1       1.492   4.733  19.539  0.00  0.00    +0.000 A 
ATOM     12  C   UNL     1       2.864   4.471  19.376  0.00  0.00    +0.000 A 
ATOM     13  C   UNL     1       6.242   5.016  18.233  0.00  0.00    +0.000 A 
ATOM     14  O   UNL     1       7.313   4.410  18.210  0.00  0.00    +0.000 OA
ENDROOT
BRANCH   1  15
ATOM     15  C   UNL     1       7.237   6.937  17.041  0.00  0.00    +0.000 C 
BRANCH  15  17
ATOM     16  O   UNL     1       8.605   7.317  18.997  0.00  0.00    +0.000 OA
ATOM     17  C   UNL     1       7.991   7.805  18.048  0.00  0.00    +0.000 C 
ATOM     18  N   UNL     1       8.027   9.155  17.756  0.00  0.00    +0.000 N 
ATOM     19  H   UNL     1       7.674   9.465  16.853  0.00  0.00    +0.000 HD
BRANCH  18  20
ATOM     20  C   UNL     1       8.776  10.080  18.589  0.00  0.00    +0.000 C 
BRANCH  20  21
ATOM     21  C   UNL     1       9.921  10.754  17.829  0.00  0.00    +0.000 C 
BRANCH  21  22
ATOM     22  C   UNL     1      10.322  12.098  18.402  0.00  0.00    +0.000 C 
ATOM     23  C   UNL     1      11.429  12.243  19.158  0.00  0.00    +0.000 C 
ATOM     24  C   UNL     1      11.870  13.554  19.747  0.00  0.00    +0.000 C 
ATOM     25  C   UNL     1      10.781  14.626  19.714  0.00  0.00    +0.000 C 
ATOM     26  C   UNL     1      10.071  14.638  18.364  0.00  0.00    +0.000 C 
ATOM     27  C   UNL     1       9.440  13.277  18.057  0.00  0.00    +0.000 C 
ENDBRANCH  21  22
ENDBRANCH  20  21
ENDBRANCH  18  20
ENDBRANCH  15  17
ENDBRANCH   1  15
TORSDOF 5
ENDMDL
MODEL 3
REMARK VINA RESULT:      -8.1      4.287      6.620
REMARK  Name = 
REMARK  5 active torsions:
REMARK  status: ('A' for Active; 'I' for Inactive)
REMARK    1  A    between atoms: C_2  and  C_3
REMARK    2  A    between atoms: C_3  and  N_4
REMARK    3  A    between atoms: N_18  and  C_19
REMARK    4  A    between atoms: C_19  and  C_20
REMARK    5  A    between atoms: C_20  and  C_21
REMARK                            x       y       z     vdW  Elec       q    Type
REMARK                         _______ _______ _______ _____ _____    ______ ____
ROOT
ATOM      1  N   UNL     1       2.708   5.616  19.121  0.00  0.00    +0.000 N 
ATOM      2  N   UNL     1       2.877   6.437  18.003  0.00  0.00    +0.000 NA
ATOM      3  C   UNL     1       2.443   7.664  18.055  0.00  0.00    +0.000 A 
ATOM      4  N   UNL     1       1.830   8.169  19.194  0.00  0.00    +0.000 N 
ATOM      5  C   UNL     1       1.657   7.392  20.305  0.00  0.00    +0.000 A 
ATOM      6  C   UNL     1       1.061   8.156  21.280  0.00  0.00    +0.000 A 
ATOM      7  C   UNL     1       0.846   9.449  20.739  0.00  0.00    +0.000 A 
ATOM      8  C   UNL     1       0.280  10.628  21.258  0.00  0.00    +0.000 A 
ATOM      9  C   UNL     1       0.194  11.764  20.450  0.00  0.00    +0.000 A 
ATOM     10  C   UNL     1       0.666  11.734  19.140  0.00  0.00    +0.000 A 
ATOM     11  C   UNL     1       1.238  10.576  18.601  0.00  0.00    +0.000 A 
ATOM     12  C   UNL     1       1.323   9.438  19.422  0.00  0.00    +0.000 A 
ATOM     13  C   UNL     1       2.073   6.022  20.305  0.00  0.00    +0.000 A 
ATOM     14  O   UNL     1       1.877   5.252  21.245  0.00  0.00    +0.000 OA
ENDROOT
BRANCH   1  15
ATOM     15  C   UNL     1       3.227   4.254  19.021  0.00  0.00    +0.000 C 
BRANCH  15  17
ATOM     16  O   UNL     1       5.291   3.105  19.533  0.00  0.00    +0.000 OA
ATOM     17  C   UNL     1       4.714   4.179  19.366  0.00  0.00    +0.000 C 
ATOM     18  N   UNL     1       5.384   5.388  19.366  0.00  0.00    +0.000 N 
ATOM     19  H   UNL     1       4.895   6.212  19.022  0.00  0.00    +0.000 HD
BRANCH  18  20
ATOM     20  C   UNL     1       6.816   5.449  19.601  0.00  0.00    +0.000 C 
BRANCH  20  21
ATOM     21  C   UNL     1       7.584   5.975  18.387  0.00  0.00    +0.000 C 
BRANCH  21  22
ATOM     22  C   UNL     1       6.883   5.720  17.068  0.00  0.00    +0.000 C 
ATOM     23  C   UNL     1       5.997   6.597  16.556  0.00  0.00    +0.000 C 
ATOM     24  C   UNL     1       5.278   6.390  15.252  0.00  0.00    +0.000 C 
ATOM     25  C   UNL     1       5.367   4.954  14.736  0.00  0.00    +0.000 C 
ATOM     26  C   UNL     1       6.785   4.414  14.877  0.00  0.00    +0.000 C 
ATOM     27  C   UNL     1       7.251   4.448  16.335  0.00  0.00    +0.000 C 
ENDBRANCH  21  22
ENDBRANCH  20  21
ENDBRANCH  18  20
ENDBRANCH  15  17
ENDBRANCH   1  15
TORSDOF 5
ENDMDL
MODEL 4
REMARK VINA RESULT:      -8.1      5.317      8.750
REMARK  Name = 
REMARK  5 active torsions:
REMARK  status: ('A' for Active; 'I' for Inactive)
REMARK    1  A    between atoms: C_2  and  C_3
REMARK    2  A    between atoms: C_3  and  N_4
REMARK    3  A    between atoms: N_18  and  C_19
REMARK    4  A    between atoms: C_19  and  C_20
REMARK    5  A    between atoms: C_20  and  C_21
REMARK                            x       y       z     vdW  Elec       q    Type
REMARK                         _______ _______ _______ _____ _____    ______ ____
ROOT
ATOM      1  N   UNL     1       2.474   7.834  18.504  0.00  0.00    +0.000 N 
ATOM      2  N   UNL     1       2.279   7.113  19.684  0.00  0.00    +0.000 NA
ATOM      3  C   UNL     1       1.576   7.652  20.640  0.00  0.00    +0.000 A 
ATOM      4  N   UNL     1       1.014   8.915  20.503  0.00  0.00    +0.000 N 
ATOM      5  C   UNL     1       1.183   9.641  19.357  0.00  0.00    +0.000 A 
ATOM      6  C   UNL     1       0.494  10.824  19.488  0.00  0.00    +0.000 A 
ATOM      7  C   UNL     1      -0.106  10.829  20.773  0.00  0.00    +0.000 A 
ATOM      8  C   UNL     1      -0.913  11.758  21.454  0.00  0.00    +0.000 A 
ATOM      9  C   UNL     1      -1.347  11.473  22.751  0.00  0.00    +0.000 A 
ATOM     10  C   UNL     1      -0.986  10.277  23.367  0.00  0.00    +0.000 A 
ATOM     11  C   UNL     1      -0.190   9.333  22.710  0.00  0.00    +0.000 A 
ATOM     12  C   UNL     1       0.240   9.627  21.404  0.00  0.00    +0.000 A 
ATOM     13  C   UNL     1       1.977   9.127  18.282  0.00  0.00    +0.000 A 
ATOM     14  O   UNL     1       2.226   9.763  17.258  0.00  0.00    +0.000 OA
ENDROOT
BRANCH   1  15
ATOM     15  C   UNL     1       3.254   7.180  17.456  0.00  0.00    +0.000 C 
BRANCH  15  17
ATOM     16  O   UNL     1       4.406   5.866  19.126  0.00  0.00    +0.000 OA
ATOM     17  C   UNL     1       3.986   5.942  17.971  0.00  0.00    +0.000 C 
ATOM     18  N   UNL     1       4.043   4.878  17.090  0.00  0.00    +0.000 N 
ATOM     19  H   UNL     1       3.501   4.933  16.230  0.00  0.00    +0.000 HD
BRANCH  18  20
ATOM     20  C   UNL     1       4.642   3.614  17.481  0.00  0.00    +0.000 C 
BRANCH  20  21
ATOM     21  C   UNL     1       3.594   2.536  17.765  0.00  0.00    +0.000 C 
BRANCH  21  22
ATOM     22  C   UNL     1       2.842   2.746  19.064  0.00  0.00    +0.000 C 
ATOM     23  C   UNL     1       3.411   2.495  20.260  0.00  0.00    +0.000 C 
ATOM     24  C   UNL     1       2.708   2.689  21.575  0.00  0.00    +0.000 C 
ATOM     25  C   UNL     1       1.195   2.853  21.430  0.00  0.00    +0.000 C 
ATOM     26  C   UNL     1       0.858   3.796  20.280  0.00  0.00    +0.000 C 
ATOM     27  C   UNL     1       1.432   3.284  18.956  0.00  0.00    +0.000 C 
ENDBRANCH  21  22
ENDBRANCH  20  21
ENDBRANCH  18  20
ENDBRANCH  15  17
ENDBRANCH   1  15
TORSDOF 5
ENDMDL
MODEL 5
REMARK VINA RESULT:      -8.1      1.350      1.939
REMARK  Name = 
REMARK  5 active torsions:
REMARK  status: ('A' for Active; 'I' for Inactive)
REMARK    1  A    between atoms: C_2  and  C_3
REMARK    2  A    between atoms: C_3  and  N_4
REMARK    3  A    between atoms: N_18  and  C_19
REMARK    4  A    between atoms: C_19  and  C_20
REMARK    5  A    between atoms: C_20  and  C_21
REMARK                            x       y       z     vdW  Elec       q    Type
REMARK                         _______ _______ _______ _____ _____    ______ ____
ROOT
ATOM      1  N   UNL     1       5.980   6.019  17.863  0.00  0.00    +0.000 N 
ATOM      2  N   UNL     1       6.461   5.004  18.693  0.00  0.00    +0.000 NA
ATOM      3  C   UNL     1       5.607   4.293  19.373  0.00  0.00    +0.000 A 
ATOM      4  N   UNL     1       4.239   4.517  19.280  0.00  0.00    +0.000 N 
ATOM      5  C   UNL     1       3.740   5.499  18.471  0.00  0.00    +0.000 A 
ATOM      6  C   UNL     1       2.367   5.470  18.550  0.00  0.00    +0.000 A 
ATOM      7  C   UNL     1       2.014   4.439  19.458  0.00  0.00    +0.000 A 
ATOM      8  C   UNL     1       0.780   3.954  19.930  0.00  0.00    +0.000 A 
ATOM      9  C   UNL     1       0.760   2.909  20.857  0.00  0.00    +0.000 A 
ATOM     10  C   UNL     1       1.952   2.347  21.310  0.00  0.00    +0.000 A 
ATOM     11  C   UNL     1       3.191   2.807  20.852  0.00  0.00    +0.000 A 
ATOM     12  C   UNL     1       3.202   3.857  19.918  0.00  0.00    +0.000 A 
ATOM     13  C   UNL     1       4.622   6.346  17.726  0.00  0.00    +0.000 A 
ATOM     14  O   UNL     1       4.237   7.293  17.040  0.00  0.00    +0.000 OA
ENDROOT
BRANCH   1  15
ATOM     15  C   UNL     1       6.975   6.777  17.108  0.00  0.00    +0.000 C 
BRANCH  15  17
ATOM     16  O   UNL     1       8.523   7.109  18.934  0.00  0.00    +0.000 OA
ATOM     17  C   UNL     1       7.874   7.613  18.019  0.00  0.00    +0.000 C 
ATOM     18  N   UNL     1       7.992   8.946  17.672  0.00  0.00    +0.000 N 
ATOM     19  H   UNL     1       7.592   9.253  16.787  0.00  0.00    +0.000 HD
BRANCH  18  20
ATOM     20  C   UNL     1       8.875   9.834  18.406  0.00  0.00    +0.000 C 
BRANCH  20  21
ATOM     21  C   UNL     1       8.720  11.296  17.978  0.00  0.00    +0.000 C 
BRANCH  21  22
ATOM     22  C   UNL     1       9.907  12.164  18.343  0.00  0.00    +0.000 C 
ATOM     23  C   UNL     1      10.764  12.621  17.407  0.00  0.00    +0.000 C 
ATOM     24  C   UNL     1      11.953  13.486  17.718  0.00  0.00    +0.000 C 
ATOM     25  C   UNL     1      12.309  13.510  19.204  0.00  0.00    +0.000 C 
ATOM     26  C   UNL     1      11.057  13.662  20.060  0.00  0.00    +0.000 C 
ATOM     27  C   UNL     1      10.066  12.523  19.804  0.00  0.00    +0.000 C 
ENDBRANCH  21  22
ENDBRANCH  20  21
ENDBRANCH  18  20
ENDBRANCH  15  17
ENDBRANCH   1  15
TORSDOF 5
ENDMDL
MODEL 6
REMARK VINA RESULT:      -8.0      3.955      6.203
REMARK  Name = 
REMARK  5 active torsions:
REMARK  status: ('A' for Active; 'I' for Inactive)
REMARK    1  A    between atoms: C_2  and  C_3
REMARK    2  A    between atoms: C_3  and  N_4
REMARK    3  A    between atoms: N_18  and  C_19
REMARK    4  A    between atoms: C_19  and  C_20
REMARK    5  A    between atoms: C_20  and  C_21
REMARK                            x       y       z     vdW  Elec       q    Type
REMARK                         _______ _______ _______ _____ _____    ______ ____
ROOT
ATOM      1  N   UNL     1       2.886   4.993  19.235  0.00  0.00    +0.000 N 
ATOM      2  N   UNL     1       3.153   5.724  18.075  0.00  0.00    +0.000 NA
ATOM      3  C   UNL     1       2.769   6.968  18.016  0.00  0.00    +0.000 A 
ATOM      4  N   UNL     1       2.116   7.577  19.080  0.00  0.00    +0.000 N 
ATOM      5  C   UNL     1       1.848   6.888  20.229  0.00  0.00    +0.000 A 
ATOM      6  C   UNL     1       1.232   7.743  21.113  0.00  0.00    +0.000 A 
ATOM      7  C   UNL     1       1.103   9.001  20.472  0.00  0.00    +0.000 A 
ATOM      8  C   UNL     1       0.561  10.235  20.874  0.00  0.00    +0.000 A 
ATOM      9  C   UNL     1       0.569  11.313  19.986  0.00  0.00    +0.000 A 
ATOM     10  C   UNL     1       1.111  11.172  18.711  0.00  0.00    +0.000 A 
ATOM     11  C   UNL     1       1.662   9.957  18.288  0.00  0.00    +0.000 A 
ATOM     12  C   UNL     1       1.652   8.878  19.189  0.00  0.00    +0.000 A 
ATOM     13  C   UNL     1       2.205   5.507  20.348  0.00  0.00    +0.000 A 
ATOM     14  O   UNL     1       1.923   4.814  21.327  0.00  0.00    +0.000 OA
ENDROOT
BRANCH   1  15
ATOM     15  C   UNL     1       3.351   3.609  19.260  0.00  0.00    +0.000 C 
BRANCH  15  17
ATOM     16  O   UNL     1       2.994   2.431  17.179  0.00  0.00    +0.000 OA
ATOM     17  C   UNL     1       3.751   3.111  17.871  0.00  0.00    +0.000 C 
ATOM     18  N   UNL     1       4.969   3.571  17.406  0.00  0.00    +0.000 N 
ATOM     19  H   UNL     1       5.451   4.290  17.941  0.00  0.00    +0.000 HD
BRANCH  18  20
ATOM     20  C   UNL     1       5.434   3.237  16.071  0.00  0.00    +0.000 C 
BRANCH  20  21
ATOM     21  C   UNL     1       6.570   4.150  15.604  0.00  0.00    +0.000 C 
BRANCH  21  22
ATOM     22  C   UNL     1       6.973   5.191  16.629  0.00  0.00    +0.000 C 
ATOM     23  C   UNL     1       6.630   6.487  16.493  0.00  0.00    +0.000 C 
ATOM     24  C   UNL     1       7.004   7.556  17.483  0.00  0.00    +0.000 C 
ATOM     25  C   UNL     1       8.095   7.118  18.459  0.00  0.00    +0.000 C 
ATOM     26  C   UNL     1       7.825   5.710  18.978  0.00  0.00    +0.000 C 
ATOM     27  C   UNL     1       7.750   4.700  17.830  0.00  0.00    +0.000 C 
ENDBRANCH  21  22
ENDBRANCH  20  21
ENDBRANCH  18  20
ENDBRANCH  15  17
ENDBRANCH   1  15
TORSDOF 5
ENDMDL
MODEL 7
REMARK VINA RESULT:      -8.0      4.301      6.665
REMARK  Name = 
REMARK  5 active torsions:
REMARK  status: ('A' for Active; 'I' for Inactive)
REMARK    1  A    between atoms: C_2  and  C_3
REMARK    2  A    between atoms: C_3  and  N_4
REMARK    3  A    between atoms: N_18  and  C_19
REMARK    4  A    between atoms: C_19  and  C_20
REMARK    5  A    between atoms: C_20  and  C_21
REMARK                            x       y       z     vdW  Elec       q    Type
REMARK                         _______ _______ _______ _____ _____    ______ ____
ROOT
ATOM      1  N   UNL     1       2.756   5.579  19.112  0.00  0.00    +0.000 N 
ATOM      2  N   UNL     1       2.977   6.413  18.014  0.00  0.00    +0.000 NA
ATOM      3  C   UNL     1       2.555   7.644  18.067  0.00  0.00    +0.000 A 
ATOM      4  N   UNL     1       1.905   8.141  19.189  0.00  0.00    +0.000 N 
ATOM      5  C   UNL     1       1.681   7.350  20.281  0.00  0.00    +0.000 A 
ATOM      6  C   UNL     1       1.058   8.107  21.245  0.00  0.00    +0.000 A 
ATOM      7  C   UNL     1       0.878   9.410  20.715  0.00  0.00    +0.000 A 
ATOM      8  C   UNL     1       0.306  10.588  21.229  0.00  0.00    +0.000 A 
ATOM      9  C   UNL     1       0.264  11.736  20.436  0.00  0.00    +0.000 A 
ATOM     10  C   UNL     1       0.784  11.719  19.144  0.00  0.00    +0.000 A 
ATOM     11  C   UNL     1       1.364  10.563  18.610  0.00  0.00    +0.000 A 
ATOM     12  C   UNL     1       1.404   9.412  19.417  0.00  0.00    +0.000 A 
ATOM     13  C   UNL     1       2.082   5.975  20.277  0.00  0.00    +0.000 A 
ATOM     14  O   UNL     1       1.842   5.194  21.198  0.00  0.00    +0.000 OA
ENDROOT
BRANCH   1  15
ATOM     15  C   UNL     1       3.263   4.212  19.012  0.00  0.00    +0.000 C 
BRANCH  15  17
ATOM     16  O   UNL     1       5.334   3.053  19.471  0.00  0.00    +0.000 OA
ATOM     17  C   UNL     1       4.759   4.130  19.316  0.00  0.00    +0.000 C 
ATOM     18  N   UNL     1       5.435   5.336  19.293  0.00  0.00    +0.000 N 
ATOM     19  H   UNL     1       4.940   6.161  18.959  0.00  0.00    +0.000 HD
BRANCH  18  20
ATOM     20  C   UNL     1       6.873   5.390  19.488  0.00  0.00    +0.000 C 
BRANCH  20  21
ATOM     21  C   UNL     1       7.608   5.929  18.259  0.00  0.00    +0.000 C 
BRANCH  21  22
ATOM     22  C   UNL     1       6.990   5.499  16.944  0.00  0.00    +0.000 C 
ATOM     23  C   UNL     1       7.214   4.276  16.424  0.00  0.00    +0.000 C 
ATOM     24  C   UNL     1       6.623   3.802  15.125  0.00  0.00    +0.000 C 
ATOM     25  C   UNL     1       6.042   4.934  14.279  0.00  0.00    +0.000 C 
ATOM     26  C   UNL     1       5.227   5.893  15.140  0.00  0.00    +0.000 C 
ATOM     27  C   UNL     1       6.081   6.496  16.259  0.00  0.00    +0.000 C 
ENDBRANCH  21  22
ENDBRANCH  20  21
ENDBRANCH  18  20
ENDBRANCH  15  17
ENDBRANCH   1  15
TORSDOF 5
ENDMDL
MODEL 8
REMARK VINA RESULT:      -8.0      5.834      8.686
REMARK  Name = 
REMARK  5 active torsions:
REMARK  status: ('A' for Active; 'I' for Inactive)
REMARK    1  A    between atoms: C_2  and  C_3
REMARK    2  A    between atoms: C_3  and  N_4
REMARK    3  A    between atoms: N_18  and  C_19
REMARK    4  A    between atoms: C_19  and  C_20
REMARK    5  A    between atoms: C_20  and  C_21
REMARK                            x       y       z     vdW  Elec       q    Type
REMARK                         _______ _______ _______ _____ _____    ______ ____
ROOT
ATOM      1  N   UNL     1       1.971   7.051  20.187  0.00  0.00    +0.000 N 
ATOM      2  N   UNL     1       2.281   8.010  19.220  0.00  0.00    +0.000 NA
ATOM      3  C   UNL     1       3.035   7.666  18.215  0.00  0.00    +0.000 A 
ATOM      4  N   UNL     1       3.522   6.372  18.083  0.00  0.00    +0.000 N 
ATOM      5  C   UNL     1       3.229   5.411  19.010  0.00  0.00    +0.000 A 
ATOM      6  C   UNL     1       3.809   4.230  18.609  0.00  0.00    +0.000 A 
ATOM      7  C   UNL     1       4.499   4.484  17.396  0.00  0.00    +0.000 A 
ATOM      8  C   UNL     1       5.265   3.675  16.537  0.00  0.00    +0.000 A 
ATOM      9  C   UNL     1       5.843   4.235  15.395  0.00  0.00    +0.000 A 
ATOM     10  C   UNL     1       5.661   5.585  15.105  0.00  0.00    +0.000 A 
ATOM     11  C   UNL     1       4.899   6.411  15.939  0.00  0.00    +0.000 A 
ATOM     12  C   UNL     1       4.319   5.838  17.084  0.00  0.00    +0.000 A 
ATOM     13  C   UNL     1       2.440   5.729  20.162  0.00  0.00    +0.000 A 
ATOM     14  O   UNL     1       2.206   4.928  21.066  0.00  0.00    +0.000 OA
ENDROOT
BRANCH   1  15
ATOM     15  C   UNL     1       1.108   7.480  21.286  0.00  0.00    +0.000 C 
BRANCH  15  17
ATOM     16  O   UNL     1       1.536   9.755  21.983  0.00  0.00    +0.000 OA
ATOM     17  C   UNL     1       0.877   8.991  21.279  0.00  0.00    +0.000 C 
ATOM     18  N   UNL     1      -0.041   9.444  20.350  0.00  0.00    +0.000 N 
ATOM     19  H   UNL     1      -0.400   8.785  19.662  0.00  0.00    +0.000 HD
BRANCH  18  20
ATOM     20  C   UNL     1      -0.298  10.864  20.185  0.00  0.00    +0.000 C 
BRANCH  20  21
ATOM     21  C   UNL     1      -0.328  11.284  18.713  0.00  0.00    +0.000 C 
BRANCH  21  22
ATOM     22  C   UNL     1      -1.667  11.052  18.043  0.00  0.00    +0.000 C 
ATOM     23  C   UNL     1      -1.812  10.166  17.037  0.00  0.00    +0.000 C 
ATOM     24  C   UNL     1      -3.118   9.900  16.342  0.00  0.00    +0.000 C 
ATOM     25  C   UNL     1      -4.180  10.962  16.628  0.00  0.00    +0.000 C 
ATOM     26  C   UNL     1      -4.205  11.320  18.110  0.00  0.00    +0.000 C 
ATOM     27  C   UNL     1      -2.843  11.839  18.579  0.00  0.00    +0.000 C 
ENDBRANCH  21  22
ENDBRANCH  20  21
ENDBRANCH  18  20
ENDBRANCH  15  17
ENDBRANCH   1  15
TORSDOF 5
ENDMDL
MODEL 9
REMARK VINA RESULT:      -8.0      5.740      8.577
REMARK  Name = 
REMARK  5 active torsions:
REMARK  status: ('A' for Active; 'I' for Inactive)
REMARK    1  A    between atoms: C_2  and  C_3
REMARK    2  A    between atoms: C_3  and  N_4
REMARK    3  A    between atoms: N_18  and  C_19
REMARK    4  A    between atoms: C_19  and  C_20
REMARK    5  A    between atoms: C_20  and  C_21
REMARK                            x       y       z     vdW  Elec       q    Type
REMARK                         _______ _______ _______ _____ _____    ______ ____
ROOT
ATOM      1  N   UNL     1       1.880   6.976  20.251  0.00  0.00    +0.000 N 
ATOM      2  N   UNL     1       2.182   7.957  19.303  0.00  0.00    +0.000 NA
ATOM      3  C   UNL     1       2.950   7.641  18.298  0.00  0.00    +0.000 A 
ATOM      4  N   UNL     1       3.459   6.358  18.149  0.00  0.00    +0.000 N 
ATOM      5  C   UNL     1       3.175   5.377  19.057  0.00  0.00    +0.000 A 
ATOM      6  C   UNL     1       3.777   4.213  18.641  0.00  0.00    +0.000 A 
ATOM      7  C   UNL     1       4.472   4.498  17.438  0.00  0.00    +0.000 A 
ATOM      8  C   UNL     1       5.259   3.716  16.573  0.00  0.00    +0.000 A 
ATOM      9  C   UNL     1       5.836   4.305  15.445  0.00  0.00    +0.000 A 
ATOM     10  C   UNL     1       5.635   5.656  15.176  0.00  0.00    +0.000 A 
ATOM     11  C   UNL     1       4.852   6.456  16.017  0.00  0.00    +0.000 A 
ATOM     12  C   UNL     1       4.273   5.854  17.148  0.00  0.00    +0.000 A 
ATOM     13  C   UNL     1       2.371   5.663  20.207  0.00  0.00    +0.000 A 
ATOM     14  O   UNL     1       2.143   4.843  21.097  0.00  0.00    +0.000 OA
ENDROOT
BRANCH   1  15
ATOM     15  C   UNL     1       1.002   7.373  21.349  0.00  0.00    +0.000 C 
BRANCH  15  17
ATOM     16  O   UNL     1       1.675   9.496  22.290  0.00  0.00    +0.000 OA
ATOM     17  C   UNL     1       0.936   8.891  21.513  0.00  0.00    +0.000 C 
ATOM     18  N   UNL     1       0.073   9.542  20.652  0.00  0.00    +0.000 N 
ATOM     19  H   UNL     1      -0.355   9.006  19.899  0.00  0.00    +0.000 HD
BRANCH  18  20
ATOM     20  C   UNL     1      -0.028  10.991  20.649  0.00  0.00    +0.000 C 
BRANCH  20  21
ATOM     21  C   UNL     1      -0.144  11.564  19.234  0.00  0.00    +0.000 C 
BRANCH  21  22
ATOM     22  C   UNL     1      -1.434  11.192  18.533  0.00  0.00    +0.000 C 
ATOM     23  C   UNL     1      -2.587  11.848  18.776  0.00  0.00    +0.000 C 
ATOM     24  C   UNL     1      -3.891  11.517  18.104  0.00  0.00    +0.000 C 
ATOM     25  C   UNL     1      -3.879  10.163  17.397  0.00  0.00    +0.000 C 
ATOM     26  C   UNL     1      -2.588   9.974  16.608  0.00  0.00    +0.000 C 
ATOM     27  C   UNL     1      -1.361  10.071  17.520  0.00  0.00    +0.000 C 
ENDBRANCH  21  22
ENDBRANCH  20  21
ENDBRANCH  18  20
ENDBRANCH  15  17
ENDBRANCH   1  15
TORSDOF 5
ENDMDL
