MODEL 1
REMARK VINA RESULT:      -8.2      0.000      0.000
REMARK  Name = 
REMARK  2 active torsions:
REMARK  status: ('A' for Active; 'I' for Inactive)
REMARK    1  A    between atoms: C_1  and  C_2
REMARK    2  A    between atoms: C_14  and  C_15
REMARK                            x       y       z     vdW  Elec       q    Type
REMARK                         _______ _______ _______ _____ _____    ______ ____
ROOT
ATOM      1  C   UNL     1       6.254   3.499  13.071  0.00  0.00    +0.000 C 
ATOM      2  C   UNL     1       6.095   4.153  14.413  0.00  0.00    +0.000 A 
ATOM      3  C   UNL     1       7.166   4.866  14.996  0.00  0.00    +0.000 A 
ATOM      4  C   UNL     1       7.030   5.495  16.241  0.00  0.00    +0.000 A 
ATOM      5  C   UNL     1       5.810   5.419  16.886  0.00  0.00    +0.000 A 
ATOM      6  C   UNL     1       4.763   4.707  16.309  0.00  0.00    +0.000 A 
ATOM      7  C   UNL     1       4.870   4.067  15.089  0.00  0.00    +0.000 A 
ATOM      8  C   UNL     1       3.586   4.866  17.160  0.00  0.00    +0.000 C 
ATOM      9  O   UNL     1       2.525   4.301  16.964  0.00  0.00    +0.000 OA
ATOM     10  C   UNL     1       3.882   5.941  18.180  0.00  0.00    +0.000 C 
ATOM     11  C   UNL     1       5.425   5.997  18.215  0.00  0.00    +0.000 C 
ATOM     12  C   UNL     1       3.246   7.268  17.695  0.00  0.00    +0.000 C 
ATOM     13  C   UNL     1       2.390   7.717  18.841  0.00  0.00    +0.000 A 
ATOM     14  C   UNL     1       1.627   8.878  18.933  0.00  0.00    +0.000 A 
ATOM     15  C   UNL     1       1.560   9.896  17.835  0.00  0.00    +0.000 C 
ATOM     16  C   UNL     1       0.893   9.083  20.115  0.00  0.00    +0.000 A 
ATOM     17  C   UNL     1       0.928   8.152  21.168  0.00  0.00    +0.000 A 
ATOM     18  C   UNL     1       1.697   6.995  21.063  0.00  0.00    +0.000 A 
ATOM     19  C   UNL     1       2.411   6.806  19.893  0.00  0.00    +0.000 A 
ATOM     20  C   UNL     1       3.303   5.703  19.551  0.00  0.00    +0.000 C 
ATOM     21  O   UNL     1       3.561   4.783  20.306  0.00  0.00    +0.000 OA
ENDROOT
TORSDOF 0
ENDMDL
MODEL 2
REMARK VINA RESULT:      -8.0      2.522      6.776
REMARK  Name = 
REMARK  2 active torsions:
REMARK  status: ('A' for Active; 'I' for Inactive)
REMARK    1  A    between atoms: C_1  and  C_2
REMARK    2  A    between atoms: C_14  and  C_15
REMARK                            x       y       z     vdW  Elec       q    Type
REMARK                         _______ _______ _______ _____ _____    ______ ____
ROOT
ATOM      1  C   UNL     1       1.076   4.434  20.465  0.00  0.00    +0.000 C 
ATOM      2  C   UNL     1       2.391   4.244  19.765  0.00  0.00    +0.000 A 
ATOM      3  C   UNL     1       3.239   3.168  20.107  0.00  0.00    +0.000 A 
ATOM      4  C   UNL     1       4.461   2.968  19.452  0.00  0.00    +0.000 A 
ATOM      5  C   UNL     1       4.818   3.843  18.444  0.00  0.00    +0.000 A 
ATOM      6  C   UNL     1       3.982   4.907  18.120  0.00  0.00    +0.000 A 
ATOM      7  C   UNL     1       2.776   5.137  18.755  0.00  0.00    +0.000 A 
ATOM      8  C   UNL     1       4.563   5.607  16.978  0.00  0.00    +0.000 C 
ATOM      9  O   UNL     1       4.105   6.630  16.502  0.00  0.00    +0.000 OA
ATOM     10  C   UNL     1       5.691   4.762  16.430  0.00  0.00    +0.000 C 
ATOM     11  C   UNL     1       6.066   3.841  17.612  0.00  0.00    +0.000 C 
ATOM     12  C   UNL     1       5.166   3.976  15.203  0.00  0.00    +0.000 C 
ATOM     13  C   UNL     1       6.123   4.314  14.100  0.00  0.00    +0.000 A 
ATOM     14  C   UNL     1       6.122   3.838  12.792  0.00  0.00    +0.000 A 
ATOM     15  C   UNL     1       5.103   2.862  12.283  0.00  0.00    +0.000 C 
ATOM     16  C   UNL     1       7.126   4.308  11.926  0.00  0.00    +0.000 A 
ATOM     17  C   UNL     1       8.098   5.224  12.363  0.00  0.00    +0.000 A 
ATOM     18  C   UNL     1       8.089   5.691  13.676  0.00  0.00    +0.000 A 
ATOM     19  C   UNL     1       7.094   5.222  14.514  0.00  0.00    +0.000 A 
ATOM     20  C   UNL     1       6.884   5.532  15.924  0.00  0.00    +0.000 C 
ATOM     21  O   UNL     1       7.616   6.258  16.574  0.00  0.00    +0.000 OA
ENDROOT
TORSDOF 0
ENDMDL
MODEL 3
REMARK VINA RESULT:      -8.0      2.906      4.569
REMARK  Name = 
REMARK  2 active torsions:
REMARK  status: ('A' for Active; 'I' for Inactive)
REMARK    1  A    between atoms: C_1  and  C_2
REMARK    2  A    between atoms: C_14  and  C_15
REMARK                            x       y       z     vdW  Elec       q    Type
REMARK                         _______ _______ _______ _____ _____    ______ ____
ROOT
ATOM      1  C   UNL     1       8.529  10.218  17.714  0.00  0.00    +0.000 C 
ATOM      2  C   UNL     1       8.045   8.818  17.956  0.00  0.00    +0.000 A 
ATOM      3  C   UNL     1       8.736   7.961  18.842  0.00  0.00    +0.000 A 
ATOM      4  C   UNL     1       8.288   6.657  19.091  0.00  0.00    +0.000 A 
ATOM      5  C   UNL     1       7.136   6.226  18.461  0.00  0.00    +0.000 A 
ATOM      6  C   UNL     1       6.467   7.073  17.582  0.00  0.00    +0.000 A 
ATOM      7  C   UNL     1       6.890   8.359  17.307  0.00  0.00    +0.000 A 
ATOM      8  C   UNL     1       5.255   6.392  17.135  0.00  0.00    +0.000 C 
ATOM      9  O   UNL     1       4.490   6.843  16.301  0.00  0.00    +0.000 OA
ATOM     10  C   UNL     1       5.062   5.160  17.989  0.00  0.00    +0.000 C 
ATOM     11  C   UNL     1       6.471   4.886  18.559  0.00  0.00    +0.000 C 
ATOM     12  C   UNL     1       4.023   5.483  19.092  0.00  0.00    +0.000 C 
ATOM     13  C   UNL     1       2.980   4.415  18.953  0.00  0.00    +0.000 A 
ATOM     14  C   UNL     1       1.841   4.227  19.731  0.00  0.00    +0.000 A 
ATOM     15  C   UNL     1       1.488   5.118  20.884  0.00  0.00    +0.000 C 
ATOM     16  C   UNL     1       0.998   3.150  19.403  0.00  0.00    +0.000 A 
ATOM     17  C   UNL     1       1.293   2.291  18.329  0.00  0.00    +0.000 A 
ATOM     18  C   UNL     1       2.436   2.490  17.559  0.00  0.00    +0.000 A 
ATOM     19  C   UNL     1       3.254   3.556  17.892  0.00  0.00    +0.000 A 
ATOM     20  C   UNL     1       4.510   3.958  17.267  0.00  0.00    +0.000 C 
ATOM     21  O   UNL     1       5.030   3.353  16.346  0.00  0.00    +0.000 OA
ENDROOT
TORSDOF 0
ENDMDL
MODEL 4
REMARK VINA RESULT:      -7.8      0.902      1.130
REMARK  Name = 
REMARK  2 active torsions:
REMARK  status: ('A' for Active; 'I' for Inactive)
REMARK    1  A    between atoms: C_1  and  C_2
REMARK    2  A    between atoms: C_14  and  C_15
REMARK                            x       y       z     vdW  Elec       q    Type
REMARK                         _______ _______ _______ _____ _____    ______ ____
ROOT
ATOM      1  C   UNL     1       6.134   3.615  14.257  0.00  0.00    +0.000 C 
ATOM      2  C   UNL     1       5.814   4.252  15.578  0.00  0.00    +0.000 A 
ATOM      3  C   UNL     1       6.837   4.822  16.368  0.00  0.00    +0.000 A 
ATOM      4  C   UNL     1       6.553   5.434  17.596  0.00  0.00    +0.000 A 
ATOM      5  C   UNL     1       5.237   5.485  18.017  0.00  0.00    +0.000 A 
ATOM      6  C   UNL     1       4.237   4.913  17.237  0.00  0.00    +0.000 A 
ATOM      7  C   UNL     1       4.487   4.293  16.028  0.00  0.00    +0.000 A 
ATOM      8  C   UNL     1       2.953   5.187  17.878  0.00  0.00    +0.000 C 
ATOM      9  O   UNL     1       1.887   4.755  17.477  0.00  0.00    +0.000 OA
ATOM     10  C   UNL     1       3.181   6.198  18.979  0.00  0.00    +0.000 C 
ATOM     11  C   UNL     1       4.690   6.073  19.283  0.00  0.00    +0.000 C 
ATOM     12  C   UNL     1       2.791   7.600  18.449  0.00  0.00    +0.000 C 
ATOM     13  C   UNL     1       1.801   8.120  19.447  0.00  0.00    +0.000 A 
ATOM     14  C   UNL     1       1.166   9.358  19.456  0.00  0.00    +0.000 A 
ATOM     15  C   UNL     1       1.407  10.403  18.407  0.00  0.00    +0.000 C 
ATOM     16  C   UNL     1       0.262   9.620  20.501  0.00  0.00    +0.000 A 
ATOM     17  C   UNL     1       0.007   8.668  21.503  0.00  0.00    +0.000 A 
ATOM     18  C   UNL     1       0.650   7.432  21.483  0.00  0.00    +0.000 A 
ATOM     19  C   UNL     1       1.534   7.188  20.448  0.00  0.00    +0.000 A 
ATOM     20  C   UNL     1       2.345   5.997  20.217  0.00  0.00    +0.000 C 
ATOM     21  O   UNL     1       2.363   5.036  20.966  0.00  0.00    +0.000 OA
ENDROOT
TORSDOF 0
ENDMDL
MODEL 5
REMARK VINA RESULT:      -7.8      1.129      6.573
REMARK  Name = 
REMARK  2 active torsions:
REMARK  status: ('A' for Active; 'I' for Inactive)
REMARK    1  A    between atoms: C_1  and  C_2
REMARK    2  A    between atoms: C_14  and  C_15
REMARK                            x       y       z     vdW  Elec       q    Type
REMARK                         _______ _______ _______ _____ _____    ______ ____
ROOT
ATOM      1  C   UNL     1       0.362   9.805  22.692  0.00  0.00    +0.000 C 
ATOM      2  C   UNL     1       0.786   9.254  21.362  0.00  0.00    +0.000 A 
ATOM      3  C   UNL     1       0.540   9.976  20.173  0.00  0.00    +0.000 A 
ATOM      4  C   UNL     1       0.943   9.482  18.925  0.00  0.00    +0.000 A 
ATOM      5  C   UNL     1       1.608   8.271  18.880  0.00  0.00    +0.000 A 
ATOM      6  C   UNL     1       1.837   7.562  20.055  0.00  0.00    +0.000 A 
ATOM      7  C   UNL     1       1.442   8.016  21.299  0.00  0.00    +0.000 A 
ATOM      8  C   UNL     1       2.622   6.376  19.720  0.00  0.00    +0.000 C 
ATOM      9  O   UNL     1       2.924   5.511  20.523  0.00  0.00    +0.000 OA
ATOM     10  C   UNL     1       3.101   6.514  18.293  0.00  0.00    +0.000 C 
ATOM     11  C   UNL     1       2.125   7.541  17.678  0.00  0.00    +0.000 C 
ATOM     12  C   UNL     1       4.566   7.018  18.312  0.00  0.00    +0.000 C 
ATOM     13  C   UNL     1       5.320   6.018  17.489  0.00  0.00    +0.000 A 
ATOM     14  C   UNL     1       6.673   6.027  17.161  0.00  0.00    +0.000 A 
ATOM     15  C   UNL     1       7.611   7.106  17.612  0.00  0.00    +0.000 C 
ATOM     16  C   UNL     1       7.161   4.967  16.375  0.00  0.00    +0.000 A 
ATOM     17  C   UNL     1       6.315   3.935  15.933  0.00  0.00    +0.000 A 
ATOM     18  C   UNL     1       4.962   3.938  16.267  0.00  0.00    +0.000 A 
ATOM     19  C   UNL     1       4.498   4.986  17.043  0.00  0.00    +0.000 A 
ATOM     20  C   UNL     1       3.135   5.233  17.500  0.00  0.00    +0.000 C 
ATOM     21  O   UNL     1       2.186   4.524  17.213  0.00  0.00    +0.000 OA
ENDROOT
TORSDOF 0
ENDMDL
MODEL 6
REMARK VINA RESULT:      -6.8      3.198      5.315
REMARK  Name = 
REMARK  2 active torsions:
REMARK  status: ('A' for Active; 'I' for Inactive)
REMARK    1  A    between atoms: C_1  and  C_2
REMARK    2  A    between atoms: C_14  and  C_15
REMARK                            x       y       z     vdW  Elec       q    Type
REMARK                         _______ _______ _______ _____ _____    ______ ____
ROOT
ATOM      1  C   UNL     1       3.901   4.266  18.902  0.00  0.00    +0.000 C 
ATOM      2  C   UNL     1       3.473   5.684  18.659  0.00  0.00    +0.000 A 
ATOM      3  C   UNL     1       3.906   6.379  17.509  0.00  0.00    +0.000 A 
ATOM      4  C   UNL     1       3.502   7.697  17.259  0.00  0.00    +0.000 A 
ATOM      5  C   UNL     1       2.650   8.306  18.161  0.00  0.00    +0.000 A 
ATOM      6  C   UNL     1       2.236   7.617  19.297  0.00  0.00    +0.000 A 
ATOM      7  C   UNL     1       2.625   6.321  19.577  0.00  0.00    +0.000 A 
ATOM      8  C   UNL     1       1.287   8.464  20.016  0.00  0.00    +0.000 C 
ATOM      9  O   UNL     1       0.798   8.174  21.094  0.00  0.00    +0.000 OA
ATOM     10  C   UNL     1       0.924   9.630  19.126  0.00  0.00    +0.000 C 
ATOM     11  C   UNL     1       2.092   9.697  18.117  0.00  0.00    +0.000 C 
ATOM     12  C   UNL     1      -0.435   9.327  18.448  0.00  0.00    +0.000 C 
ATOM     13  C   UNL     1      -1.294  10.511  18.777  0.00  0.00    +0.000 A 
ATOM     14  C   UNL     1      -2.604  10.754  18.375  0.00  0.00    +0.000 A 
ATOM     15  C   UNL     1      -3.376   9.809  17.503  0.00  0.00    +0.000 C 
ATOM     16  C   UNL     1      -3.212  11.942  18.820  0.00  0.00    +0.000 A 
ATOM     17  C   UNL     1      -2.524  12.853  19.640  0.00  0.00    +0.000 A 
ATOM     18  C   UNL     1      -1.213  12.598  20.034  0.00  0.00    +0.000 A 
ATOM     19  C   UNL     1      -0.629  11.425  19.591  0.00  0.00    +0.000 A 
ATOM     20  C   UNL     1       0.727  10.944  19.837  0.00  0.00    +0.000 C 
ATOM     21  O   UNL     1       1.560  11.566  20.472  0.00  0.00    +0.000 OA
ENDROOT
TORSDOF 0
ENDMDL
MODEL 7
REMARK VINA RESULT:      -6.6      2.936      6.396
REMARK  Name = 
REMARK  2 active torsions:
REMARK  status: ('A' for Active; 'I' for Inactive)
REMARK    1  A    between atoms: C_1  and  C_2
REMARK    2  A    between atoms: C_14  and  C_15
REMARK                            x       y       z     vdW  Elec       q    Type
REMARK                         _______ _______ _______ _____ _____    ______ ____
ROOT
ATOM      1  C   UNL     1      -0.315  11.442  18.577  0.00  0.00    +0.000 C 
ATOM      2  C   UNL     1       0.373  10.269  19.213  0.00  0.00    +0.000 A 
ATOM      3  C   UNL     1       0.212  10.001  20.591  0.00  0.00    +0.000 A 
ATOM      4  C   UNL     1       0.834   8.902  21.197  0.00  0.00    +0.000 A 
ATOM      5  C   UNL     1       1.604   8.066  20.410  0.00  0.00    +0.000 A 
ATOM      6  C   UNL     1       1.765   8.343  19.056  0.00  0.00    +0.000 A 
ATOM      7  C   UNL     1       1.174   9.425  18.432  0.00  0.00    +0.000 A 
ATOM      8  C   UNL     1       2.548   7.261  18.464  0.00  0.00    +0.000 C 
ATOM      9  O   UNL     1       2.922   7.247  17.305  0.00  0.00    +0.000 OA
ATOM     10  C   UNL     1       2.651   6.144  19.478  0.00  0.00    +0.000 C 
ATOM     11  C   UNL     1       2.368   6.845  20.824  0.00  0.00    +0.000 C 
ATOM     12  C   UNL     1       1.595   5.065  19.131  0.00  0.00    +0.000 C 
ATOM     13  C   UNL     1       2.377   3.790  19.027  0.00  0.00    +0.000 A 
ATOM     14  C   UNL     1       1.895   2.510  18.768  0.00  0.00    +0.000 A 
ATOM     15  C   UNL     1       0.440   2.219  18.551  0.00  0.00    +0.000 C 
ATOM     16  C   UNL     1       2.830   1.461  18.710  0.00  0.00    +0.000 A 
ATOM     17  C   UNL     1       4.202   1.692  18.906  0.00  0.00    +0.000 A 
ATOM     18  C   UNL     1       4.672   2.978  19.166  0.00  0.00    +0.000 A 
ATOM     19  C   UNL     1       3.741   4.000  19.218  0.00  0.00    +0.000 A 
ATOM     20  C   UNL     1       3.970   5.414  19.497  0.00  0.00    +0.000 C 
ATOM     21  O   UNL     1       5.063   5.882  19.761  0.00  0.00    +0.000 OA
ENDROOT
TORSDOF 0
ENDMDL
MODEL 8
REMARK VINA RESULT:      -6.5      2.502      4.058
REMARK  Name = 
REMARK  2 active torsions:
REMARK  status: ('A' for Active; 'I' for Inactive)
REMARK    1  A    between atoms: C_1  and  C_2
REMARK    2  A    between atoms: C_14  and  C_15
REMARK                            x       y       z     vdW  Elec       q    Type
REMARK                         _______ _______ _______ _____ _____    ______ ____
ROOT
ATOM      1  C   UNL     1       8.645   5.525  13.368  0.00  0.00    +0.000 C 
ATOM      2  C   UNL     1       7.354   5.086  13.996  0.00  0.00    +0.000 A 
ATOM      3  C   UNL     1       6.537   4.125  13.362  0.00  0.00    +0.000 A 
ATOM      4  C   UNL     1       5.336   3.693  13.942  0.00  0.00    +0.000 A 
ATOM      5  C   UNL     1       4.972   4.219  15.168  0.00  0.00    +0.000 A 
ATOM      6  C   UNL     1       5.778   5.174  15.780  0.00  0.00    +0.000 A 
ATOM      7  C   UNL     1       6.961   5.627  15.228  0.00  0.00    +0.000 A 
ATOM      8  C   UNL     1       5.198   5.484  17.084  0.00  0.00    +0.000 C 
ATOM      9  O   UNL     1       5.632   6.340  17.835  0.00  0.00    +0.000 OA
ATOM     10  C   UNL     1       4.113   4.472  17.372  0.00  0.00    +0.000 C 
ATOM     11  C   UNL     1       3.744   3.925  15.976  0.00  0.00    +0.000 C 
ATOM     12  C   UNL     1       4.692   3.382  18.308  0.00  0.00    +0.000 C 
ATOM     13  C   UNL     1       3.748   3.343  19.472  0.00  0.00    +0.000 A 
ATOM     14  C   UNL     1       3.795   2.505  20.583  0.00  0.00    +0.000 A 
ATOM     15  C   UNL     1       4.858   1.464  20.771  0.00  0.00    +0.000 C 
ATOM     16  C   UNL     1       2.795   2.660  21.559  0.00  0.00    +0.000 A 
ATOM     17  C   UNL     1       1.782   3.625  21.422  0.00  0.00    +0.000 A 
ATOM     18  C   UNL     1       1.746   4.457  20.304  0.00  0.00    +0.000 A 
ATOM     19  C   UNL     1       2.738   4.294  19.354  0.00  0.00    +0.000 A 
ATOM     20  C   UNL     1       2.906   5.012  18.095  0.00  0.00    +0.000 C 
ATOM     21  O   UNL     1       2.134   5.867  17.696  0.00  0.00    +0.000 OA
ENDROOT
TORSDOF 0
ENDMDL
MODEL 9
REMARK VINA RESULT:      -6.5      2.864      4.044
REMARK  Name = 
REMARK  2 active torsions:
REMARK  status: ('A' for Active; 'I' for Inactive)
REMARK    1  A    between atoms: C_1  and  C_2
REMARK    2  A    between atoms: C_14  and  C_15
REMARK                            x       y       z     vdW  Elec       q    Type
REMARK                         _______ _______ _______ _____ _____    ______ ____
ROOT
ATOM      1  C   UNL     1       4.836   0.821  19.817  0.00  0.00    +0.000 C 
ATOM      2  C   UNL     1       4.017   1.949  19.260  0.00  0.00    +0.000 A 
ATOM      3  C   UNL     1       2.769   1.697  18.647  0.00  0.00    +0.000 A 
ATOM      4  C   UNL     1       1.985   2.739  18.136  0.00  0.00    +0.000 A 
ATOM      5  C   UNL     1       2.451   4.034  18.259  0.00  0.00    +0.000 A 
ATOM      6  C   UNL     1       3.686   4.273  18.855  0.00  0.00    +0.000 A 
ATOM      7  C   UNL     1       4.487   3.266  19.358  0.00  0.00    +0.000 A 
ATOM      8  C   UNL     1       3.882   5.719  18.923  0.00  0.00    +0.000 C 
ATOM      9  O   UNL     1       4.902   6.249  19.327  0.00  0.00    +0.000 OA
ATOM     10  C   UNL     1       2.574   6.390  18.569  0.00  0.00    +0.000 C 
ATOM     11  C   UNL     1       1.805   5.302  17.789  0.00  0.00    +0.000 C 
ATOM     12  C   UNL     1       1.862   6.803  19.881  0.00  0.00    +0.000 C 
ATOM     13  C   UNL     1       1.588   8.268  19.719  0.00  0.00    +0.000 A 
ATOM     14  C   UNL     1       0.931   9.118  20.603  0.00  0.00    +0.000 A 
ATOM     15  C   UNL     1       0.371   8.651  21.914  0.00  0.00    +0.000 C 
ATOM     16  C   UNL     1       0.799  10.468  20.234  0.00  0.00    +0.000 A 
ATOM     17  C   UNL     1       1.311  10.946  19.014  0.00  0.00    +0.000 A 
ATOM     18  C   UNL     1       1.966  10.084  18.137  0.00  0.00    +0.000 A 
ATOM     19  C   UNL     1       2.090   8.759  18.516  0.00  0.00    +0.000 A 
ATOM     20  C   UNL     1       2.701   7.663  17.772  0.00  0.00    +0.000 C 
ATOM     21  O   UNL     1       3.174   7.785  16.656  0.00  0.00    +0.000 OA
ENDROOT
TORSDOF 0
ENDMDL
