MODEL 1
REMARK VINA RESULT:      -9.0      0.000      0.000
REMARK  Name = 
REMARK  3 active torsions:
REMARK  status: ('A' for Active; 'I' for Inactive)
REMARK    1  A    between atoms: C_2  and  C_3
REMARK    2  A    between atoms: C_3  and  N_4
REMARK    3  A    between atoms: N_9  and  C_10
REMARK                            x       y       z     vdW  Elec       q    Type
REMARK                         _______ _______ _______ _____ _____    ______ ____
ROOT
ATOM      1  N   UNL     1       1.474   7.514  20.255  0.00  0.00    +0.000 N 
ATOM      2  N   UNL     1       0.601   8.164  21.218  0.00  0.00    +0.000 NA
ATOM      3  C   UNL     1       0.353   9.359  20.758  0.00  0.00    +0.000 A 
ATOM      4  N   UNL     1      -0.475  10.344  21.336  0.00  0.00    +0.000 NA
ATOM      5  C   UNL     1      -0.579  11.524  20.785  0.00  0.00    +0.000 A 
ATOM      6  N   UNL     1      -1.364  12.604  21.249  0.00  0.00    +0.000 N 
ATOM      7  C   UNL     1       0.220  11.844  19.538  0.00  0.00    +0.000 A 
ATOM      8  C   UNL     1       0.962  10.848  18.997  0.00  0.00    +0.000 A 
ATOM      9  N   UNL     1       0.997   9.622  19.592  0.00  0.00    +0.000 N 
ATOM     10  C   UNL     1       1.731   8.503  19.261  0.00  0.00    +0.000 A 
ATOM     11  O   UNL     1       2.513   8.408  18.327  0.00  0.00    +0.000 OA
ATOM     12  H   UNL     1      -1.220  13.516  20.805  0.00  0.00    +0.000 HD
ENDROOT
BRANCH   6  13
ATOM     13  C   UNL     1      -2.559  12.618  22.020  0.00  0.00    +0.000 A 
ATOM     14  C   UNL     1      -2.550  12.404  23.395  0.00  0.00    +0.000 A 
ATOM     15  C   UNL     1      -3.731  12.478  24.158  0.00  0.00    +0.000 A 
ATOM     16  C   UNL     1      -4.933  12.775  23.552  0.00  0.00    +0.000 A 
ATOM     17  F   UNL     1      -6.047  12.851  24.291  0.00  0.00    +0.000 F 
ATOM     18  C   UNL     1      -4.991  12.980  22.185  0.00  0.00    +0.000 A 
ATOM     19  C   UNL     1      -3.812  12.906  21.418  0.00  0.00    +0.000 A 
ENDBRANCH   6  13
BRANCH   1  20
ATOM     20  C   UNL     1       2.296   6.221  20.452  0.00  0.00    +0.000 C 
BRANCH  20  22
ATOM     21  O   UNL     1       1.761   4.763  18.554  0.00  0.00    +0.000 OA
ATOM     22  C   UNL     1       2.686   5.195  19.261  0.00  0.00    +0.000 C 
ATOM     23  N   UNL     1       4.059   4.614  19.118  0.00  0.00    +0.000 N 
ATOM     24  C   UNL     1       3.967   3.323  18.329  0.00  0.00    +0.000 C 
ATOM     25  C   UNL     1       4.215   3.479  16.818  0.00  0.00    +0.000 C 
ATOM     26  C   UNL     1       5.609   3.999  16.674  0.00  0.00    +0.000 C 
ATOM     27  C   UNL     1       5.516   5.425  17.244  0.00  0.00    +0.000 A 
ATOM     28  C   UNL     1       6.422   6.301  16.630  0.00  0.00    +0.000 A 
ATOM     29  C   UNL     1       7.510   6.692  17.370  0.00  0.00    +0.000 A 
ATOM     30  C   UNL     1       7.591   6.201  18.676  0.00  0.00    +0.000 A 
ATOM     31  C   UNL     1       6.458   5.576  19.309  0.00  0.00    +0.000 A 
ATOM     32  C   UNL     1       5.237   5.422  18.627  0.00  0.00    +0.000 A 
ENDBRANCH  20  22
ENDBRANCH   1  20
TORSDOF 3
ENDMDL
MODEL 2
REMARK VINA RESULT:      -8.9      4.549     10.473
REMARK  Name = 
REMARK  3 active torsions:
REMARK  status: ('A' for Active; 'I' for Inactive)
REMARK    1  A    between atoms: C_2  and  C_3
REMARK    2  A    between atoms: C_3  and  N_4
REMARK    3  A    between atoms: N_9  and  C_10
REMARK                            x       y       z     vdW  Elec       q    Type
REMARK                         _______ _______ _______ _____ _____    ______ ____
ROOT
ATOM      1  N   UNL     1       2.291   7.046  19.635  0.00  0.00    +0.000 N 
ATOM      2  N   UNL     1       3.319   7.072  18.607  0.00  0.00    +0.000 NA
ATOM      3  C   UNL     1       3.597   5.831  18.319  0.00  0.00    +0.000 A 
ATOM      4  N   UNL     1       4.512   5.361  17.353  0.00  0.00    +0.000 NA
ATOM      5  C   UNL     1       4.729   4.080  17.219  0.00  0.00    +0.000 A 
ATOM      6  N   UNL     1       5.612   3.466  16.301  0.00  0.00    +0.000 N 
ATOM      7  C   UNL     1       4.017   3.098  18.127  0.00  0.00    +0.000 A 
ATOM      8  C   UNL     1       3.114   3.599  19.005  0.00  0.00    +0.000 A 
ATOM      9  N   UNL     1       2.896   4.943  19.069  0.00  0.00    +0.000 N 
ATOM     10  C   UNL     1       2.092   5.665  19.923  0.00  0.00    +0.000 A 
ATOM     11  O   UNL     1       1.392   5.203  20.813  0.00  0.00    +0.000 OA
ATOM     12  H   UNL     1       5.795   2.466  16.422  0.00  0.00    +0.000 HD
ENDROOT
BRANCH   6  13
ATOM     13  C   UNL     1       6.075   3.900  15.029  0.00  0.00    +0.000 A 
ATOM     14  C   UNL     1       7.109   4.822  14.896  0.00  0.00    +0.000 A 
ATOM     15  C   UNL     1       7.599   5.200  13.632  0.00  0.00    +0.000 A 
ATOM     16  C   UNL     1       7.063   4.652  12.486  0.00  0.00    +0.000 A 
ATOM     17  F   UNL     1       7.545   5.013  11.290  0.00  0.00    +0.000 F 
ATOM     18  C   UNL     1       6.024   3.743  12.570  0.00  0.00    +0.000 A 
ATOM     19  C   UNL     1       5.530   3.362  13.833  0.00  0.00    +0.000 A 
ENDBRANCH   6  13
BRANCH   1  20
ATOM     20  C   UNL     1       1.826   8.216  20.530  0.00  0.00    +0.000 C 
BRANCH  20  22
ATOM     21  O   UNL     1      -0.500   8.936  20.824  0.00  0.00    +0.000 OA
ATOM     22  C   UNL     1       0.553   9.163  20.206  0.00  0.00    +0.000 C 
ATOM     23  N   UNL     1       0.548  10.145  19.074  0.00  0.00    +0.000 N 
ATOM     24  C   UNL     1      -0.886  10.433  18.679  0.00  0.00    +0.000 C 
ATOM     25  C   UNL     1      -1.495  11.678  19.348  0.00  0.00    +0.000 C 
ATOM     26  C   UNL     1      -0.661  12.839  18.909  0.00  0.00    +0.000 C 
ATOM     27  C   UNL     1       0.687  12.591  19.606  0.00  0.00    +0.000 A 
ATOM     28  C   UNL     1       1.352  13.787  19.913  0.00  0.00    +0.000 A 
ATOM     29  C   UNL     1       2.453  14.100  19.154  0.00  0.00    +0.000 A 
ATOM     30  C   UNL     1       2.819  13.179  18.169  0.00  0.00    +0.000 A 
ATOM     31  C   UNL     1       2.269  11.848  18.152  0.00  0.00    +0.000 A 
ATOM     32  C   UNL     1       1.330  11.436  19.113  0.00  0.00    +0.000 A 
ENDBRANCH  20  22
ENDBRANCH   1  20
TORSDOF 3
ENDMDL
MODEL 3
REMARK VINA RESULT:      -8.9      4.194     10.935
REMARK  Name = 
REMARK  3 active torsions:
REMARK  status: ('A' for Active; 'I' for Inactive)
REMARK    1  A    between atoms: C_2  and  C_3
REMARK    2  A    between atoms: C_3  and  N_4
REMARK    3  A    between atoms: N_9  and  C_10
REMARK                            x       y       z     vdW  Elec       q    Type
REMARK                         _______ _______ _______ _____ _____    ______ ____
ROOT
ATOM      1  N   UNL     1       2.093   7.337  19.309  0.00  0.00    +0.000 N 
ATOM      2  N   UNL     1       3.083   7.354  18.244  0.00  0.00    +0.000 NA
ATOM      3  C   UNL     1       3.571   6.147  18.163  0.00  0.00    +0.000 A 
ATOM      4  N   UNL     1       4.539   5.675  17.251  0.00  0.00    +0.000 NA
ATOM      5  C   UNL     1       4.976   4.447  17.332  0.00  0.00    +0.000 A 
ATOM      6  N   UNL     1       5.938   3.839  16.494  0.00  0.00    +0.000 N 
ATOM      7  C   UNL     1       4.464   3.537  18.429  0.00  0.00    +0.000 A 
ATOM      8  C   UNL     1       3.500   4.025  19.248  0.00  0.00    +0.000 A 
ATOM      9  N   UNL     1       3.050   5.301  19.088  0.00  0.00    +0.000 N 
ATOM     10  C   UNL     1       2.145   6.017  19.842  0.00  0.00    +0.000 A 
ATOM     11  O   UNL     1       1.552   5.609  20.830  0.00  0.00    +0.000 OA
ATOM     12  H   UNL     1       6.298   2.922  16.777  0.00  0.00    +0.000 HD
ENDROOT
BRANCH   6  13
ATOM     13  C   UNL     1       6.297   4.110  15.144  0.00  0.00    +0.000 A 
ATOM     14  C   UNL     1       7.325   4.990  14.818  0.00  0.00    +0.000 A 
ATOM     15  C   UNL     1       7.711   5.207  13.482  0.00  0.00    +0.000 A 
ATOM     16  C   UNL     1       7.076   4.538  12.457  0.00  0.00    +0.000 A 
ATOM     17  F   UNL     1       7.459   4.747  11.192  0.00  0.00    +0.000 F 
ATOM     18  C   UNL     1       6.038   3.665  12.734  0.00  0.00    +0.000 A 
ATOM     19  C   UNL     1       5.649   3.446  14.070  0.00  0.00    +0.000 A 
ENDBRANCH   6  13
BRANCH   1  20
ATOM     20  C   UNL     1       1.443   8.551  20.008  0.00  0.00    +0.000 C 
BRANCH  20  22
ATOM     21  O   UNL     1       1.270  10.024  18.055  0.00  0.00    +0.000 OA
ATOM     22  C   UNL     1       1.161   9.975  19.291  0.00  0.00    +0.000 C 
ATOM     23  N   UNL     1       0.974  11.243  20.067  0.00  0.00    +0.000 N 
ATOM     24  C   UNL     1       1.301  12.421  19.171  0.00  0.00    +0.000 C 
ATOM     25  C   UNL     1       0.084  13.043  18.463  0.00  0.00    +0.000 C 
ATOM     26  C   UNL     1      -0.822  13.535  19.546  0.00  0.00    +0.000 C 
ATOM     27  C   UNL     1      -1.324  12.239  20.204  0.00  0.00    +0.000 A 
ATOM     28  C   UNL     1      -2.617  12.377  20.728  0.00  0.00    +0.000 A 
ATOM     29  C   UNL     1      -2.732  12.440  22.095  0.00  0.00    +0.000 A 
ATOM     30  C   UNL     1      -1.550  12.329  22.831  0.00  0.00    +0.000 A 
ATOM     31  C   UNL     1      -0.330  11.872  22.216  0.00  0.00    +0.000 A 
ATOM     32  C   UNL     1      -0.282  11.540  20.851  0.00  0.00    +0.000 A 
ENDBRANCH  20  22
ENDBRANCH   1  20
TORSDOF 3
ENDMDL
MODEL 4
REMARK VINA RESULT:      -8.9      1.054      1.494
REMARK  Name = 
REMARK  3 active torsions:
REMARK  status: ('A' for Active; 'I' for Inactive)
REMARK    1  A    between atoms: C_2  and  C_3
REMARK    2  A    between atoms: C_3  and  N_4
REMARK    3  A    between atoms: N_9  and  C_10
REMARK                            x       y       z     vdW  Elec       q    Type
REMARK                         _______ _______ _______ _____ _____    ______ ____
ROOT
ATOM      1  N   UNL     1       1.286   7.755  20.675  0.00  0.00    +0.000 N 
ATOM      2  N   UNL     1       0.404   8.437  21.608  0.00  0.00    +0.000 NA
ATOM      3  C   UNL     1       0.036   9.550  21.036  0.00  0.00    +0.000 A 
ATOM      4  N   UNL     1      -0.847  10.523  21.547  0.00  0.00    +0.000 NA
ATOM      5  C   UNL     1      -1.075  11.622  20.878  0.00  0.00    +0.000 A 
ATOM      6  N   UNL     1      -1.928  12.682  21.264  0.00  0.00    +0.000 N 
ATOM      7  C   UNL     1      -0.362  11.864  19.563  0.00  0.00    +0.000 A 
ATOM      8  C   UNL     1       0.438  10.875  19.095  0.00  0.00    +0.000 A 
ATOM      9  N   UNL     1       0.603   9.730  19.815  0.00  0.00    +0.000 N 
ATOM     10  C   UNL     1       1.414   8.644  19.569  0.00  0.00    +0.000 A 
ATOM     11  O   UNL     1       2.160   8.507  18.610  0.00  0.00    +0.000 OA
ATOM     12  H   UNL     1      -1.882  13.546  20.717  0.00  0.00    +0.000 HD
ENDROOT
BRANCH   6  13
ATOM     13  C   UNL     1      -3.085  12.687  22.092  0.00  0.00    +0.000 A 
ATOM     14  C   UNL     1      -3.001  12.563  23.475  0.00  0.00    +0.000 A 
ATOM     15  C   UNL     1      -4.146  12.628  24.290  0.00  0.00    +0.000 A 
ATOM     16  C   UNL     1      -5.390  12.825  23.728  0.00  0.00    +0.000 A 
ATOM     17  F   UNL     1      -6.470  12.894  24.515  0.00  0.00    +0.000 F 
ATOM     18  C   UNL     1      -5.522  12.939  22.355  0.00  0.00    +0.000 A 
ATOM     19  C   UNL     1      -4.378  12.874  21.536  0.00  0.00    +0.000 A 
ENDBRANCH   6  13
BRANCH   1  20
ATOM     20  C   UNL     1       2.224   6.562  20.968  0.00  0.00    +0.000 C 
BRANCH  20  22
ATOM     21  O   UNL     1       0.866   4.633  20.296  0.00  0.00    +0.000 OA
ATOM     22  C   UNL     1       2.025   5.075  20.359  0.00  0.00    +0.000 C 
ATOM     23  N   UNL     1       3.180   4.166  20.065  0.00  0.00    +0.000 N 
ATOM     24  C   UNL     1       2.690   2.732  20.070  0.00  0.00    +0.000 C 
ATOM     25  C   UNL     1       2.309   2.182  18.684  0.00  0.00    +0.000 C 
ATOM     26  C   UNL     1       3.553   2.233  17.857  0.00  0.00    +0.000 C 
ATOM     27  C   UNL     1       3.793   3.741  17.671  0.00  0.00    +0.000 A 
ATOM     28  C   UNL     1       4.424   4.030  16.453  0.00  0.00    +0.000 A 
ATOM     29  C   UNL     1       5.744   4.409  16.509  0.00  0.00    +0.000 A 
ATOM     30  C   UNL     1       6.318   4.498  17.779  0.00  0.00    +0.000 A 
ATOM     31  C   UNL     1       5.504   4.493  18.968  0.00  0.00    +0.000 A 
ATOM     32  C   UNL     1       4.104   4.379  18.891  0.00  0.00    +0.000 A 
ENDBRANCH  20  22
ENDBRANCH   1  20
TORSDOF 3
ENDMDL
MODEL 5
REMARK VINA RESULT:      -8.8      3.546      5.209
REMARK  Name = 
REMARK  3 active torsions:
REMARK  status: ('A' for Active; 'I' for Inactive)
REMARK    1  A    between atoms: C_2  and  C_3
REMARK    2  A    between atoms: C_3  and  N_4
REMARK    3  A    between atoms: N_9  and  C_10
REMARK                            x       y       z     vdW  Elec       q    Type
REMARK                         _______ _______ _______ _____ _____    ______ ____
ROOT
ATOM      1  N   UNL     1       1.938   8.833  18.309  0.00  0.00    +0.000 N 
ATOM      2  N   UNL     1       1.661  10.151  17.763  0.00  0.00    +0.000 NA
ATOM      3  C   UNL     1       1.223  10.885  18.749  0.00  0.00    +0.000 A 
ATOM      4  N   UNL     1       0.858  12.247  18.706  0.00  0.00    +0.000 NA
ATOM      5  C   UNL     1       0.377  12.834  19.769  0.00  0.00    +0.000 A 
ATOM      6  N   UNL     1      -0.031  14.183  19.875  0.00  0.00    +0.000 N 
ATOM      7  C   UNL     1       0.183  12.039  21.044  0.00  0.00    +0.000 A 
ATOM      8  C   UNL     1       0.595  10.747  21.045  0.00  0.00    +0.000 A 
ATOM      9  N   UNL     1       1.131  10.200  19.918  0.00  0.00    +0.000 N 
ATOM     10  C   UNL     1       1.541   8.907  19.675  0.00  0.00    +0.000 A 
ATOM     11  O   UNL     1       1.500   7.980  20.471  0.00  0.00    +0.000 OA
ATOM     12  H   UNL     1      -0.535  14.458  20.723  0.00  0.00    +0.000 HD
ENDROOT
BRANCH   6  13
ATOM     13  C   UNL     1       0.391  15.338  19.160  0.00  0.00    +0.000 A 
ATOM     14  C   UNL     1       1.731  15.575  18.868  0.00  0.00    +0.000 A 
ATOM     15  C   UNL     1       2.132  16.691  18.110  0.00  0.00    +0.000 A 
ATOM     16  C   UNL     1       1.193  17.579  17.628  0.00  0.00    +0.000 A 
ATOM     17  F   UNL     1       1.587  18.631  16.900  0.00  0.00    +0.000 F 
ATOM     18  C   UNL     1      -0.149  17.390  17.907  0.00  0.00    +0.000 A 
ATOM     19  C   UNL     1      -0.554  16.275  18.666  0.00  0.00    +0.000 A 
ENDBRANCH   6  13
BRANCH   1  20
ATOM     20  C   UNL     1       2.188   7.524  17.527  0.00  0.00    +0.000 C 
BRANCH  20  22
ATOM     21  O   UNL     1       4.525   6.913  17.952  0.00  0.00    +0.000 OA
ATOM     22  C   UNL     1       3.368   6.469  17.866  0.00  0.00    +0.000 C 
ATOM     23  N   UNL     1       3.143   4.988  17.881  0.00  0.00    +0.000 N 
ATOM     24  C   UNL     1       4.467   4.286  17.656  0.00  0.00    +0.000 C 
ATOM     25  C   UNL     1       5.198   3.872  18.945  0.00  0.00    +0.000 C 
ATOM     26  C   UNL     1       4.292   2.915  19.651  0.00  0.00    +0.000 C 
ATOM     27  C   UNL     1       3.113   3.800  20.089  0.00  0.00    +0.000 A 
ATOM     28  C   UNL     1       2.523   3.346  21.277  0.00  0.00    +0.000 A 
ATOM     29  C   UNL     1       1.291   2.748  21.173  0.00  0.00    +0.000 A 
ATOM     30  C   UNL     1       0.734   2.679  19.894  0.00  0.00    +0.000 A 
ATOM     31  C   UNL     1       1.269   3.454  18.804  0.00  0.00    +0.000 A 
ATOM     32  C   UNL     1       2.385   4.291  18.985  0.00  0.00    +0.000 A 
ENDBRANCH  20  22
ENDBRANCH   1  20
TORSDOF 3
ENDMDL
MODEL 6
REMARK VINA RESULT:      -8.8      0.983      1.181
REMARK  Name = 
REMARK  3 active torsions:
REMARK  status: ('A' for Active; 'I' for Inactive)
REMARK    1  A    between atoms: C_2  and  C_3
REMARK    2  A    between atoms: C_3  and  N_4
REMARK    3  A    between atoms: N_9  and  C_10
REMARK                            x       y       z     vdW  Elec       q    Type
REMARK                         _______ _______ _______ _____ _____    ______ ____
ROOT
ATOM      1  N   UNL     1       1.660   7.300  20.212  0.00  0.00    +0.000 N 
ATOM      2  N   UNL     1       1.141   8.147  21.274  0.00  0.00    +0.000 NA
ATOM      3  C   UNL     1       0.983   9.338  20.764  0.00  0.00    +0.000 A 
ATOM      4  N   UNL     1       0.471  10.483  21.409  0.00  0.00    +0.000 NA
ATOM      5  C   UNL     1       0.429  11.628  20.782  0.00  0.00    +0.000 A 
ATOM      6  N   UNL     1      -0.053  12.854  21.297  0.00  0.00    +0.000 N 
ATOM      7  C   UNL     1       0.960  11.731  19.367  0.00  0.00    +0.000 A 
ATOM      8  C   UNL     1       1.395  10.590  18.778  0.00  0.00    +0.000 A 
ATOM      9  N   UNL     1       1.375   9.415  19.467  0.00  0.00    +0.000 N 
ATOM     10  C   UNL     1       1.832   8.169  19.096  0.00  0.00    +0.000 A 
ATOM     11  O   UNL     1       2.355   7.884  18.028  0.00  0.00    +0.000 OA
ATOM     12  H   UNL     1       0.125  13.698  20.746  0.00  0.00    +0.000 HD
ENDROOT
BRANCH   6  13
ATOM     13  C   UNL     1      -1.022  13.120  22.303  0.00  0.00    +0.000 A 
ATOM     14  C   UNL     1      -0.919  14.217  23.153  0.00  0.00    +0.000 A 
ATOM     15  C   UNL     1      -1.914  14.504  24.107  0.00  0.00    +0.000 A 
ATOM     16  C   UNL     1      -3.028  13.698  24.214  0.00  0.00    +0.000 A 
ATOM     17  F   UNL     1      -3.971  13.988  25.119  0.00  0.00    +0.000 F 
ATOM     18  C   UNL     1      -3.164  12.588  23.399  0.00  0.00    +0.000 A 
ATOM     19  C   UNL     1      -2.171  12.297  22.444  0.00  0.00    +0.000 A 
ENDBRANCH   6  13
BRANCH   1  20
ATOM     20  C   UNL     1       2.295   5.899  20.353  0.00  0.00    +0.000 C 
BRANCH  20  22
ATOM     21  O   UNL     1       1.873   4.560  18.342  0.00  0.00    +0.000 OA
ATOM     22  C   UNL     1       2.759   4.977  19.104  0.00  0.00    +0.000 C 
ATOM     23  N   UNL     1       4.159   4.464  18.961  0.00  0.00    +0.000 N 
ATOM     24  C   UNL     1       4.143   3.230  18.081  0.00  0.00    +0.000 C 
ATOM     25  C   UNL     1       4.424   3.503  16.592  0.00  0.00    +0.000 C 
ATOM     26  C   UNL     1       5.798   4.089  16.527  0.00  0.00    +0.000 C 
ATOM     27  C   UNL     1       5.629   5.465  17.192  0.00  0.00    +0.000 A 
ATOM     28  C   UNL     1       6.513   6.419  16.668  0.00  0.00    +0.000 A 
ATOM     29  C   UNL     1       7.564   6.800  17.465  0.00  0.00    +0.000 A 
ATOM     30  C   UNL     1       7.631   6.220  18.735  0.00  0.00    +0.000 A 
ATOM     31  C   UNL     1       6.509   5.506  19.289  0.00  0.00    +0.000 A 
ATOM     32  C   UNL     1       5.314   5.352  18.563  0.00  0.00    +0.000 A 
ENDBRANCH  20  22
ENDBRANCH   1  20
TORSDOF 3
ENDMDL
MODEL 7
REMARK VINA RESULT:      -8.7      2.386      3.847
REMARK  Name = 
REMARK  3 active torsions:
REMARK  status: ('A' for Active; 'I' for Inactive)
REMARK    1  A    between atoms: C_2  and  C_3
REMARK    2  A    between atoms: C_3  and  N_4
REMARK    3  A    between atoms: N_9  and  C_10
REMARK                            x       y       z     vdW  Elec       q    Type
REMARK                         _______ _______ _______ _____ _____    ______ ____
ROOT
ATOM      1  N   UNL     1       1.591   8.787  19.182  0.00  0.00    +0.000 N 
ATOM      2  N   UNL     1       0.838  10.029  19.226  0.00  0.00    +0.000 NA
ATOM      3  C   UNL     1       0.379  10.151  20.441  0.00  0.00    +0.000 A 
ATOM      4  N   UNL     1      -0.382  11.217  20.965  0.00  0.00    +0.000 NA
ATOM      5  C   UNL     1      -0.823  11.169  22.194  0.00  0.00    +0.000 A 
ATOM      6  N   UNL     1      -1.594  12.155  22.852  0.00  0.00    +0.000 N 
ATOM      7  C   UNL     1      -0.541   9.949  23.047  0.00  0.00    +0.000 A 
ATOM      8  C   UNL     1       0.235   8.976  22.510  0.00  0.00    +0.000 A 
ATOM      9  N   UNL     1       0.704   9.101  21.237  0.00  0.00    +0.000 N 
ATOM     10  C   UNL     1       1.436   8.214  20.477  0.00  0.00    +0.000 A 
ATOM     11  O   UNL     1       1.817   7.108  20.832  0.00  0.00    +0.000 OA
ATOM     12  H   UNL     1      -2.001  11.907  23.759  0.00  0.00    +0.000 HD
ENDROOT
BRANCH   6  13
ATOM     13  C   UNL     1      -1.673  13.560  22.646  0.00  0.00    +0.000 A 
ATOM     14  C   UNL     1      -2.878  14.197  22.367  0.00  0.00    +0.000 A 
ATOM     15  C   UNL     1      -2.955  15.595  22.223  0.00  0.00    +0.000 A 
ATOM     16  C   UNL     1      -1.825  16.372  22.366  0.00  0.00    +0.000 A 
ATOM     17  F   UNL     1      -1.913  17.701  22.236  0.00  0.00    +0.000 F 
ATOM     18  C   UNL     1      -0.602  15.779  22.628  0.00  0.00    +0.000 A 
ATOM     19  C   UNL     1      -0.521  14.381  22.773  0.00  0.00    +0.000 A 
ENDBRANCH   6  13
BRANCH   1  20
ATOM     20  C   UNL     1       2.083   8.028  17.929  0.00  0.00    +0.000 C 
BRANCH  20  22
ATOM     21  O   UNL     1       4.433   7.327  17.938  0.00  0.00    +0.000 OA
ATOM     22  C   UNL     1       3.261   6.917  17.938  0.00  0.00    +0.000 C 
ATOM     23  N   UNL     1       2.989   5.456  17.750  0.00  0.00    +0.000 N 
ATOM     24  C   UNL     1       4.248   4.783  17.244  0.00  0.00    +0.000 C 
ATOM     25  C   UNL     1       5.126   4.158  18.343  0.00  0.00    +0.000 C 
ATOM     26  C   UNL     1       4.286   3.112  19.004  0.00  0.00    +0.000 C 
ATOM     27  C   UNL     1       3.205   3.930  19.728  0.00  0.00    +0.000 A 
ATOM     28  C   UNL     1       2.758   3.300  20.899  0.00  0.00    +0.000 A 
ATOM     29  C   UNL     1       1.504   2.742  20.866  0.00  0.00    +0.000 A 
ATOM     30  C   UNL     1       0.783   2.886  19.678  0.00  0.00    +0.000 A 
ATOM     31  C   UNL     1       1.200   3.819  18.662  0.00  0.00    +0.000 A 
ATOM     32  C   UNL     1       2.357   4.601  18.822  0.00  0.00    +0.000 A 
ENDBRANCH  20  22
ENDBRANCH   1  20
TORSDOF 3
ENDMDL
MODEL 8
REMARK VINA RESULT:      -8.5      2.288      3.181
REMARK  Name = 
REMARK  3 active torsions:
REMARK  status: ('A' for Active; 'I' for Inactive)
REMARK    1  A    between atoms: C_2  and  C_3
REMARK    2  A    between atoms: C_3  and  N_4
REMARK    3  A    between atoms: N_9  and  C_10
REMARK                            x       y       z     vdW  Elec       q    Type
REMARK                         _______ _______ _______ _____ _____    ______ ____
ROOT
ATOM      1  N   UNL     1       1.185   8.892  19.692  0.00  0.00    +0.000 N 
ATOM      2  N   UNL     1       0.343   9.424  20.751  0.00  0.00    +0.000 NA
ATOM      3  C   UNL     1      -0.210  10.509  20.285  0.00  0.00    +0.000 A 
ATOM      4  N   UNL     1      -1.134  11.349  20.942  0.00  0.00    +0.000 NA
ATOM      5  C   UNL     1      -1.557  12.441  20.365  0.00  0.00    +0.000 A 
ATOM      6  N   UNL     1      -2.475  13.375  20.899  0.00  0.00    +0.000 N 
ATOM      7  C   UNL     1      -1.029  12.822  18.997  0.00  0.00    +0.000 A 
ATOM      8  C   UNL     1      -0.181  11.956  18.390  0.00  0.00    +0.000 A 
ATOM      9  N   UNL     1       0.191  10.808  19.023  0.00  0.00    +0.000 N 
ATOM     10  C   UNL     1       1.086   9.837  18.630  0.00  0.00    +0.000 A 
ATOM     11  O   UNL     1       1.729   9.831  17.591  0.00  0.00    +0.000 OA
ATOM     12  H   UNL     1      -2.588  14.262  20.400  0.00  0.00    +0.000 HD
ENDROOT
BRANCH   6  13
ATOM     13  C   UNL     1      -3.523  13.208  21.845  0.00  0.00    +0.000 A 
ATOM     14  C   UNL     1      -4.864  13.268  21.477  0.00  0.00    +0.000 A 
ATOM     15  C   UNL     1      -5.893  13.043  22.410  0.00  0.00    +0.000 A 
ATOM     16  C   UNL     1      -5.591  12.748  23.722  0.00  0.00    +0.000 A 
ATOM     17  F   UNL     1      -6.579  12.527  24.597  0.00  0.00    +0.000 F 
ATOM     18  C   UNL     1      -4.271  12.692  24.136  0.00  0.00    +0.000 A 
ATOM     19  C   UNL     1      -3.238  12.917  23.205  0.00  0.00    +0.000 A 
ENDBRANCH   6  13
BRANCH   1  20
ATOM     20  C   UNL     1       2.277   7.806  19.814  0.00  0.00    +0.000 C 
BRANCH  20  22
ATOM     21  O   UNL     1       3.140   6.839  17.732  0.00  0.00    +0.000 OA
ATOM     22  C   UNL     1       2.484   6.596  18.758  0.00  0.00    +0.000 C 
ATOM     23  N   UNL     1       1.762   5.289  18.881  0.00  0.00    +0.000 N 
ATOM     24  C   UNL     1       1.706   4.628  17.518  0.00  0.00    +0.000 C 
ATOM     25  C   UNL     1       2.837   3.620  17.250  0.00  0.00    +0.000 C 
ATOM     26  C   UNL     1       2.694   2.547  18.281  0.00  0.00    +0.000 C 
ATOM     27  C   UNL     1       3.057   3.264  19.592  0.00  0.00    +0.000 A 
ATOM     28  C   UNL     1       3.645   2.396  20.525  0.00  0.00    +0.000 A 
ATOM     29  C   UNL     1       2.879   2.032  21.605  0.00  0.00    +0.000 A 
ATOM     30  C   UNL     1       1.599   2.587  21.684  0.00  0.00    +0.000 A 
ATOM     31  C   UNL     1       1.219   3.703  20.856  0.00  0.00    +0.000 A 
ATOM     32  C   UNL     1       2.115   4.259  19.927  0.00  0.00    +0.000 A 
ENDBRANCH  20  22
ENDBRANCH   1  20
TORSDOF 3
ENDMDL
MODEL 9
REMARK VINA RESULT:      -8.5      2.446      3.377
REMARK  Name = 
REMARK  3 active torsions:
REMARK  status: ('A' for Active; 'I' for Inactive)
REMARK    1  A    between atoms: C_2  and  C_3
REMARK    2  A    between atoms: C_3  and  N_4
REMARK    3  A    between atoms: N_9  and  C_10
REMARK                            x       y       z     vdW  Elec       q    Type
REMARK                         _______ _______ _______ _____ _____    ______ ____
ROOT
ATOM      1  N   UNL     1       1.175   9.015  19.402  0.00  0.00    +0.000 N 
ATOM      2  N   UNL     1       0.035   9.412  20.211  0.00  0.00    +0.000 NA
ATOM      3  C   UNL     1      -0.355  10.576  19.770  0.00  0.00    +0.000 A 
ATOM      4  N   UNL     1      -1.448  11.342  20.226  0.00  0.00    +0.000 NA
ATOM      5  C   UNL     1      -1.679  12.525  19.723  0.00  0.00    +0.000 A 
ATOM      6  N   UNL     1      -2.729  13.402  20.080  0.00  0.00    +0.000 N 
ATOM      7  C   UNL     1      -0.749  13.089  18.668  0.00  0.00    +0.000 A 
ATOM      8  C   UNL     1       0.257  12.292  18.232  0.00  0.00    +0.000 A 
ATOM      9  N   UNL     1       0.423  11.048  18.762  0.00  0.00    +0.000 N 
ATOM     10  C   UNL     1       1.407  10.113  18.525  0.00  0.00    +0.000 A 
ATOM     11  O   UNL     1       2.347  10.240  17.753  0.00  0.00    +0.000 OA
ATOM     12  H   UNL     1      -2.689  14.358  19.716  0.00  0.00    +0.000 HD
ENDROOT
BRANCH   6  13
ATOM     13  C   UNL     1      -4.022  13.133  20.609  0.00  0.00    +0.000 A 
ATOM     14  C   UNL     1      -4.996  12.465  19.872  0.00  0.00    +0.000 A 
ATOM     15  C   UNL     1      -6.251  12.154  20.426  0.00  0.00    +0.000 A 
ATOM     16  C   UNL     1      -6.544  12.501  21.728  0.00  0.00    +0.000 A 
ATOM     17  F   UNL     1      -7.738  12.190  22.245  0.00  0.00    +0.000 F 
ATOM     18  C   UNL     1      -5.611  13.180  22.492  0.00  0.00    +0.000 A 
ATOM     19  C   UNL     1      -4.353  13.494  21.942  0.00  0.00    +0.000 A 
ENDBRANCH   6  13
BRANCH   1  20
ATOM     20  C   UNL     1       2.184   7.881  19.691  0.00  0.00    +0.000 C 
BRANCH  20  22
ATOM     21  O   UNL     1       3.231   6.901  17.701  0.00  0.00    +0.000 OA
ATOM     22  C   UNL     1       2.501   6.660  18.676  0.00  0.00    +0.000 C 
ATOM     23  N   UNL     1       1.798   5.339  18.764  0.00  0.00    +0.000 N 
ATOM     24  C   UNL     1       1.865   4.656  17.413  0.00  0.00    +0.000 C 
ATOM     25  C   UNL     1       3.036   3.669  17.253  0.00  0.00    +0.000 C 
ATOM     26  C   UNL     1       2.833   2.609  18.288  0.00  0.00    +0.000 C 
ATOM     27  C   UNL     1       3.075   3.354  19.611  0.00  0.00    +0.000 A 
ATOM     28  C   UNL     1       3.605   2.516  20.602  0.00  0.00    +0.000 A 
ATOM     29  C   UNL     1       2.764   2.151  21.625  0.00  0.00    +0.000 A 
ATOM     30  C   UNL     1       1.470   2.678  21.592  0.00  0.00    +0.000 A 
ATOM     31  C   UNL     1       1.133   3.772  20.717  0.00  0.00    +0.000 A 
ATOM     32  C   UNL     1       2.089   4.334  19.852  0.00  0.00    +0.000 A 
ENDBRANCH  20  22
ENDBRANCH   1  20
TORSDOF 3
ENDMDL
