MODEL 1
REMARK VINA RESULT:      -6.4      0.000      0.000
REMARK  Name = 
REMARK  7 active torsions:
REMARK  status: ('A' for Active; 'I' for Inactive)
REMARK    1  A    between atoms: C_1  and  C_2
REMARK    2  A    between atoms: C_5  and  C_6
REMARK    3  A    between atoms: N_8  and  C_9
REMARK    4  A    between atoms: C_9  and  N_10
REMARK    5  A    between atoms: C_9  and  C_13
REMARK    6  A    between atoms: N_10  and  C_11
REMARK    7  A    between atoms: N_10  and  C_12
REMARK                            x       y       z     vdW  Elec       q    Type
REMARK                         _______ _______ _______ _____ _____    ______ ____
ROOT
ATOM      1  C   UNL     1       5.119   4.491  18.158  0.00  0.00    +0.000 C 
ATOM      2  O   UNL     1       5.810   4.293  19.149  0.00  0.00    +0.000 OA
ATOM      3  N   UNL     1       3.748   4.626  18.220  0.00  0.00    +0.000 N 
ATOM      4  H   UNL     1       3.189   4.570  17.381  0.00  0.00    +0.000 HD
ENDROOT
BRANCH   1   9
ATOM      5  C   UNL     1       7.334   4.749  12.798  0.00  0.00    +0.000 C 
ATOM      6  C   UNL     1       6.772   4.641  14.185  0.00  0.00    +0.000 A 
ATOM      7  C   UNL     1       5.473   4.166  14.406  0.00  0.00    +0.000 A 
ATOM      8  C   UNL     1       4.952   4.105  15.703  0.00  0.00    +0.000 A 
ATOM      9  C   UNL     1       5.721   4.527  16.793  0.00  0.00    +0.000 A 
ATOM     10  C   UNL     1       7.030   4.976  16.578  0.00  0.00    +0.000 A 
ATOM     11  C   UNL     1       7.549   5.035  15.282  0.00  0.00    +0.000 A 
ENDBRANCH   1   9
BRANCH   3  12
ATOM     12  C   UNL     1       3.016   4.441  19.481  0.00  0.00    +0.000 C 
BRANCH  12  13
ATOM     13  C   UNL     1       2.488   2.908  19.662  0.00  0.00    +0.000 C 
ATOM     14 CL   UNL     1       3.478   1.665  18.765  0.00  0.00    +0.000 Cl
ATOM     15 CL   UNL     1       2.514   2.444  21.408  0.00  0.00    +0.000 Cl
ATOM     16 CL   UNL     1       0.810   2.603  19.052  0.00  0.00    +0.000 Cl
ENDBRANCH  12  13
BRANCH  12  17
ATOM     17  N   UNL     1       2.067   5.606  19.518  0.00  0.00    +0.000 NA
ATOM     18  C   UNL     1       1.570   5.869  20.880  0.00  0.00    +0.000 C 
ATOM     19  C   UNL     1       2.724   6.857  19.078  0.00  0.00    +0.000 C 
ENDBRANCH  12  17
ENDBRANCH   3  12
TORSDOF 4
ENDMDL
MODEL 2
REMARK VINA RESULT:      -6.4      2.588      3.201
REMARK  Name = 
REMARK  7 active torsions:
REMARK  status: ('A' for Active; 'I' for Inactive)
REMARK    1  A    between atoms: C_1  and  C_2
REMARK    2  A    between atoms: C_5  and  C_6
REMARK    3  A    between atoms: N_8  and  C_9
REMARK    4  A    between atoms: C_9  and  N_10
REMARK    5  A    between atoms: C_9  and  C_13
REMARK    6  A    between atoms: N_10  and  C_11
REMARK    7  A    between atoms: N_10  and  C_12
REMARK                            x       y       z     vdW  Elec       q    Type
REMARK                         _______ _______ _______ _____ _____    ______ ____
ROOT
ATOM      1  C   UNL     1       5.147   4.192  19.169  0.00  0.00    +0.000 C 
ATOM      2  O   UNL     1       5.590   3.051  19.216  0.00  0.00    +0.000 OA
ATOM      3  N   UNL     1       3.835   4.495  19.466  0.00  0.00    +0.000 N 
ATOM      4  H   UNL     1       3.446   5.391  19.212  0.00  0.00    +0.000 HD
ENDROOT
BRANCH   1   9
ATOM      5  C   UNL     1       8.321   8.734  17.437  0.00  0.00    +0.000 C 
ATOM      6  C   UNL     1       7.514   7.538  17.852  0.00  0.00    +0.000 A 
ATOM      7  C   UNL     1       6.261   7.277  17.284  0.00  0.00    +0.000 A 
ATOM      8  C   UNL     1       5.508   6.176  17.708  0.00  0.00    +0.000 A 
ATOM      9  C   UNL     1       5.996   5.330  18.709  0.00  0.00    +0.000 A 
ATOM     10  C   UNL     1       7.261   5.572  19.258  0.00  0.00    +0.000 A 
ATOM     11  C   UNL     1       8.012   6.671  18.834  0.00  0.00    +0.000 A 
ENDBRANCH   1   9
BRANCH   3  12
ATOM     12  C   UNL     1       2.854   3.442  19.766  0.00  0.00    +0.000 C 
BRANCH  12  13
ATOM     13  C   UNL     1       1.958   3.050  18.460  0.00  0.00    +0.000 C 
ATOM     14 CL   UNL     1       1.416   4.483  17.468  0.00  0.00    +0.000 Cl
ATOM     15 CL   UNL     1       2.903   1.973  17.360  0.00  0.00    +0.000 Cl
ATOM     16 CL   UNL     1       0.400   2.204  18.831  0.00  0.00    +0.000 Cl
ENDBRANCH  12  13
BRANCH  12  17
ATOM     17  N   UNL     1       2.214   3.903  21.046  0.00  0.00    +0.000 NA
ATOM     18  C   UNL     1       1.258   5.001  20.819  0.00  0.00    +0.000 C 
ATOM     19  C   UNL     1       1.441   2.818  21.689  0.00  0.00    +0.000 C 
ENDBRANCH  12  17
ENDBRANCH   3  12
TORSDOF 4
ENDMDL
MODEL 3
REMARK VINA RESULT:      -6.4      3.082      6.056
REMARK  Name = 
REMARK  7 active torsions:
REMARK  status: ('A' for Active; 'I' for Inactive)
REMARK    1  A    between atoms: C_1  and  C_2
REMARK    2  A    between atoms: C_5  and  C_6
REMARK    3  A    between atoms: N_8  and  C_9
REMARK    4  A    between atoms: C_9  and  N_10
REMARK    5  A    between atoms: C_9  and  C_13
REMARK    6  A    between atoms: N_10  and  C_11
REMARK    7  A    between atoms: N_10  and  C_12
REMARK                            x       y       z     vdW  Elec       q    Type
REMARK                         _______ _______ _______ _____ _____    ______ ____
ROOT
ATOM      1  C   UNL     1       3.333   5.968  19.044  0.00  0.00    +0.000 C 
ATOM      2  O   UNL     1       3.760   5.502  20.093  0.00  0.00    +0.000 OA
ATOM      3  N   UNL     1       3.627   5.423  17.812  0.00  0.00    +0.000 N 
ATOM      4  H   UNL     1       3.448   5.943  16.966  0.00  0.00    +0.000 HD
ENDROOT
BRANCH   1   9
ATOM      5  C   UNL     1       0.265  10.896  19.116  0.00  0.00    +0.000 C 
ATOM      6  C   UNL     1       1.022   9.601  19.093  0.00  0.00    +0.000 A 
ATOM      7  C   UNL     1       1.148   8.814  20.244  0.00  0.00    +0.000 A 
ATOM      8  C   UNL     1       1.887   7.626  20.212  0.00  0.00    +0.000 A 
ATOM      9  C   UNL     1       2.515   7.217  19.031  0.00  0.00    +0.000 A 
ATOM     10  C   UNL     1       2.367   7.986  17.871  0.00  0.00    +0.000 A 
ATOM     11  C   UNL     1       1.628   9.172  17.904  0.00  0.00    +0.000 A 
ENDBRANCH   1   9
BRANCH   3  12
ATOM     12  C   UNL     1       4.560   4.295  17.676  0.00  0.00    +0.000 C 
BRANCH  12  13
ATOM     13  C   UNL     1       5.823   4.659  16.710  0.00  0.00    +0.000 C 
ATOM     14 CL   UNL     1       6.007   3.553  15.270  0.00  0.00    +0.000 Cl
ATOM     15 CL   UNL     1       5.648   6.339  16.067  0.00  0.00    +0.000 Cl
ATOM     16 CL   UNL     1       7.446   4.557  17.507  0.00  0.00    +0.000 Cl
ENDBRANCH  12  13
BRANCH  12  17
ATOM     17  N   UNL     1       3.665   3.123  17.387  0.00  0.00    +0.000 NA
ATOM     18  C   UNL     1       3.689   2.129  18.475  0.00  0.00    +0.000 C 
ATOM     19  C   UNL     1       2.251   3.539  17.250  0.00  0.00    +0.000 C 
ENDBRANCH  12  17
ENDBRANCH   3  12
TORSDOF 4
ENDMDL
MODEL 4
REMARK VINA RESULT:      -6.3      3.086      6.101
REMARK  Name = 
REMARK  7 active torsions:
REMARK  status: ('A' for Active; 'I' for Inactive)
REMARK    1  A    between atoms: C_1  and  C_2
REMARK    2  A    between atoms: C_5  and  C_6
REMARK    3  A    between atoms: N_8  and  C_9
REMARK    4  A    between atoms: C_9  and  N_10
REMARK    5  A    between atoms: C_9  and  C_13
REMARK    6  A    between atoms: N_10  and  C_11
REMARK    7  A    between atoms: N_10  and  C_12
REMARK                            x       y       z     vdW  Elec       q    Type
REMARK                         _______ _______ _______ _____ _____    ______ ____
ROOT
ATOM      1  C   UNL     1       3.206   6.082  19.049  0.00  0.00    +0.000 C 
ATOM      2  O   UNL     1       3.685   5.602  20.068  0.00  0.00    +0.000 OA
ATOM      3  N   UNL     1       3.408   5.533  17.800  0.00  0.00    +0.000 N 
ATOM      4  H   UNL     1       3.190   6.060  16.967  0.00  0.00    +0.000 HD
ENDROOT
BRANCH   1   9
ATOM      5  C   UNL     1       0.043  10.950  19.084  0.00  0.00    +0.000 C 
ATOM      6  C   UNL     1       0.895   9.715  19.079  0.00  0.00    +0.000 A 
ATOM      7  C   UNL     1       1.537   9.281  17.913  0.00  0.00    +0.000 A 
ATOM      8  C   UNL     1       2.300   8.108  17.919  0.00  0.00    +0.000 A 
ATOM      9  C   UNL     1       2.422   7.351  19.089  0.00  0.00    +0.000 A 
ATOM     10  C   UNL     1       1.805   7.797  20.264  0.00  0.00    +0.000 A 
ATOM     11  C   UNL     1       1.044   8.969  20.256  0.00  0.00    +0.000 A 
ENDBRANCH   1   9
BRANCH   3  12
ATOM     12  C   UNL     1       4.300   4.381  17.604  0.00  0.00    +0.000 C 
BRANCH  12  13
ATOM     13  C   UNL     1       5.587   4.756  16.673  0.00  0.00    +0.000 C 
ATOM     14 CL   UNL     1       5.818   3.653  15.238  0.00  0.00    +0.000 Cl
ATOM     15 CL   UNL     1       5.417   6.435  16.027  0.00  0.00    +0.000 Cl
ATOM     16 CL   UNL     1       7.188   4.665  17.514  0.00  0.00    +0.000 Cl
ENDBRANCH  12  13
BRANCH  12  17
ATOM     17  N   UNL     1       3.366   3.263  17.236  0.00  0.00    +0.000 NA
ATOM     18  C   UNL     1       3.593   2.061  18.059  0.00  0.00    +0.000 C 
ATOM     19  C   UNL     1       1.952   3.642  17.454  0.00  0.00    +0.000 C 
ENDBRANCH  12  17
ENDBRANCH   3  12
TORSDOF 4
ENDMDL
MODEL 5
REMARK VINA RESULT:      -6.3      3.061      6.034
REMARK  Name = 
REMARK  7 active torsions:
REMARK  status: ('A' for Active; 'I' for Inactive)
REMARK    1  A    between atoms: C_1  and  C_2
REMARK    2  A    between atoms: C_5  and  C_6
REMARK    3  A    between atoms: N_8  and  C_9
REMARK    4  A    between atoms: C_9  and  N_10
REMARK    5  A    between atoms: C_9  and  C_13
REMARK    6  A    between atoms: N_10  and  C_11
REMARK    7  A    between atoms: N_10  and  C_12
REMARK                            x       y       z     vdW  Elec       q    Type
REMARK                         _______ _______ _______ _____ _____    ______ ____
ROOT
ATOM      1  C   UNL     1       3.243   6.031  19.047  0.00  0.00    +0.000 C 
ATOM      2  O   UNL     1       3.701   5.548  20.075  0.00  0.00    +0.000 OA
ATOM      3  N   UNL     1       3.468   5.483  17.802  0.00  0.00    +0.000 N 
ATOM      4  H   UNL     1       3.269   6.012  16.966  0.00  0.00    +0.000 HD
ENDROOT
BRANCH   1   9
ATOM      5  C   UNL     1       0.096  10.909  19.028  0.00  0.00    +0.000 C 
ATOM      6  C   UNL     1       0.944   9.671  19.038  0.00  0.00    +0.000 A 
ATOM      7  C   UNL     1       1.602   9.234  17.882  0.00  0.00    +0.000 A 
ATOM      8  C   UNL     1       2.361   8.059  17.901  0.00  0.00    +0.000 A 
ATOM      9  C   UNL     1       2.463   7.303  19.074  0.00  0.00    +0.000 A 
ATOM     10  C   UNL     1       1.830   7.753  20.238  0.00  0.00    +0.000 A 
ATOM     11  C   UNL     1       1.073   8.927  20.218  0.00  0.00    +0.000 A 
ENDBRANCH   1   9
BRANCH   3  12
ATOM     12  C   UNL     1       4.361   4.329  17.622  0.00  0.00    +0.000 C 
BRANCH  12  13
ATOM     13  C   UNL     1       5.644   4.689  16.680  0.00  0.00    +0.000 C 
ATOM     14 CL   UNL     1       5.561   6.337  15.902  0.00  0.00    +0.000 Cl
ATOM     15 CL   UNL     1       7.163   4.642  17.657  0.00  0.00    +0.000 Cl
ATOM     16 CL   UNL     1       5.883   3.586  15.264  0.00  0.00    +0.000 Cl
ENDBRANCH  12  13
BRANCH  12  17
ATOM     17  N   UNL     1       3.425   3.204  17.275  0.00  0.00    +0.000 NA
ATOM     18  C   UNL     1       3.599   2.047  18.170  0.00  0.00    +0.000 C 
ATOM     19  C   UNL     1       2.010   3.613  17.410  0.00  0.00    +0.000 C 
ENDBRANCH  12  17
ENDBRANCH   3  12
TORSDOF 4
ENDMDL
MODEL 6
REMARK VINA RESULT:      -6.3      3.072      6.053
REMARK  Name = 
REMARK  7 active torsions:
REMARK  status: ('A' for Active; 'I' for Inactive)
REMARK    1  A    between atoms: C_1  and  C_2
REMARK    2  A    between atoms: C_5  and  C_6
REMARK    3  A    between atoms: N_8  and  C_9
REMARK    4  A    between atoms: C_9  and  N_10
REMARK    5  A    between atoms: C_9  and  C_13
REMARK    6  A    between atoms: N_10  and  C_11
REMARK    7  A    between atoms: N_10  and  C_12
REMARK                            x       y       z     vdW  Elec       q    Type
REMARK                         _______ _______ _______ _____ _____    ______ ____
ROOT
ATOM      1  C   UNL     1       3.299   5.965  19.083  0.00  0.00    +0.000 C 
ATOM      2  O   UNL     1       3.693   5.488  20.140  0.00  0.00    +0.000 OA
ATOM      3  N   UNL     1       3.630   5.432  17.855  0.00  0.00    +0.000 N 
ATOM      4  H   UNL     1       3.478   5.961  17.009  0.00  0.00    +0.000 HD
ENDROOT
BRANCH   1   9
ATOM      5  C   UNL     1       0.245  10.903  19.108  0.00  0.00    +0.000 C 
ATOM      6  C   UNL     1       0.998   9.605  19.097  0.00  0.00    +0.000 A 
ATOM      7  C   UNL     1       1.123   8.829  20.256  0.00  0.00    +0.000 A 
ATOM      8  C   UNL     1       1.859   7.639  20.236  0.00  0.00    +0.000 A 
ATOM      9  C   UNL     1       2.485   7.216  19.059  0.00  0.00    +0.000 A 
ATOM     10  C   UNL     1       2.338   7.974  17.891  0.00  0.00    +0.000 A 
ATOM     11  C   UNL     1       1.602   9.162  17.913  0.00  0.00    +0.000 A 
ENDBRANCH   1   9
BRANCH   3  12
ATOM     12  C   UNL     1       4.564   4.303  17.736  0.00  0.00    +0.000 C 
BRANCH  12  13
ATOM     13  C   UNL     1       5.866   4.681  16.828  0.00  0.00    +0.000 C 
ATOM     14 CL   UNL     1       7.458   4.541  17.708  0.00  0.00    +0.000 Cl
ATOM     15 CL   UNL     1       5.958   3.588  15.392  0.00  0.00    +0.000 Cl
ATOM     16 CL   UNL     1       5.895   6.382  16.209  0.00  0.00    +0.000 Cl
ENDBRANCH  12  13
BRANCH  12  17
ATOM     17  N   UNL     1       3.677   3.140  17.389  0.00  0.00    +0.000 NA
ATOM     18  C   UNL     1       3.682   2.110  18.443  0.00  0.00    +0.000 C 
ATOM     19  C   UNL     1       2.265   3.559  17.238  0.00  0.00    +0.000 C 
ENDBRANCH  12  17
ENDBRANCH   3  12
TORSDOF 4
ENDMDL
MODEL 7
REMARK VINA RESULT:      -6.3      0.161      1.647
REMARK  Name = 
REMARK  7 active torsions:
REMARK  status: ('A' for Active; 'I' for Inactive)
REMARK    1  A    between atoms: C_1  and  C_2
REMARK    2  A    between atoms: C_5  and  C_6
REMARK    3  A    between atoms: N_8  and  C_9
REMARK    4  A    between atoms: C_9  and  N_10
REMARK    5  A    between atoms: C_9  and  C_13
REMARK    6  A    between atoms: N_10  and  C_11
REMARK    7  A    between atoms: N_10  and  C_12
REMARK                            x       y       z     vdW  Elec       q    Type
REMARK                         _______ _______ _______ _____ _____    ______ ____
ROOT
ATOM      1  C   UNL     1       5.123   4.563  18.052  0.00  0.00    +0.000 C 
ATOM      2  O   UNL     1       5.863   4.394  19.012  0.00  0.00    +0.000 OA
ATOM      3  N   UNL     1       3.755   4.685  18.179  0.00  0.00    +0.000 N 
ATOM      4  H   UNL     1       3.157   4.604  17.370  0.00  0.00    +0.000 HD
ENDROOT
BRANCH   1   9
ATOM      5  C   UNL     1       7.325   4.489  12.681  0.00  0.00    +0.000 C 
ATOM      6  C   UNL     1       6.748   4.550  14.065  0.00  0.00    +0.000 A 
ATOM      7  C   UNL     1       7.521   4.969  15.155  0.00  0.00    +0.000 A 
ATOM      8  C   UNL     1       6.977   4.986  16.444  0.00  0.00    +0.000 A 
ATOM      9  C   UNL     1       5.657   4.576  16.658  0.00  0.00    +0.000 A 
ATOM     10  C   UNL     1       4.873   4.183  15.567  0.00  0.00    +0.000 A 
ATOM     11  C   UNL     1       5.417   4.168  14.281  0.00  0.00    +0.000 A 
ENDBRANCH   1   9
BRANCH   3  12
ATOM     12  C   UNL     1       3.087   4.519  19.478  0.00  0.00    +0.000 C 
BRANCH  12  13
ATOM     13  C   UNL     1       2.627   2.976  19.736  0.00  0.00    +0.000 C 
ATOM     14 CL   UNL     1       2.679   2.463  21.487  0.00  0.00    +0.000 Cl
ATOM     15 CL   UNL     1       0.931   2.730  19.164  0.00  0.00    +0.000 Cl
ATOM     16 CL   UNL     1       3.655   1.728  18.920  0.00  0.00    +0.000 Cl
ENDBRANCH  12  13
BRANCH  12  17
ATOM     17  N   UNL     1       2.097   5.649  19.517  0.00  0.00    +0.000 NA
ATOM     18  C   UNL     1       1.622   5.918  20.887  0.00  0.00    +0.000 C 
ATOM     19  C   UNL     1       2.697   6.915  19.041  0.00  0.00    +0.000 C 
ENDBRANCH  12  17
ENDBRANCH   3  12
TORSDOF 4
ENDMDL
MODEL 8
REMARK VINA RESULT:      -6.3      0.662      1.395
REMARK  Name = 
REMARK  7 active torsions:
REMARK  status: ('A' for Active; 'I' for Inactive)
REMARK    1  A    between atoms: C_1  and  C_2
REMARK    2  A    between atoms: C_5  and  C_6
REMARK    3  A    between atoms: N_8  and  C_9
REMARK    4  A    between atoms: C_9  and  N_10
REMARK    5  A    between atoms: C_9  and  C_13
REMARK    6  A    between atoms: N_10  and  C_11
REMARK    7  A    between atoms: N_10  and  C_12
REMARK                            x       y       z     vdW  Elec       q    Type
REMARK                         _______ _______ _______ _____ _____    ______ ____
ROOT
ATOM      1  C   UNL     1       5.255   4.529  18.016  0.00  0.00    +0.000 C 
ATOM      2  O   UNL     1       5.953   4.268  18.987  0.00  0.00    +0.000 OA
ATOM      3  N   UNL     1       3.897   4.750  18.112  0.00  0.00    +0.000 N 
ATOM      4  H   UNL     1       3.318   4.745  17.286  0.00  0.00    +0.000 HD
ENDROOT
BRANCH   1   9
ATOM      5  C   UNL     1       7.355   4.734  12.608  0.00  0.00    +0.000 C 
ATOM      6  C   UNL     1       6.822   4.640  14.007  0.00  0.00    +0.000 A 
ATOM      7  C   UNL     1       5.532   4.159  14.261  0.00  0.00    +0.000 A 
ATOM      8  C   UNL     1       5.040   4.111  15.570  0.00  0.00    +0.000 A 
ATOM      9  C   UNL     1       5.828   4.552  16.638  0.00  0.00    +0.000 A 
ATOM     10  C   UNL     1       7.129   5.006  16.391  0.00  0.00    +0.000 A 
ATOM     11  C   UNL     1       7.620   5.053  15.083  0.00  0.00    +0.000 A 
ENDBRANCH   1   9
BRANCH   3  12
ATOM     12  C   UNL     1       3.182   4.588  19.387  0.00  0.00    +0.000 C 
BRANCH  12  13
ATOM     13  C   UNL     1       2.813   3.027  19.686  0.00  0.00    +0.000 C 
ATOM     14 CL   UNL     1       1.298   2.794  20.675  0.00  0.00    +0.000 Cl
ATOM     15 CL   UNL     1       2.572   2.137  18.133  0.00  0.00    +0.000 Cl
ATOM     16 CL   UNL     1       4.059   2.119  20.637  0.00  0.00    +0.000 Cl
ENDBRANCH  12  13
BRANCH  12  17
ATOM     17  N   UNL     1       2.119   5.649  19.337  0.00  0.00    +0.000 NA
ATOM     18  C   UNL     1       1.842   6.214  20.670  0.00  0.00    +0.000 C 
ATOM     19  C   UNL     1       2.529   6.791  18.490  0.00  0.00    +0.000 C 
ENDBRANCH  12  17
ENDBRANCH   3  12
TORSDOF 4
ENDMDL
MODEL 9
REMARK VINA RESULT:      -6.2      0.682      1.344
REMARK  Name = 
REMARK  7 active torsions:
REMARK  status: ('A' for Active; 'I' for Inactive)
REMARK    1  A    between atoms: C_1  and  C_2
REMARK    2  A    between atoms: C_5  and  C_6
REMARK    3  A    between atoms: N_8  and  C_9
REMARK    4  A    between atoms: C_9  and  N_10
REMARK    5  A    between atoms: C_9  and  C_13
REMARK    6  A    between atoms: N_10  and  C_11
REMARK    7  A    between atoms: N_10  and  C_12
REMARK                            x       y       z     vdW  Elec       q    Type
REMARK                         _______ _______ _______ _____ _____    ______ ____
ROOT
ATOM      1  C   UNL     1       5.268   4.521  17.900  0.00  0.00    +0.000 C 
ATOM      2  O   UNL     1       6.026   4.312  18.839  0.00  0.00    +0.000 OA
ATOM      3  N   UNL     1       3.905   4.659  18.059  0.00  0.00    +0.000 N 
ATOM      4  H   UNL     1       3.289   4.611  17.260  0.00  0.00    +0.000 HD
ENDROOT
BRANCH   1   9
ATOM      5  C   UNL     1       7.364   4.576  12.487  0.00  0.00    +0.000 C 
ATOM      6  C   UNL     1       6.813   4.603  13.882  0.00  0.00    +0.000 A 
ATOM      7  C   UNL     1       7.593   5.038  14.961  0.00  0.00    +0.000 A 
ATOM      8  C   UNL     1       7.074   5.023  16.260  0.00  0.00    +0.000 A 
ATOM      9  C   UNL     1       5.774   4.565  16.497  0.00  0.00    +0.000 A 
ATOM     10  C   UNL     1       4.982   4.156  15.417  0.00  0.00    +0.000 A 
ATOM     11  C   UNL     1       5.501   4.172  14.120  0.00  0.00    +0.000 A 
ENDBRANCH   1   9
BRANCH   3  12
ATOM     12  C   UNL     1       3.262   4.466  19.366  0.00  0.00    +0.000 C 
BRANCH  12  13
ATOM     13  C   UNL     1       2.947   2.893  19.667  0.00  0.00    +0.000 C 
ATOM     14 CL   UNL     1       2.735   1.874  18.168  0.00  0.00    +0.000 Cl
ATOM     15 CL   UNL     1       4.297   2.160  20.618  0.00  0.00    +0.000 Cl
ATOM     16 CL   UNL     1       1.416   2.585  20.584  0.00  0.00    +0.000 Cl
ENDBRANCH  12  13
BRANCH  12  17
ATOM     17  N   UNL     1       2.172   5.501  19.385  0.00  0.00    +0.000 NA
ATOM     18  C   UNL     1       1.853   5.941  20.755  0.00  0.00    +0.000 C 
ATOM     19  C   UNL     1       2.569   6.722  18.649  0.00  0.00    +0.000 C 
ENDBRANCH  12  17
ENDBRANCH   3  12
TORSDOF 4
ENDMDL
