MODEL 1
REMARK VINA RESULT:      -8.4      0.000      0.000
REMARK  Name = 
REMARK  3 active torsions:
REMARK  status: ('A' for Active; 'I' for Inactive)
REMARK    1  A    between atoms: C_4  and  C_5
REMARK    2  A    between atoms: C_5  and  N_6
REMARK    3  A    between atoms: C_9  and  N_10
REMARK                            x       y       z     vdW  Elec       q    Type
REMARK                         _______ _______ _______ _____ _____    ______ ____
ROOT
ATOM      1  N   UNL     1       4.205   5.982  18.055  0.00  0.00    +0.000 N 
ATOM      2  C   UNL     1       5.424   5.504  17.548  0.00  0.00    +0.000 A 
ATOM      3  C   UNL     1       5.575   5.438  16.179  0.00  0.00    +0.000 A 
ATOM      4  C   UNL     1       6.764   4.909  15.712  0.00  0.00    +0.000 A 
ATOM      5  N   UNL     1       7.776   4.536  16.534  0.00  0.00    +0.000 NA
ATOM      6  C   UNL     1       7.540   4.690  17.838  0.00  0.00    +0.000 A 
ATOM      7  N   UNL     1       6.405   5.135  18.386  0.00  0.00    +0.000 NA
ATOM      8  H   UNL     1       4.134   6.982  17.882  0.00  0.00    +0.000 HD
ENDROOT
BRANCH   4   9
ATOM      9  N   UNL     1       6.939   4.723  14.308  0.00  0.00    +0.000 N 
ATOM     10  C   UNL     1       6.268   3.810  13.522  0.00  0.00    +0.000 A 
ATOM     11  C   UNL     1       6.748   3.949  12.243  0.00  0.00    +0.000 A 
ATOM     12  C   UNL     1       7.698   4.976  12.335  0.00  0.00    +0.000 A 
ATOM     13  N   UNL     1       7.815   5.462  13.574  0.00  0.00    +0.000 NA
ENDBRANCH   4   9
BRANCH   1  14
ATOM     14  C   UNL     1       3.960   5.643  19.451  0.00  0.00    +0.000 C 
BRANCH  14  18
ATOM     15  C   UNL     1       0.683   2.838  19.711  0.00  0.00    +0.000 A 
ATOM     16  C   UNL     1       1.246   3.358  20.876  0.00  0.00    +0.000 A 
ATOM     17  C   UNL     1       2.311   4.258  20.794  0.00  0.00    +0.000 A 
ATOM     18  C   UNL     1       2.828   4.643  19.549  0.00  0.00    +0.000 A 
ATOM     19  C   UNL     1       2.248   4.117  18.384  0.00  0.00    +0.000 A 
ATOM     20  C   UNL     1       1.182   3.219  18.467  0.00  0.00    +0.000 A 
ENDBRANCH  14  18
ENDBRANCH   1  14
TORSDOF 3
ENDMDL
MODEL 2
REMARK VINA RESULT:      -8.2      0.464      1.200
REMARK  Name = 
REMARK  3 active torsions:
REMARK  status: ('A' for Active; 'I' for Inactive)
REMARK    1  A    between atoms: C_4  and  C_5
REMARK    2  A    between atoms: C_5  and  N_6
REMARK    3  A    between atoms: C_9  and  N_10
REMARK                            x       y       z     vdW  Elec       q    Type
REMARK                         _______ _______ _______ _____ _____    ______ ____
ROOT
ATOM      1  N   UNL     1       3.799   6.486  17.819  0.00  0.00    +0.000 N 
ATOM      2  C   UNL     1       5.040   5.937  17.460  0.00  0.00    +0.000 A 
ATOM      3  C   UNL     1       5.301   5.744  16.120  0.00  0.00    +0.000 A 
ATOM      4  C   UNL     1       6.508   5.149  15.804  0.00  0.00    +0.000 A 
ATOM      5  N   UNL     1       7.438   4.829  16.737  0.00  0.00    +0.000 NA
ATOM      6  C   UNL     1       7.101   5.106  17.998  0.00  0.00    +0.000 A 
ATOM      7  N   UNL     1       5.939   5.624  18.407  0.00  0.00    +0.000 NA
ATOM      8  H   UNL     1       3.772   7.467  17.554  0.00  0.00    +0.000 HD
ENDROOT
BRANCH   4   9
ATOM      9  N   UNL     1       6.791   4.833  14.441  0.00  0.00    +0.000 N 
ATOM     10  C   UNL     1       6.155   3.874  13.682  0.00  0.00    +0.000 A 
ATOM     11  C   UNL     1       6.744   3.883  12.442  0.00  0.00    +0.000 A 
ATOM     12  C   UNL     1       7.720   4.886  12.526  0.00  0.00    +0.000 A 
ATOM     13  N   UNL     1       7.752   5.478  13.724  0.00  0.00    +0.000 NA
ENDBRANCH   4   9
BRANCH   1  14
ATOM     14  C   UNL     1       3.431   6.279  19.214  0.00  0.00    +0.000 C 
BRANCH  14  18
ATOM     15  C   UNL     1       0.789   2.879  19.573  0.00  0.00    +0.000 A 
ATOM     16  C   UNL     1       1.218   3.294  18.313  0.00  0.00    +0.000 A 
ATOM     17  C   UNL     1       2.065   4.398  18.194  0.00  0.00    +0.000 A 
ATOM     18  C   UNL     1       2.487   5.102  19.331  0.00  0.00    +0.000 A 
ATOM     19  C   UNL     1       2.052   4.669  20.593  0.00  0.00    +0.000 A 
ATOM     20  C   UNL     1       1.207   3.564  20.711  0.00  0.00    +0.000 A 
ENDBRANCH  14  18
ENDBRANCH   1  14
TORSDOF 3
ENDMDL
MODEL 3
REMARK VINA RESULT:      -7.6      1.060      1.157
REMARK  Name = 
REMARK  3 active torsions:
REMARK  status: ('A' for Active; 'I' for Inactive)
REMARK    1  A    between atoms: C_4  and  C_5
REMARK    2  A    between atoms: C_5  and  N_6
REMARK    3  A    between atoms: C_9  and  N_10
REMARK                            x       y       z     vdW  Elec       q    Type
REMARK                         _______ _______ _______ _____ _____    ______ ____
ROOT
ATOM      1  N   UNL     1       3.764   5.887  17.776  0.00  0.00    +0.000 N 
ATOM      2  C   UNL     1       5.043   5.869  17.197  0.00  0.00    +0.000 A 
ATOM      3  C   UNL     1       5.162   5.410  15.903  0.00  0.00    +0.000 A 
ATOM      4  C   UNL     1       6.441   5.349  15.382  0.00  0.00    +0.000 A 
ATOM      5  N   UNL     1       7.532   5.783  16.060  0.00  0.00    +0.000 NA
ATOM      6  C   UNL     1       7.294   6.254  17.285  0.00  0.00    +0.000 A 
ATOM      7  N   UNL     1       6.106   6.298  17.896  0.00  0.00    +0.000 NA
ATOM      8  H   UNL     1       3.205   6.617  17.343  0.00  0.00    +0.000 HD
ENDROOT
BRANCH   4   9
ATOM      9  N   UNL     1       6.638   4.790  14.084  0.00  0.00    +0.000 N 
ATOM     10  C   UNL     1       5.930   3.741  13.538  0.00  0.00    +0.000 A 
ATOM     11  C   UNL     1       6.449   3.511  12.287  0.00  0.00    +0.000 A 
ATOM     12  C   UNL     1       7.460   4.472  12.146  0.00  0.00    +0.000 A 
ATOM     13  N   UNL     1       7.578   5.260  13.218  0.00  0.00    +0.000 NA
ENDBRANCH   4   9
BRANCH   1  14
ATOM     14  C   UNL     1       3.764   5.979  19.231  0.00  0.00    +0.000 C 
BRANCH  14  18
ATOM     15  C   UNL     1       1.668   2.570  20.862  0.00  0.00    +0.000 A 
ATOM     16  C   UNL     1       1.016   3.799  20.752  0.00  0.00    +0.000 A 
ATOM     17  C   UNL     1       1.695   4.903  20.233  0.00  0.00    +0.000 A 
ATOM     18  C   UNL     1       3.032   4.795  19.824  0.00  0.00    +0.000 A 
ATOM     19  C   UNL     1       3.673   3.552  19.934  0.00  0.00    +0.000 A 
ATOM     20  C   UNL     1       2.994   2.447  20.451  0.00  0.00    +0.000 A 
ENDBRANCH  14  18
ENDBRANCH   1  14
TORSDOF 3
ENDMDL
MODEL 4
REMARK VINA RESULT:      -7.3      1.372      1.644
REMARK  Name = 
REMARK  3 active torsions:
REMARK  status: ('A' for Active; 'I' for Inactive)
REMARK    1  A    between atoms: C_4  and  C_5
REMARK    2  A    between atoms: C_5  and  N_6
REMARK    3  A    between atoms: C_9  and  N_10
REMARK                            x       y       z     vdW  Elec       q    Type
REMARK                         _______ _______ _______ _____ _____    ______ ____
ROOT
ATOM      1  N   UNL     1       4.826   3.156  18.045  0.00  0.00    +0.000 N 
ATOM      2  C   UNL     1       5.152   4.212  17.180  0.00  0.00    +0.000 A 
ATOM      3  C   UNL     1       5.604   3.898  15.916  0.00  0.00    +0.000 A 
ATOM      4  C   UNL     1       5.971   4.959  15.109  0.00  0.00    +0.000 A 
ATOM      5  N   UNL     1       5.834   6.253  15.487  0.00  0.00    +0.000 NA
ATOM      6  C   UNL     1       5.340   6.442  16.711  0.00  0.00    +0.000 A 
ATOM      7  N   UNL     1       5.012   5.485  17.585  0.00  0.00    +0.000 NA
ATOM      8  H   UNL     1       3.972   2.706  17.726  0.00  0.00    +0.000 HD
ENDROOT
BRANCH   4   9
ATOM      9  N   UNL     1       6.540   4.692  13.827  0.00  0.00    +0.000 N 
ATOM     10  C   UNL     1       6.183   3.664  12.980  0.00  0.00    +0.000 A 
ATOM     11  C   UNL     1       6.985   3.759  11.869  0.00  0.00    +0.000 A 
ATOM     12  C   UNL     1       7.792   4.879  12.115  0.00  0.00    +0.000 A 
ATOM     13  N   UNL     1       7.526   5.461  13.288  0.00  0.00    +0.000 NA
ENDBRANCH   4   9
BRANCH   1  14
ATOM     14  C   UNL     1       4.761   3.530  19.453  0.00  0.00    +0.000 C 
BRANCH  14  18
ATOM     15  C   UNL     1       0.747   3.027  20.969  0.00  0.00    +0.000 A 
ATOM     16  C   UNL     1       1.829   2.516  21.686  0.00  0.00    +0.000 A 
ATOM     17  C   UNL     1       3.126   2.671  21.193  0.00  0.00    +0.000 A 
ATOM     18  C   UNL     1       3.356   3.330  19.978  0.00  0.00    +0.000 A 
ATOM     19  C   UNL     1       2.259   3.844  19.270  0.00  0.00    +0.000 A 
ATOM     20  C   UNL     1       0.962   3.691  19.764  0.00  0.00    +0.000 A 
ENDBRANCH  14  18
ENDBRANCH   1  14
TORSDOF 3
ENDMDL
MODEL 5
REMARK VINA RESULT:      -7.3      1.384      1.911
REMARK  Name = 
REMARK  3 active torsions:
REMARK  status: ('A' for Active; 'I' for Inactive)
REMARK    1  A    between atoms: C_4  and  C_5
REMARK    2  A    between atoms: C_5  and  N_6
REMARK    3  A    between atoms: C_9  and  N_10
REMARK                            x       y       z     vdW  Elec       q    Type
REMARK                         _______ _______ _______ _____ _____    ______ ____
ROOT
ATOM      1  N   UNL     1       4.836   3.226  18.072  0.00  0.00    +0.000 N 
ATOM      2  C   UNL     1       5.128   4.264  17.174  0.00  0.00    +0.000 A 
ATOM      3  C   UNL     1       5.593   3.925  15.921  0.00  0.00    +0.000 A 
ATOM      4  C   UNL     1       5.927   4.970  15.080  0.00  0.00    +0.000 A 
ATOM      5  N   UNL     1       5.745   6.271  15.416  0.00  0.00    +0.000 NA
ATOM      6  C   UNL     1       5.243   6.482  16.633  0.00  0.00    +0.000 A 
ATOM      7  N   UNL     1       4.946   5.543  17.537  0.00  0.00    +0.000 NA
ATOM      8  H   UNL     1       3.999   2.738  17.767  0.00  0.00    +0.000 HD
ENDROOT
BRANCH   4   9
ATOM      9  N   UNL     1       6.506   4.682  13.808  0.00  0.00    +0.000 N 
ATOM     10  C   UNL     1       6.140   3.655  12.965  0.00  0.00    +0.000 A 
ATOM     11  C   UNL     1       6.958   3.724  11.863  0.00  0.00    +0.000 A 
ATOM     12  C   UNL     1       7.784   4.830  12.111  0.00  0.00    +0.000 A 
ATOM     13  N   UNL     1       7.515   5.427  13.276  0.00  0.00    +0.000 NA
ENDBRANCH   4   9
BRANCH   1  14
ATOM     14  C   UNL     1       4.756   3.643  19.467  0.00  0.00    +0.000 C 
BRANCH  14  18
ATOM     15  C   UNL     1       0.746   2.994  20.937  0.00  0.00    +0.000 A 
ATOM     16  C   UNL     1       0.945   3.703  19.752  0.00  0.00    +0.000 A 
ATOM     17  C   UNL     1       2.241   3.920  19.280  0.00  0.00    +0.000 A 
ATOM     18  C   UNL     1       3.351   3.439  19.988  0.00  0.00    +0.000 A 
ATOM     19  C   UNL     1       3.136   2.722  21.175  0.00  0.00    +0.000 A 
ATOM     20  C   UNL     1       1.840   2.503  21.646  0.00  0.00    +0.000 A 
ENDBRANCH  14  18
ENDBRANCH   1  14
TORSDOF 3
ENDMDL
MODEL 6
REMARK VINA RESULT:      -7.1      1.554      6.930
REMARK  Name = 
REMARK  3 active torsions:
REMARK  status: ('A' for Active; 'I' for Inactive)
REMARK    1  A    between atoms: C_4  and  C_5
REMARK    2  A    between atoms: C_5  and  N_6
REMARK    3  A    between atoms: C_9  and  N_10
REMARK                            x       y       z     vdW  Elec       q    Type
REMARK                         _______ _______ _______ _____ _____    ______ ____
ROOT
ATOM      1  N   UNL     1       6.436   4.355  16.634  0.00  0.00    +0.000 N 
ATOM      2  C   UNL     1       5.280   4.965  17.147  0.00  0.00    +0.000 A 
ATOM      3  C   UNL     1       4.341   4.162  17.760  0.00  0.00    +0.000 A 
ATOM      4  C   UNL     1       3.189   4.784  18.202  0.00  0.00    +0.000 A 
ATOM      5  N   UNL     1       2.997   6.124  18.118  0.00  0.00    +0.000 NA
ATOM      6  C   UNL     1       3.991   6.809  17.552  0.00  0.00    +0.000 A 
ATOM      7  N   UNL     1       5.114   6.293  17.042  0.00  0.00    +0.000 NA
ATOM      8  H   UNL     1       7.029   4.051  17.402  0.00  0.00    +0.000 HD
ENDROOT
BRANCH   4   9
ATOM      9  N   UNL     1       2.139   3.991  18.756  0.00  0.00    +0.000 N 
ATOM     10  C   UNL     1       1.712   4.013  20.066  0.00  0.00    +0.000 A 
ATOM     11  C   UNL     1       0.702   3.089  20.178  0.00  0.00    +0.000 A 
ATOM     12  C   UNL     1       0.569   2.559  18.886  0.00  0.00    +0.000 A 
ATOM     13  N   UNL     1       1.421   3.104  18.013  0.00  0.00    +0.000 NA
ENDBRANCH   4   9
BRANCH   1  14
ATOM     14  C   UNL     1       7.161   5.163  15.662  0.00  0.00    +0.000 C 
BRANCH  14  18
ATOM     15  C   UNL     1       6.419   3.730  11.654  0.00  0.00    +0.000 A 
ATOM     16  C   UNL     1       5.620   3.288  12.708  0.00  0.00    +0.000 A 
ATOM     17  C   UNL     1       5.864   3.743  14.005  0.00  0.00    +0.000 A 
ATOM     18  C   UNL     1       6.910   4.639  14.264  0.00  0.00    +0.000 A 
ATOM     19  C   UNL     1       7.702   5.081  13.193  0.00  0.00    +0.000 A 
ATOM     20  C   UNL     1       7.457   4.627  11.896  0.00  0.00    +0.000 A 
ENDBRANCH  14  18
ENDBRANCH   1  14
TORSDOF 3
ENDMDL
MODEL 7
REMARK VINA RESULT:      -7.0      1.394      1.915
REMARK  Name = 
REMARK  3 active torsions:
REMARK  status: ('A' for Active; 'I' for Inactive)
REMARK    1  A    between atoms: C_4  and  C_5
REMARK    2  A    between atoms: C_5  and  N_6
REMARK    3  A    between atoms: C_9  and  N_10
REMARK                            x       y       z     vdW  Elec       q    Type
REMARK                         _______ _______ _______ _____ _____    ______ ____
ROOT
ATOM      1  N   UNL     1       4.534   3.352  17.794  0.00  0.00    +0.000 N 
ATOM      2  C   UNL     1       5.467   4.166  17.133  0.00  0.00    +0.000 A 
ATOM      3  C   UNL     1       5.621   4.001  15.773  0.00  0.00    +0.000 A 
ATOM      4  C   UNL     1       6.588   4.777  15.160  0.00  0.00    +0.000 A 
ATOM      5  N   UNL     1       7.310   5.712  15.825  0.00  0.00    +0.000 NA
ATOM      6  C   UNL     1       7.043   5.822  17.127  0.00  0.00    +0.000 A 
ATOM      7  N   UNL     1       6.173   5.079  17.818  0.00  0.00    +0.000 NA
ATOM      8  H   UNL     1       3.593   3.635  17.537  0.00  0.00    +0.000 HD
ENDROOT
BRANCH   4   9
ATOM      9  N   UNL     1       6.862   4.580  13.774  0.00  0.00    +0.000 N 
ATOM     10  C   UNL     1       7.745   5.314  13.010  0.00  0.00    +0.000 A 
ATOM     11  C   UNL     1       7.691   4.810  11.733  0.00  0.00    +0.000 A 
ATOM     12  C   UNL     1       6.760   3.764  11.810  0.00  0.00    +0.000 A 
ATOM     13  N   UNL     1       6.261   3.604  13.039  0.00  0.00    +0.000 NA
ENDBRANCH   4   9
BRANCH   1  14
ATOM     14  C   UNL     1       4.715   3.283  19.239  0.00  0.00    +0.000 C 
BRANCH  14  18
ATOM     15  C   UNL     1       0.867   3.034  21.188  0.00  0.00    +0.000 A 
ATOM     16  C   UNL     1       0.976   3.655  19.944  0.00  0.00    +0.000 A 
ATOM     17  C   UNL     1       2.221   3.743  19.317  0.00  0.00    +0.000 A 
ATOM     18  C   UNL     1       3.369   3.219  19.927  0.00  0.00    +0.000 A 
ATOM     19  C   UNL     1       3.243   2.592  21.176  0.00  0.00    +0.000 A 
ATOM     20  C   UNL     1       1.999   2.501  21.802  0.00  0.00    +0.000 A 
ENDBRANCH  14  18
ENDBRANCH   1  14
TORSDOF 3
ENDMDL
MODEL 8
REMARK VINA RESULT:      -7.0      1.546      6.945
REMARK  Name = 
REMARK  3 active torsions:
REMARK  status: ('A' for Active; 'I' for Inactive)
REMARK    1  A    between atoms: C_4  and  C_5
REMARK    2  A    between atoms: C_5  and  N_6
REMARK    3  A    between atoms: C_9  and  N_10
REMARK                            x       y       z     vdW  Elec       q    Type
REMARK                         _______ _______ _______ _____ _____    ______ ____
ROOT
ATOM      1  N   UNL     1       6.456   4.541  16.704  0.00  0.00    +0.000 N 
ATOM      2  C   UNL     1       5.267   5.111  17.186  0.00  0.00    +0.000 A 
ATOM      3  C   UNL     1       4.356   4.282  17.806  0.00  0.00    +0.000 A 
ATOM      4  C   UNL     1       3.171   4.862  18.218  0.00  0.00    +0.000 A 
ATOM      5  N   UNL     1       2.922   6.189  18.098  0.00  0.00    +0.000 NA
ATOM      6  C   UNL     1       3.892   6.905  17.529  0.00  0.00    +0.000 A 
ATOM      7  N   UNL     1       5.044   6.427  17.047  0.00  0.00    +0.000 NA
ATOM      8  H   UNL     1       7.051   4.282  17.486  0.00  0.00    +0.000 HD
ENDROOT
BRANCH   4   9
ATOM      9  N   UNL     1       2.150   4.036  18.776  0.00  0.00    +0.000 N 
ATOM     10  C   UNL     1       1.814   3.954  20.110  0.00  0.00    +0.000 A 
ATOM     11  C   UNL     1       0.800   3.033  20.216  0.00  0.00    +0.000 A 
ATOM     12  C   UNL     1       0.570   2.614  18.897  0.00  0.00    +0.000 A 
ATOM     13  N   UNL     1       1.369   3.221  18.015  0.00  0.00    +0.000 NA
ENDBRANCH   4   9
BRANCH   1  14
ATOM     14  C   UNL     1       7.159   5.358  15.722  0.00  0.00    +0.000 C 
BRANCH  14  18
ATOM     15  C   UNL     1       6.528   3.728  11.771  0.00  0.00    +0.000 A 
ATOM     16  C   UNL     1       7.531   4.675  11.979  0.00  0.00    +0.000 A 
ATOM     17  C   UNL     1       7.730   5.209  13.254  0.00  0.00    +0.000 A 
ATOM     18  C   UNL     1       6.928   4.808  14.331  0.00  0.00    +0.000 A 
ATOM     19  C   UNL     1       5.927   3.850  14.109  0.00  0.00    +0.000 A 
ATOM     20  C   UNL     1       5.729   3.315  12.834  0.00  0.00    +0.000 A 
ENDBRANCH  14  18
ENDBRANCH   1  14
TORSDOF 3
ENDMDL
MODEL 9
REMARK VINA RESULT:      -7.0      2.506      3.035
REMARK  Name = 
REMARK  3 active torsions:
REMARK  status: ('A' for Active; 'I' for Inactive)
REMARK    1  A    between atoms: C_4  and  C_5
REMARK    2  A    between atoms: C_5  and  N_6
REMARK    3  A    between atoms: C_9  and  N_10
REMARK                            x       y       z     vdW  Elec       q    Type
REMARK                         _______ _______ _______ _____ _____    ______ ____
ROOT
ATOM      1  N   UNL     1       3.666   6.773  17.487  0.00  0.00    +0.000 N 
ATOM      2  C   UNL     1       4.821   6.018  17.230  0.00  0.00    +0.000 A 
ATOM      3  C   UNL     1       5.219   5.870  15.918  0.00  0.00    +0.000 A 
ATOM      4  C   UNL     1       6.326   5.073  15.693  0.00  0.00    +0.000 A 
ATOM      5  N   UNL     1       7.046   4.515  16.697  0.00  0.00    +0.000 NA
ATOM      6  C   UNL     1       6.600   4.765  17.928  0.00  0.00    +0.000 A 
ATOM      7  N   UNL     1       5.510   5.471  18.244  0.00  0.00    +0.000 NA
ATOM      8  H   UNL     1       3.856   7.756  17.313  0.00  0.00    +0.000 HD
ENDROOT
BRANCH   4   9
ATOM      9  N   UNL     1       6.726   4.801  14.350  0.00  0.00    +0.000 N 
ATOM     10  C   UNL     1       6.168   3.858  13.514  0.00  0.00    +0.000 A 
ATOM     11  C   UNL     1       6.858   3.912  12.327  0.00  0.00    +0.000 A 
ATOM     12  C   UNL     1       7.810   4.923  12.522  0.00  0.00    +0.000 A 
ATOM     13  N   UNL     1       7.734   5.478  13.735  0.00  0.00    +0.000 NA
ENDBRANCH   4   9
BRANCH   1  14
ATOM     14  C   UNL     1       3.081   6.548  18.804  0.00  0.00    +0.000 C 
BRANCH  14  18
ATOM     15  C   UNL     1       0.540   9.882  19.851  0.00  0.00    +0.000 A 
ATOM     16  C   UNL     1       0.856   8.921  20.811  0.00  0.00    +0.000 A 
ATOM     17  C   UNL     1       1.670   7.839  20.472  0.00  0.00    +0.000 A 
ATOM     18  C   UNL     1       2.172   7.700  19.170  0.00  0.00    +0.000 A 
ATOM     19  C   UNL     1       1.852   8.678  18.216  0.00  0.00    +0.000 A 
ATOM     20  C   UNL     1       1.039   9.761  18.555  0.00  0.00    +0.000 A 
ENDBRANCH  14  18
ENDBRANCH   1  14
TORSDOF 3
ENDMDL
