MODEL 1
REMARK VINA RESULT:      -8.5      0.000      0.000
REMARK  Name = 
REMARK  4 active torsions:
REMARK  status: ('A' for Active; 'I' for Inactive)
REMARK    1  A    between atoms: C_2  and  C_4
REMARK    2  A    between atoms: C_10  and  N_11
REMARK    3  A    between atoms: C_12  and  C_14
REMARK    4  A    between atoms: C_15  and  C_16
REMARK                            x       y       z     vdW  Elec       q    Type
REMARK                         _______ _______ _______ _____ _____    ______ ____
ROOT
ATOM      1  N   UNL     1       6.405   7.259  17.128  0.00  0.00    +0.000 N 
ATOM      2  C   UNL     1       7.553   7.552  17.854  0.00  0.00    +0.000 C 
ATOM      3  O   UNL     1       8.103   6.814  18.675  0.00  0.00    +0.000 OA
ATOM      4  H   UNL     1       6.109   7.908  16.405  0.00  0.00    +0.000 HD
ENDROOT
BRANCH   1  11
ATOM      5  C   UNL     1       5.751   4.990  16.299  0.00  0.00    +0.000 A 
ATOM      6  C   UNL     1       4.985   3.820  16.468  0.00  0.00    +0.000 A 
ATOM      7  C   UNL     1       4.161   3.678  17.577  0.00  0.00    +0.000 A 
ATOM      8 BR   UNL     1       3.163   2.099  17.828  0.00  0.00    +0.000 Br
ATOM      9  C   UNL     1       4.083   4.691  18.522  0.00  0.00    +0.000 A 
ATOM     10  C   UNL     1       4.824   5.854  18.344  0.00  0.00    +0.000 A 
ATOM     11  C   UNL     1       5.674   6.039  17.247  0.00  0.00    +0.000 A 
BRANCH   5  13
ATOM     12  N   UNL     1       6.340   4.174  14.094  0.00  0.00    +0.000 N 
ATOM     13  C   UNL     1       6.717   4.942  15.168  0.00  0.00    +0.000 C 
ATOM     14  O   UNL     1       7.738   5.612  15.145  0.00  0.00    +0.000 OA
ATOM     15  H   UNL     1       6.859   4.362  13.244  0.00  0.00    +0.000 HD
ATOM     16  H   UNL     1       5.368   3.929  13.984  0.00  0.00    +0.000 HD
ENDBRANCH   5  13
ENDBRANCH   1  11
BRANCH   2  17
ATOM     17  C   UNL     1       8.202   8.830  17.492  0.00  0.00    +0.000 C 
ATOM     18  C   UNL     1       8.571   9.640  18.499  0.00  0.00    +0.000 C 
BRANCH  18  19
ATOM     19  C   UNL     1       9.380  10.855  18.361  0.00  0.00    +0.000 A 
ATOM     20  C   UNL     1      10.701  10.939  18.810  0.00  0.00    +0.000 A 
ATOM     21  C   UNL     1      11.414  12.135  18.690  0.00  0.00    +0.000 A 
ATOM     22  C   UNL     1      10.812  13.249  18.109  0.00  0.00    +0.000 A 
ATOM     23 CL   UNL     1      11.685  14.725  17.986  0.00  0.00    +0.000 Cl
ATOM     24  C   UNL     1       9.507  13.173  17.629  0.00  0.00    +0.000 A 
ATOM     25  C   UNL     1       8.797  11.976  17.749  0.00  0.00    +0.000 A 
ENDBRANCH  18  19
ENDBRANCH   2  17
TORSDOF 4
ENDMDL
MODEL 2
REMARK VINA RESULT:      -8.5      0.948      1.353
REMARK  Name = 
REMARK  4 active torsions:
REMARK  status: ('A' for Active; 'I' for Inactive)
REMARK    1  A    between atoms: C_2  and  C_4
REMARK    2  A    between atoms: C_10  and  N_11
REMARK    3  A    between atoms: C_12  and  C_14
REMARK    4  A    between atoms: C_15  and  C_16
REMARK                            x       y       z     vdW  Elec       q    Type
REMARK                         _______ _______ _______ _____ _____    ______ ____
ROOT
ATOM      1  N   UNL     1       6.248   7.604  17.151  0.00  0.00    +0.000 N 
ATOM      2  C   UNL     1       7.440   7.737  17.853  0.00  0.00    +0.000 C 
ATOM      3  O   UNL     1       7.959   6.883  18.576  0.00  0.00    +0.000 OA
ATOM      4  H   UNL     1       5.979   8.340  16.507  0.00  0.00    +0.000 HD
ENDROOT
BRANCH   1  11
ATOM      5  C   UNL     1       5.799   5.208  16.581  0.00  0.00    +0.000 A 
ATOM      6  C   UNL     1       4.932   4.099  16.633  0.00  0.00    +0.000 A 
ATOM      7  C   UNL     1       3.713   4.195  17.291  0.00  0.00    +0.000 A 
ATOM      8 BR   UNL     1       2.565   2.704  17.395  0.00  0.00    +0.000 Br
ATOM      9  C   UNL     1       3.339   5.387  17.896  0.00  0.00    +0.000 A 
ATOM     10  C   UNL     1       4.187   6.487  17.828  0.00  0.00    +0.000 A 
ATOM     11  C   UNL     1       5.429   6.435  17.183  0.00  0.00    +0.000 A 
BRANCH   5  13
ATOM     12  N   UNL     1       8.007   4.239  16.817  0.00  0.00    +0.000 N 
ATOM     13  C   UNL     1       7.139   4.922  16.002  0.00  0.00    +0.000 C 
ATOM     14  O   UNL     1       7.428   5.189  14.845  0.00  0.00    +0.000 OA
ATOM     15  H   UNL     1       8.794   3.820  16.332  0.00  0.00    +0.000 HD
ATOM     16  H   UNL     1       7.640   3.729  17.605  0.00  0.00    +0.000 HD
ENDBRANCH   5  13
ENDBRANCH   1  11
BRANCH   2  17
ATOM     17  C   UNL     1       8.173   8.993  17.588  0.00  0.00    +0.000 C 
ATOM     18  C   UNL     1       8.543   9.726  18.653  0.00  0.00    +0.000 C 
BRANCH  18  19
ATOM     19  C   UNL     1       9.423  10.898  18.615  0.00  0.00    +0.000 A 
ATOM     20  C   UNL     1       9.305  11.900  17.647  0.00  0.00    +0.000 A 
ATOM     21  C   UNL     1      10.196  12.977  17.632  0.00  0.00    +0.000 A 
ATOM     22  C   UNL     1      11.201  13.061  18.593  0.00  0.00    +0.000 A 
ATOM     23 CL   UNL     1      12.310  14.375  18.555  0.00  0.00    +0.000 Cl
ATOM     24  C   UNL     1      11.313  12.088  19.582  0.00  0.00    +0.000 A 
ATOM     25  C   UNL     1      10.420  11.014  19.595  0.00  0.00    +0.000 A 
ENDBRANCH  18  19
ENDBRANCH   2  17
TORSDOF 4
ENDMDL
MODEL 3
REMARK VINA RESULT:      -8.4      1.338      1.452
REMARK  Name = 
REMARK  4 active torsions:
REMARK  status: ('A' for Active; 'I' for Inactive)
REMARK    1  A    between atoms: C_2  and  C_4
REMARK    2  A    between atoms: C_10  and  N_11
REMARK    3  A    between atoms: C_12  and  C_14
REMARK    4  A    between atoms: C_15  and  C_16
REMARK                            x       y       z     vdW  Elec       q    Type
REMARK                         _______ _______ _______ _____ _____    ______ ____
ROOT
ATOM      1  N   UNL     1       6.997   6.206  18.595  0.00  0.00    +0.000 N 
ATOM      2  C   UNL     1       7.270   7.303  17.787  0.00  0.00    +0.000 C 
ATOM      3  O   UNL     1       6.606   7.676  16.817  0.00  0.00    +0.000 OA
ATOM      4  H   UNL     1       7.561   6.063  19.427  0.00  0.00    +0.000 HD
ENDROOT
BRANCH   1  11
ATOM      5  C   UNL     1       5.767   4.466  17.281  0.00  0.00    +0.000 A 
ATOM      6  C   UNL     1       4.637   3.637  17.141  0.00  0.00    +0.000 A 
ATOM      7  C   UNL     1       3.642   3.643  18.110  0.00  0.00    +0.000 A 
ATOM      8 BR   UNL     1       2.145   2.509  17.946  0.00  0.00    +0.000 Br
ATOM      9  C   UNL     1       3.753   4.470  19.218  0.00  0.00    +0.000 A 
ATOM     10  C   UNL     1       4.859   5.302  19.346  0.00  0.00    +0.000 A 
ATOM     11  C   UNL     1       5.891   5.325  18.400  0.00  0.00    +0.000 A 
BRANCH   5  13
ATOM     12  N   UNL     1       6.415   4.181  14.964  0.00  0.00    +0.000 N 
ATOM     13  C   UNL     1       6.834   4.238  16.270  0.00  0.00    +0.000 C 
ATOM     14  O   UNL     1       8.021   4.196  16.560  0.00  0.00    +0.000 OA
ATOM     15  H   UNL     1       7.156   4.297  14.282  0.00  0.00    +0.000 HD
ATOM     16  H   UNL     1       5.514   4.564  14.721  0.00  0.00    +0.000 HD
ENDBRANCH   5  13
ENDBRANCH   1  11
BRANCH   2  17
ATOM     17  C   UNL     1       8.406   8.134  18.239  0.00  0.00    +0.000 C 
ATOM     18  C   UNL     1       8.311   9.461  18.049  0.00  0.00    +0.000 C 
BRANCH  18  19
ATOM     19  C   UNL     1       9.238  10.465  18.581  0.00  0.00    +0.000 A 
ATOM     20  C   UNL     1       9.394  10.700  19.950  0.00  0.00    +0.000 A 
ATOM     21  C   UNL     1      10.262  11.697  20.402  0.00  0.00    +0.000 A 
ATOM     22  C   UNL     1      10.988  12.456  19.485  0.00  0.00    +0.000 A 
ATOM     23 CL   UNL     1      12.037  13.699  20.045  0.00  0.00    +0.000 Cl
ATOM     24  C   UNL     1      10.867  12.214  18.120  0.00  0.00    +0.000 A 
ATOM     25  C   UNL     1       9.999  11.215  17.671  0.00  0.00    +0.000 A 
ENDBRANCH  18  19
ENDBRANCH   2  17
TORSDOF 4
ENDMDL
MODEL 4
REMARK VINA RESULT:      -8.2      1.249      1.589
REMARK  Name = 
REMARK  4 active torsions:
REMARK  status: ('A' for Active; 'I' for Inactive)
REMARK    1  A    between atoms: C_2  and  C_4
REMARK    2  A    between atoms: C_10  and  N_11
REMARK    3  A    between atoms: C_12  and  C_14
REMARK    4  A    between atoms: C_15  and  C_16
REMARK                            x       y       z     vdW  Elec       q    Type
REMARK                         _______ _______ _______ _____ _____    ______ ____
ROOT
ATOM      1  N   UNL     1       6.907   6.289  18.455  0.00  0.00    +0.000 N 
ATOM      2  C   UNL     1       7.117   7.371  17.608  0.00  0.00    +0.000 C 
ATOM      3  O   UNL     1       6.424   7.679  16.635  0.00  0.00    +0.000 OA
ATOM      4  H   UNL     1       7.487   6.202  19.284  0.00  0.00    +0.000 HD
ENDROOT
BRANCH   1  11
ATOM      5  C   UNL     1       5.739   4.461  17.207  0.00  0.00    +0.000 A 
ATOM      6  C   UNL     1       4.649   3.574  17.110  0.00  0.00    +0.000 A 
ATOM      7  C   UNL     1       3.674   3.553  18.100  0.00  0.00    +0.000 A 
ATOM      8 BR   UNL     1       2.233   2.344  17.994  0.00  0.00    +0.000 Br
ATOM      9  C   UNL     1       3.766   4.411  19.187  0.00  0.00    +0.000 A 
ATOM     10  C   UNL     1       4.832   5.299  19.272  0.00  0.00    +0.000 A 
ATOM     11  C   UNL     1       5.843   5.351  18.303  0.00  0.00    +0.000 A 
BRANCH   5  13
ATOM     12  N   UNL     1       6.347   4.025  14.902  0.00  0.00    +0.000 N 
ATOM     13  C   UNL     1       6.795   4.262  16.178  0.00  0.00    +0.000 C 
ATOM     14  O   UNL     1       7.986   4.391  16.422  0.00  0.00    +0.000 OA
ATOM     15  H   UNL     1       7.047   4.161  14.182  0.00  0.00    +0.000 HD
ATOM     16  H   UNL     1       5.399   4.273  14.662  0.00  0.00    +0.000 HD
ENDBRANCH   5  13
ENDBRANCH   1  11
BRANCH   2  17
ATOM     17  C   UNL     1       8.217   8.269  18.018  0.00  0.00    +0.000 C 
ATOM     18  C   UNL     1       8.024   9.590  17.858  0.00  0.00    +0.000 C 
BRANCH  18  19
ATOM     19  C   UNL     1       8.908  10.646  18.360  0.00  0.00    +0.000 A 
ATOM     20  C   UNL     1       9.069  11.872  17.707  0.00  0.00    +0.000 A 
ATOM     21  C   UNL     1       9.956  12.829  18.208  0.00  0.00    +0.000 A 
ATOM     22  C   UNL     1      10.677  12.568  19.371  0.00  0.00    +0.000 A 
ATOM     23 CL   UNL     1      11.786  13.739  19.970  0.00  0.00    +0.000 Cl
ATOM     24  C   UNL     1      10.505  11.365  20.051  0.00  0.00    +0.000 A 
ATOM     25  C   UNL     1       9.617  10.411  19.549  0.00  0.00    +0.000 A 
ENDBRANCH  18  19
ENDBRANCH   2  17
TORSDOF 4
ENDMDL
MODEL 5
REMARK VINA RESULT:      -7.9      1.106      1.120
REMARK  Name = 
REMARK  4 active torsions:
REMARK  status: ('A' for Active; 'I' for Inactive)
REMARK    1  A    between atoms: C_2  and  C_4
REMARK    2  A    between atoms: C_10  and  N_11
REMARK    3  A    between atoms: C_12  and  C_14
REMARK    4  A    between atoms: C_15  and  C_16
REMARK                            x       y       z     vdW  Elec       q    Type
REMARK                         _______ _______ _______ _____ _____    ______ ____
ROOT
ATOM      1  N   UNL     1       6.579   7.732  17.147  0.00  0.00    +0.000 N 
ATOM      2  C   UNL     1       7.716   7.782  17.945  0.00  0.00    +0.000 C 
ATOM      3  O   UNL     1       8.044   6.954  18.799  0.00  0.00    +0.000 OA
ATOM      4  H   UNL     1       6.473   8.419  16.408  0.00  0.00    +0.000 HD
ENDROOT
BRANCH   1  11
ATOM      5  C   UNL     1       5.794   5.401  16.681  0.00  0.00    +0.000 A 
ATOM      6  C   UNL     1       4.775   4.433  16.769  0.00  0.00    +0.000 A 
ATOM      7  C   UNL     1       3.575   4.736  17.399  0.00  0.00    +0.000 A 
ATOM      8 BR   UNL     1       2.221   3.433  17.552  0.00  0.00    +0.000 Br
ATOM      9  C   UNL     1       3.371   5.997  17.941  0.00  0.00    +0.000 A 
ATOM     10  C   UNL     1       4.370   6.958  17.838  0.00  0.00    +0.000 A 
ATOM     11  C   UNL     1       5.599   6.697  17.218  0.00  0.00    +0.000 A 
BRANCH   5  13
ATOM     12  N   UNL     1       7.935   4.332  17.058  0.00  0.00    +0.000 N 
ATOM     13  C   UNL     1       7.084   4.897  16.140  0.00  0.00    +0.000 C 
ATOM     14  O   UNL     1       7.343   4.895  14.946  0.00  0.00    +0.000 OA
ATOM     15  H   UNL     1       8.668   3.761  16.651  0.00  0.00    +0.000 HD
ATOM     16  H   UNL     1       7.566   4.026  17.945  0.00  0.00    +0.000 HD
ENDBRANCH   5  13
ENDBRANCH   1  11
BRANCH   2  17
ATOM     17  C   UNL     1       8.644   8.888  17.626  0.00  0.00    +0.000 C 
ATOM     18  C   UNL     1       8.323  10.111  18.083  0.00  0.00    +0.000 C 
BRANCH  18  19
ATOM     19  C   UNL     1       9.189  11.293  18.028  0.00  0.00    +0.000 A 
ATOM     20  C   UNL     1      10.569  11.210  17.822  0.00  0.00    +0.000 A 
ATOM     21  C   UNL     1      11.354  12.366  17.819  0.00  0.00    +0.000 A 
ATOM     22  C   UNL     1      10.759  13.612  18.009  0.00  0.00    +0.000 A 
ATOM     23 CL   UNL     1      11.733  15.030  18.029  0.00  0.00    +0.000 Cl
ATOM     24  C   UNL     1       9.382  13.715  18.184  0.00  0.00    +0.000 A 
ATOM     25  C   UNL     1       8.600  12.557  18.186  0.00  0.00    +0.000 A 
ENDBRANCH  18  19
ENDBRANCH   2  17
TORSDOF 4
ENDMDL
MODEL 6
REMARK VINA RESULT:      -7.8      6.072      7.906
REMARK  Name = 
REMARK  4 active torsions:
REMARK  status: ('A' for Active; 'I' for Inactive)
REMARK    1  A    between atoms: C_2  and  C_4
REMARK    2  A    between atoms: C_10  and  N_11
REMARK    3  A    between atoms: C_12  and  C_14
REMARK    4  A    between atoms: C_15  and  C_16
REMARK                            x       y       z     vdW  Elec       q    Type
REMARK                         _______ _______ _______ _____ _____    ______ ____
ROOT
ATOM      1  N   UNL     1       2.553   6.614  18.720  0.00  0.00    +0.000 N 
ATOM      2  C   UNL     1       2.344   6.143  20.010  0.00  0.00    +0.000 C 
ATOM      3  O   UNL     1       2.909   5.181  20.535  0.00  0.00    +0.000 OA
ATOM      4  H   UNL     1       2.103   7.479  18.439  0.00  0.00    +0.000 HD
ENDROOT
BRANCH   1  11
ATOM      5  C   UNL     1       3.373   4.678  17.360  0.00  0.00    +0.000 A 
ATOM      6  C   UNL     1       4.319   4.155  16.458  0.00  0.00    +0.000 A 
ATOM      7  C   UNL     1       5.340   4.960  15.970  0.00  0.00    +0.000 A 
ATOM      8 BR   UNL     1       6.587   4.275  14.734  0.00  0.00    +0.000 Br
ATOM      9  C   UNL     1       5.437   6.284  16.374  0.00  0.00    +0.000 A 
ATOM     10  C   UNL     1       4.514   6.795  17.279  0.00  0.00    +0.000 A 
ATOM     11  C   UNL     1       3.464   6.024  17.793  0.00  0.00    +0.000 A 
BRANCH   5  13
ATOM     12  N   UNL     1       2.537   2.692  18.467  0.00  0.00    +0.000 N 
ATOM     13  C   UNL     1       2.238   3.767  17.668  0.00  0.00    +0.000 C 
ATOM     14  O   UNL     1       1.091   4.001  17.318  0.00  0.00    +0.000 OA
ATOM     15  H   UNL     1       1.729   2.244  18.885  0.00  0.00    +0.000 HD
ATOM     16  H   UNL     1       3.378   2.713  19.023  0.00  0.00    +0.000 HD
ENDBRANCH   5  13
ENDBRANCH   1  11
BRANCH   2  17
ATOM     17  C   UNL     1       1.434   6.973  20.828  0.00  0.00    +0.000 C 
ATOM     18  C   UNL     1       1.494   8.305  20.654  0.00  0.00    +0.000 C 
BRANCH  18  19
ATOM     19  C   UNL     1       0.563   9.280  21.231  0.00  0.00    +0.000 A 
ATOM     20  C   UNL     1       0.029  10.342  20.495  0.00  0.00    +0.000 A 
ATOM     21  C   UNL     1      -0.823  11.267  21.105  0.00  0.00    +0.000 A 
ATOM     22  C   UNL     1      -1.152  11.127  22.452  0.00  0.00    +0.000 A 
ATOM     23 CL   UNL     1      -2.181  12.282  23.204  0.00  0.00    +0.000 Cl
ATOM     24  C   UNL     1      -0.654  10.058  23.191  0.00  0.00    +0.000 A 
ATOM     25  C   UNL     1       0.196   9.134  22.578  0.00  0.00    +0.000 A 
ENDBRANCH  18  19
ENDBRANCH   2  17
TORSDOF 4
ENDMDL
MODEL 7
REMARK VINA RESULT:      -7.7      1.686      2.083
REMARK  Name = 
REMARK  4 active torsions:
REMARK  status: ('A' for Active; 'I' for Inactive)
REMARK    1  A    between atoms: C_2  and  C_4
REMARK    2  A    between atoms: C_10  and  N_11
REMARK    3  A    between atoms: C_12  and  C_14
REMARK    4  A    between atoms: C_15  and  C_16
REMARK                            x       y       z     vdW  Elec       q    Type
REMARK                         _______ _______ _______ _____ _____    ______ ____
ROOT
ATOM      1  N   UNL     1       6.218   7.613  18.073  0.00  0.00    +0.000 N 
ATOM      2  C   UNL     1       7.372   7.777  17.317  0.00  0.00    +0.000 C 
ATOM      3  O   UNL     1       7.815   6.983  16.483  0.00  0.00    +0.000 OA
ATOM      4  H   UNL     1       5.902   8.386  18.650  0.00  0.00    +0.000 HD
ENDROOT
BRANCH   1  11
ATOM      5  C   UNL     1       5.809   5.154  18.303  0.00  0.00    +0.000 A 
ATOM      6  C   UNL     1       4.924   4.065  18.190  0.00  0.00    +0.000 A 
ATOM      7  C   UNL     1       3.608   4.271  17.797  0.00  0.00    +0.000 A 
ATOM      8 BR   UNL     1       2.409   2.821  17.679  0.00  0.00    +0.000 Br
ATOM      9  C   UNL     1       3.159   5.551  17.507  0.00  0.00    +0.000 A 
ATOM     10  C   UNL     1       4.038   6.624  17.601  0.00  0.00    +0.000 A 
ATOM     11  C   UNL     1       5.371   6.467  18.000  0.00  0.00    +0.000 A 
BRANCH   5  13
ATOM     12  N   UNL     1       8.026   4.209  18.054  0.00  0.00    +0.000 N 
ATOM     13  C   UNL     1       7.132   4.822  18.896  0.00  0.00    +0.000 C 
ATOM     14  O   UNL     1       7.447   5.152  20.030  0.00  0.00    +0.000 OA
ATOM     15  H   UNL     1       8.987   4.234  18.375  0.00  0.00    +0.000 HD
ATOM     16  H   UNL     1       7.881   4.270  17.058  0.00  0.00    +0.000 HD
ENDBRANCH   5  13
ENDBRANCH   1  11
BRANCH   2  17
ATOM     17  C   UNL     1       8.034   9.088  17.479  0.00  0.00    +0.000 C 
ATOM     18  C   UNL     1       8.612   9.343  18.666  0.00  0.00    +0.000 C 
BRANCH  18  19
ATOM     19  C   UNL     1       9.464  10.498  18.967  0.00  0.00    +0.000 A 
ATOM     20  C   UNL     1       9.723  10.926  20.273  0.00  0.00    +0.000 A 
ATOM     21  C   UNL     1      10.510  12.058  20.503  0.00  0.00    +0.000 A 
ATOM     22  C   UNL     1      11.050  12.760  19.427  0.00  0.00    +0.000 A 
ATOM     23 CL   UNL     1      11.997  14.166  19.714  0.00  0.00    +0.000 Cl
ATOM     24  C   UNL     1      10.827  12.329  18.122  0.00  0.00    +0.000 A 
ATOM     25  C   UNL     1      10.042  11.196  17.895  0.00  0.00    +0.000 A 
ENDBRANCH  18  19
ENDBRANCH   2  17
TORSDOF 4
ENDMDL
MODEL 8
REMARK VINA RESULT:      -7.7      1.694      2.183
REMARK  Name = 
REMARK  4 active torsions:
REMARK  status: ('A' for Active; 'I' for Inactive)
REMARK    1  A    between atoms: C_2  and  C_4
REMARK    2  A    between atoms: C_10  and  N_11
REMARK    3  A    between atoms: C_12  and  C_14
REMARK    4  A    between atoms: C_15  and  C_16
REMARK                            x       y       z     vdW  Elec       q    Type
REMARK                         _______ _______ _______ _____ _____    ______ ____
ROOT
ATOM      1  N   UNL     1       6.149   7.592  18.054  0.00  0.00    +0.000 N 
ATOM      2  C   UNL     1       7.321   7.744  17.323  0.00  0.00    +0.000 C 
ATOM      3  O   UNL     1       7.796   6.927  16.531  0.00  0.00    +0.000 OA
ATOM      4  H   UNL     1       5.807   8.381  18.595  0.00  0.00    +0.000 HD
ENDROOT
BRANCH   1  11
ATOM      5  C   UNL     1       5.779   5.131  18.319  0.00  0.00    +0.000 A 
ATOM      6  C   UNL     1       4.910   4.026  18.225  0.00  0.00    +0.000 A 
ATOM      7  C   UNL     1       3.589   4.207  17.838  0.00  0.00    +0.000 A 
ATOM      8 BR   UNL     1       2.412   2.737  17.746  0.00  0.00    +0.000 Br
ATOM      9  C   UNL     1       3.118   5.476  17.535  0.00  0.00    +0.000 A 
ATOM     10  C   UNL     1       3.982   6.564  17.609  0.00  0.00    +0.000 A 
ATOM     11  C   UNL     1       5.319   6.432  18.002  0.00  0.00    +0.000 A 
BRANCH   5  13
ATOM     12  N   UNL     1       8.003   4.202  18.073  0.00  0.00    +0.000 N 
ATOM     13  C   UNL     1       7.110   4.826  18.909  0.00  0.00    +0.000 C 
ATOM     14  O   UNL     1       7.432   5.186  20.031  0.00  0.00    +0.000 OA
ATOM     15  H   UNL     1       8.967   4.246  18.385  0.00  0.00    +0.000 HD
ATOM     16  H   UNL     1       7.850   4.238  17.077  0.00  0.00    +0.000 HD
ENDBRANCH   5  13
ENDBRANCH   1  11
BRANCH   2  17
ATOM     17  C   UNL     1       7.961   9.070  17.454  0.00  0.00    +0.000 C 
ATOM     18  C   UNL     1       8.606   9.330  18.605  0.00  0.00    +0.000 C 
BRANCH  18  19
ATOM     19  C   UNL     1       9.447  10.503  18.862  0.00  0.00    +0.000 A 
ATOM     20  C   UNL     1      10.027  11.257  17.837  0.00  0.00    +0.000 A 
ATOM     21  C   UNL     1      10.854  12.342  18.139  0.00  0.00    +0.000 A 
ATOM     22  C   UNL     1      11.095  12.685  19.468  0.00  0.00    +0.000 A 
ATOM     23 CL   UNL     1      12.134  14.006  19.834  0.00  0.00    +0.000 Cl
ATOM     24  C   UNL     1      10.501  11.964  20.499  0.00  0.00    +0.000 A 
ATOM     25  C   UNL     1       9.673  10.881  20.195  0.00  0.00    +0.000 A 
ENDBRANCH  18  19
ENDBRANCH   2  17
TORSDOF 4
ENDMDL
MODEL 9
REMARK VINA RESULT:      -7.6      6.059      7.844
REMARK  Name = 
REMARK  4 active torsions:
REMARK  status: ('A' for Active; 'I' for Inactive)
REMARK    1  A    between atoms: C_2  and  C_4
REMARK    2  A    between atoms: C_10  and  N_11
REMARK    3  A    between atoms: C_12  and  C_14
REMARK    4  A    between atoms: C_15  and  C_16
REMARK                            x       y       z     vdW  Elec       q    Type
REMARK                         _______ _______ _______ _____ _____    ______ ____
ROOT
ATOM      1  N   UNL     1       2.601   6.726  18.751  0.00  0.00    +0.000 N 
ATOM      2  C   UNL     1       2.340   6.188  20.006  0.00  0.00    +0.000 C 
ATOM      3  O   UNL     1       2.831   5.158  20.473  0.00  0.00    +0.000 OA
ATOM      4  H   UNL     1       2.214   7.636  18.523  0.00  0.00    +0.000 HD
ENDROOT
BRANCH   1  11
ATOM      5  C   UNL     1       3.366   4.797  17.351  0.00  0.00    +0.000 A 
ATOM      6  C   UNL     1       4.285   4.273  16.422  0.00  0.00    +0.000 A 
ATOM      7  C   UNL     1       5.307   5.071  15.923  0.00  0.00    +0.000 A 
ATOM      8 BR   UNL     1       6.519   4.385  14.652  0.00  0.00    +0.000 Br
ATOM      9  C   UNL     1       5.431   6.388  16.341  0.00  0.00    +0.000 A 
ATOM     10  C   UNL     1       4.534   6.899  17.272  0.00  0.00    +0.000 A 
ATOM     11  C   UNL     1       3.484   6.136  17.798  0.00  0.00    +0.000 A 
BRANCH   5  13
ATOM     12  N   UNL     1       2.536   2.780  18.406  0.00  0.00    +0.000 N 
ATOM     13  C   UNL     1       2.225   3.898  17.671  0.00  0.00    +0.000 C 
ATOM     14  O   UNL     1       1.069   4.172  17.386  0.00  0.00    +0.000 OA
ATOM     15  H   UNL     1       1.737   2.332  18.841  0.00  0.00    +0.000 HD
ATOM     16  H   UNL     1       3.402   2.758  18.922  0.00  0.00    +0.000 HD
ENDBRANCH   5  13
ENDBRANCH   1  11
BRANCH   2  17
ATOM     17  C   UNL     1       1.476   7.024  20.866  0.00  0.00    +0.000 C 
ATOM     18  C   UNL     1       1.512   8.353  20.667  0.00  0.00    +0.000 C 
BRANCH  18  19
ATOM     19  C   UNL     1       0.611   9.330  21.286  0.00  0.00    +0.000 A 
ATOM     20  C   UNL     1       0.120   9.188  22.588  0.00  0.00    +0.000 A 
ATOM     21  C   UNL     1      -0.769  10.129  23.115  0.00  0.00    +0.000 A 
ATOM     22  C   UNL     1      -1.162  11.223  22.346  0.00  0.00    +0.000 A 
ATOM     23 CL   UNL     1      -2.275  12.365  22.990  0.00  0.00    +0.000 Cl
ATOM     24  C   UNL     1      -0.658  11.396  21.059  0.00  0.00    +0.000 A 
ATOM     25  C   UNL     1       0.231  10.454  20.535  0.00  0.00    +0.000 A 
ENDBRANCH  18  19
ENDBRANCH   2  17
TORSDOF 4
ENDMDL
