MODEL 1
REMARK VINA RESULT:      -9.0      0.000      0.000
REMARK  Name = 
REMARK  11 active torsions:
REMARK  status: ('A' for Active; 'I' for Inactive)
REMARK    1  A    between atoms: C_1  and  O_2
REMARK    2  A    between atoms: O_2  and  C_3
REMARK    3  A    between atoms: C_8  and  C_9
REMARK    4  A    between atoms: C_10  and  C_11
REMARK    5  A    between atoms: N_13  and  C_14
REMARK    6  A    between atoms: C_14  and  C_15
REMARK    7  A    between atoms: C_14  and  C_25
REMARK    8  A    between atoms: C_15  and  O_16
REMARK    9  A    between atoms: O_16  and  C_17
REMARK   10  A    between atoms: C_17  and  C_19
REMARK   11  A    between atoms: N_27  and  C_28
REMARK                            x       y       z     vdW  Elec       q    Type
REMARK                         _______ _______ _______ _____ _____    ______ ____
ROOT
ATOM      1  C   UNL     1       3.834   6.014  17.276  0.00  0.00    +0.000 C 
ENDROOT
BRANCH   1   4
ATOM      2  C   UNL     1       2.529   7.980  18.134  0.00  0.00    +0.000 C 
ATOM      3  O   UNL     1       2.637   8.638  17.108  0.00  0.00    +0.000 OA
ATOM      4  N   UNL     1       2.995   6.694  18.273  0.00  0.00    +0.000 N 
ATOM      5  H   UNL     1       2.962   6.265  19.189  0.00  0.00    +0.000 HD
BRANCH   2   7
ATOM      6  C   UNL     1       0.955   9.474  19.343  0.00  0.00    +0.000 C 
ATOM      7  C   UNL     1       1.875   8.499  19.378  0.00  0.00    +0.000 C 
BRANCH   6  13
ATOM      8  C   UNL     1      -0.270  11.402  20.538  0.00  0.00    +0.000 A 
ATOM      9  C   UNL     1      -0.892  11.867  21.715  0.00  0.00    +0.000 A 
ATOM     10  C   UNL     1      -0.888  11.103  22.881  0.00  0.00    +0.000 A 
ATOM     11  C   UNL     1      -0.275   9.859  22.883  0.00  0.00    +0.000 A 
ATOM     12  C   UNL     1       0.306   9.370  21.708  0.00  0.00    +0.000 A 
ATOM     13  C   UNL     1       0.303  10.114  20.510  0.00  0.00    +0.000 A 
BRANCH   8  15
ATOM     14  C   UNL     1      -1.450  12.175  18.636  0.00  0.00    +0.000 C 
ATOM     15  O   UNL     1      -0.243  12.169  19.397  0.00  0.00    +0.000 OA
ENDBRANCH   8  15
ENDBRANCH   6  13
ENDBRANCH   2   7
ENDBRANCH   1   4
BRANCH   1  16
ATOM     16  C   UNL     1       3.688   4.488  17.426  0.00  0.00    +0.000 C 
ATOM     17  O   UNL     1       4.225   3.683  16.668  0.00  0.00    +0.000 OA
ATOM     18  N   UNL     1       2.848   4.099  18.447  0.00  0.00    +0.000 N 
ATOM     19  H   UNL     1       2.298   4.831  18.884  0.00  0.00    +0.000 HD
BRANCH  18  20
ATOM     20  C   UNL     1       2.497   2.701  18.683  0.00  0.00    +0.000 C 
ATOM     21  C   UNL     1       3.328   2.120  19.830  0.00  0.00    +0.000 C 
ATOM     22  C   UNL     1       2.971   2.753  21.174  0.00  0.00    +0.000 C 
ATOM     23  C   UNL     1       1.477   2.647  21.469  0.00  0.00    +0.000 C 
ATOM     24  C   UNL     1       0.608   3.155  20.319  0.00  0.00    +0.000 C 
ATOM     25  C   UNL     1       1.002   2.533  18.979  0.00  0.00    +0.000 C 
ENDBRANCH  18  20
ENDBRANCH   1  16
BRANCH   1  26
ATOM     26  C   UNL     1       5.324   6.373  17.416  0.00  0.00    +0.000 C 
BRANCH  26  27
ATOM     27  O   UNL     1       5.997   6.364  16.147  0.00  0.00    +0.000 OA
BRANCH  27  28
ATOM     28  C   UNL     1       6.899   5.366  15.980  0.00  0.00    +0.000 C 
ATOM     29  O   UNL     1       7.632   4.910  16.843  0.00  0.00    +0.000 OA
BRANCH  28  30
ATOM     30  C   UNL     1       6.893   4.900  14.570  0.00  0.00    +0.000 A 
ATOM     31  C   UNL     1       7.787   5.501  13.674  0.00  0.00    +0.000 A 
ATOM     32  C   UNL     1       7.817   5.101  12.339  0.00  0.00    +0.000 A 
ATOM     33  C   UNL     1       6.957   4.097  11.893  0.00  0.00    +0.000 A 
ATOM     34  C   UNL     1       6.069   3.490  12.778  0.00  0.00    +0.000 A 
ATOM     35  C   UNL     1       6.035   3.889  14.118  0.00  0.00    +0.000 A 
ENDBRANCH  28  30
ENDBRANCH  27  28
ENDBRANCH  26  27
ENDBRANCH   1  26
TORSDOF 10
ENDMDL
MODEL 2
REMARK VINA RESULT:      -8.8      4.472      6.447
REMARK  Name = 
REMARK  11 active torsions:
REMARK  status: ('A' for Active; 'I' for Inactive)
REMARK    1  A    between atoms: C_1  and  O_2
REMARK    2  A    between atoms: O_2  and  C_3
REMARK    3  A    between atoms: C_8  and  C_9
REMARK    4  A    between atoms: C_10  and  C_11
REMARK    5  A    between atoms: N_13  and  C_14
REMARK    6  A    between atoms: C_14  and  C_15
REMARK    7  A    between atoms: C_14  and  C_25
REMARK    8  A    between atoms: C_15  and  O_16
REMARK    9  A    between atoms: O_16  and  C_17
REMARK   10  A    between atoms: C_17  and  C_19
REMARK   11  A    between atoms: N_27  and  C_28
REMARK                            x       y       z     vdW  Elec       q    Type
REMARK                         _______ _______ _______ _____ _____    ______ ____
ROOT
ATOM      1  C   UNL     1       6.714   5.723  17.783  0.00  0.00    +0.000 C 
ENDROOT
BRANCH   1   4
ATOM      2  C   UNL     1       7.648   8.053  17.737  0.00  0.00    +0.000 C 
ATOM      3  O   UNL     1       6.771   8.507  17.015  0.00  0.00    +0.000 OA
ATOM      4  N   UNL     1       7.656   6.765  18.216  0.00  0.00    +0.000 N 
ATOM      5  H   UNL     1       8.474   6.440  18.715  0.00  0.00    +0.000 HD
BRANCH   2   7
ATOM      6  C   UNL     1       8.731  10.132  18.561  0.00  0.00    +0.000 C 
ATOM      7  C   UNL     1       8.836   8.849  18.187  0.00  0.00    +0.000 C 
BRANCH   6  13
ATOM      8  C   UNL     1      10.101  11.524  20.244  0.00  0.00    +0.000 A 
ATOM      9  C   UNL     1      11.223  12.346  20.472  0.00  0.00    +0.000 A 
ATOM     10  C   UNL     1      12.048  12.743  19.421  0.00  0.00    +0.000 A 
ATOM     11  C   UNL     1      11.770  12.314  18.131  0.00  0.00    +0.000 A 
ATOM     12  C   UNL     1      10.684  11.463  17.902  0.00  0.00    +0.000 A 
ATOM     13  C   UNL     1       9.843  11.032  18.949  0.00  0.00    +0.000 A 
BRANCH   8  15
ATOM     14  C   UNL     1       8.562  12.231  21.900  0.00  0.00    +0.000 C 
ATOM     15  O   UNL     1       9.265  11.159  21.275  0.00  0.00    +0.000 OA
ENDBRANCH   8  15
ENDBRANCH   6  13
ENDBRANCH   2   7
ENDBRANCH   1   4
BRANCH   1  16
ATOM     16  C   UNL     1       6.011   5.113  19.009  0.00  0.00    +0.000 C 
ATOM     17  O   UNL     1       6.535   5.038  20.118  0.00  0.00    +0.000 OA
ATOM     18  N   UNL     1       4.760   4.597  18.744  0.00  0.00    +0.000 N 
ATOM     19  H   UNL     1       4.499   4.524  17.766  0.00  0.00    +0.000 HD
BRANCH  18  20
ATOM     20  C   UNL     1       3.979   3.883  19.750  0.00  0.00    +0.000 C 
ATOM     21  C   UNL     1       2.502   4.281  19.671  0.00  0.00    +0.000 C 
ATOM     22  C   UNL     1       1.847   3.796  18.378  0.00  0.00    +0.000 C 
ATOM     23  C   UNL     1       2.023   2.291  18.185  0.00  0.00    +0.000 C 
ATOM     24  C   UNL     1       3.477   1.842  18.324  0.00  0.00    +0.000 C 
ATOM     25  C   UNL     1       4.122   2.363  19.609  0.00  0.00    +0.000 C 
ENDBRANCH  18  20
ENDBRANCH   1  16
BRANCH   1  26
ATOM     26  C   UNL     1       7.406   4.588  17.008  0.00  0.00    +0.000 C 
BRANCH  26  27
ATOM     27  O   UNL     1       7.157   4.675  15.596  0.00  0.00    +0.000 OA
BRANCH  27  28
ATOM     28  C   UNL     1       5.946   4.216  15.195  0.00  0.00    +0.000 C 
ATOM     29  O   UNL     1       4.969   4.050  15.910  0.00  0.00    +0.000 OA
BRANCH  28  30
ATOM     30  C   UNL     1       5.966   3.915  13.742  0.00  0.00    +0.000 A 
ATOM     31  C   UNL     1       4.780   3.465  13.146  0.00  0.00    +0.000 A 
ATOM     32  C   UNL     1       4.749   3.166  11.785  0.00  0.00    +0.000 A 
ATOM     33  C   UNL     1       5.901   3.315  11.012  0.00  0.00    +0.000 A 
ATOM     34  C   UNL     1       7.084   3.766  11.595  0.00  0.00    +0.000 A 
ATOM     35  C   UNL     1       7.119   4.067  12.961  0.00  0.00    +0.000 A 
ENDBRANCH  28  30
ENDBRANCH  27  28
ENDBRANCH  26  27
ENDBRANCH   1  26
TORSDOF 10
ENDMDL
MODEL 3
REMARK VINA RESULT:      -8.8      1.714      2.325
REMARK  Name = 
REMARK  11 active torsions:
REMARK  status: ('A' for Active; 'I' for Inactive)
REMARK    1  A    between atoms: C_1  and  O_2
REMARK    2  A    between atoms: O_2  and  C_3
REMARK    3  A    between atoms: C_8  and  C_9
REMARK    4  A    between atoms: C_10  and  C_11
REMARK    5  A    between atoms: N_13  and  C_14
REMARK    6  A    between atoms: C_14  and  C_15
REMARK    7  A    between atoms: C_14  and  C_25
REMARK    8  A    between atoms: C_15  and  O_16
REMARK    9  A    between atoms: O_16  and  C_17
REMARK   10  A    between atoms: C_17  and  C_19
REMARK   11  A    between atoms: N_27  and  C_28
REMARK                            x       y       z     vdW  Elec       q    Type
REMARK                         _______ _______ _______ _____ _____    ______ ____
ROOT
ATOM      1  C   UNL     1       4.825   6.368  17.616  0.00  0.00    +0.000 C 
ENDROOT
BRANCH   1   4
ATOM      2  C   UNL     1       2.621   7.551  17.833  0.00  0.00    +0.000 C 
ATOM      3  O   UNL     1       1.946   6.532  17.790  0.00  0.00    +0.000 OA
ATOM      4  N   UNL     1       3.995   7.561  17.839  0.00  0.00    +0.000 N 
ATOM      5  H   UNL     1       4.473   8.450  17.764  0.00  0.00    +0.000 HD
BRANCH   2   7
ATOM      6  C   UNL     1       1.127   9.282  18.805  0.00  0.00    +0.000 C 
ATOM      7  C   UNL     1       2.030   8.927  17.880  0.00  0.00    +0.000 C 
BRANCH   6  13
ATOM      8  C   UNL     1       0.999  11.854  18.711  0.00  0.00    +0.000 A 
ATOM      9  C   UNL     1       0.194  13.009  18.794  0.00  0.00    +0.000 A 
ATOM     10  C   UNL     1      -1.156  12.921  19.131  0.00  0.00    +0.000 A 
ATOM     11  C   UNL     1      -1.722  11.678  19.377  0.00  0.00    +0.000 A 
ATOM     12  C   UNL     1      -0.942  10.524  19.253  0.00  0.00    +0.000 A 
ATOM     13  C   UNL     1       0.422  10.582  18.899  0.00  0.00    +0.000 A 
BRANCH   8  15
ATOM     14  C   UNL     1       2.830  13.263  18.190  0.00  0.00    +0.000 C 
ATOM     15  O   UNL     1       2.339  11.942  18.413  0.00  0.00    +0.000 OA
ENDBRANCH   8  15
ENDBRANCH   6  13
ENDBRANCH   2   7
ENDBRANCH   1   4
BRANCH   1  16
ATOM     16  C   UNL     1       4.776   5.458  18.857  0.00  0.00    +0.000 C 
ATOM     17  O   UNL     1       5.666   5.428  19.706  0.00  0.00    +0.000 OA
ATOM     18  N   UNL     1       3.676   4.629  18.907  0.00  0.00    +0.000 N 
ATOM     19  H   UNL     1       3.106   4.583  18.069  0.00  0.00    +0.000 HD
BRANCH  18  20
ATOM     20  C   UNL     1       3.502   3.621  19.949  0.00  0.00    +0.000 C 
ATOM     21  C   UNL     1       2.375   4.020  20.906  0.00  0.00    +0.000 C 
ATOM     22  C   UNL     1       1.008   3.992  20.224  0.00  0.00    +0.000 C 
ATOM     23  C   UNL     1       0.726   2.637  19.578  0.00  0.00    +0.000 C 
ATOM     24  C   UNL     1       1.859   2.169  18.665  0.00  0.00    +0.000 C 
ATOM     25  C   UNL     1       3.221   2.234  19.356  0.00  0.00    +0.000 C 
ENDBRANCH  18  20
ENDBRANCH   1  16
BRANCH   1  26
ATOM     26  C   UNL     1       6.296   6.718  17.330  0.00  0.00    +0.000 C 
BRANCH  26  27
ATOM     27  O   UNL     1       6.665   6.409  15.977  0.00  0.00    +0.000 OA
BRANCH  27  28
ATOM     28  C   UNL     1       7.188   5.171  15.790  0.00  0.00    +0.000 C 
ATOM     29  O   UNL     1       7.832   4.534  16.609  0.00  0.00    +0.000 OA
BRANCH  28  30
ATOM     30  C   UNL     1       6.882   4.687  14.420  0.00  0.00    +0.000 A 
ATOM     31  C   UNL     1       5.746   3.886  14.244  0.00  0.00    +0.000 A 
ATOM     32  C   UNL     1       5.419   3.402  12.977  0.00  0.00    +0.000 A 
ATOM     33  C   UNL     1       6.224   3.719  11.882  0.00  0.00    +0.000 A 
ATOM     34  C   UNL     1       7.352   4.518  12.048  0.00  0.00    +0.000 A 
ATOM     35  C   UNL     1       7.684   5.004  13.317  0.00  0.00    +0.000 A 
ENDBRANCH  28  30
ENDBRANCH  27  28
ENDBRANCH  26  27
ENDBRANCH   1  26
TORSDOF 10
ENDMDL
MODEL 4
REMARK VINA RESULT:      -8.8      1.352      2.113
REMARK  Name = 
REMARK  11 active torsions:
REMARK  status: ('A' for Active; 'I' for Inactive)
REMARK    1  A    between atoms: C_1  and  O_2
REMARK    2  A    between atoms: O_2  and  C_3
REMARK    3  A    between atoms: C_8  and  C_9
REMARK    4  A    between atoms: C_10  and  C_11
REMARK    5  A    between atoms: N_13  and  C_14
REMARK    6  A    between atoms: C_14  and  C_15
REMARK    7  A    between atoms: C_14  and  C_25
REMARK    8  A    between atoms: C_15  and  O_16
REMARK    9  A    between atoms: O_16  and  C_17
REMARK   10  A    between atoms: C_17  and  C_19
REMARK   11  A    between atoms: N_27  and  C_28
REMARK                            x       y       z     vdW  Elec       q    Type
REMARK                         _______ _______ _______ _____ _____    ______ ____
ROOT
ATOM      1  C   UNL     1       4.971   6.250  17.672  0.00  0.00    +0.000 C 
ENDROOT
BRANCH   1   4
ATOM      2  C   UNL     1       2.755   7.371  18.044  0.00  0.00    +0.000 C 
ATOM      3  O   UNL     1       2.087   6.379  17.785  0.00  0.00    +0.000 OA
ATOM      4  N   UNL     1       4.128   7.378  18.096  0.00  0.00    +0.000 N 
ATOM      5  H   UNL     1       4.604   8.264  18.208  0.00  0.00    +0.000 HD
BRANCH   2   7
ATOM      6  C   UNL     1       1.291   8.900  19.344  0.00  0.00    +0.000 C 
ATOM      7  C   UNL     1       2.155   8.712  18.337  0.00  0.00    +0.000 C 
BRANCH   6  13
ATOM      8  C   UNL     1      -0.252  10.373  20.792  0.00  0.00    +0.000 A 
ATOM      9  C   UNL     1      -0.834  11.640  21.000  0.00  0.00    +0.000 A 
ATOM     10  C   UNL     1      -0.660  12.671  20.077  0.00  0.00    +0.000 A 
ATOM     11  C   UNL     1       0.108  12.453  18.943  0.00  0.00    +0.000 A 
ATOM     12  C   UNL     1       0.726  11.213  18.751  0.00  0.00    +0.000 A 
ATOM     13  C   UNL     1       0.580  10.158  19.675  0.00  0.00    +0.000 A 
BRANCH   8  15
ATOM     14  C   UNL     1       0.255   9.460  22.918  0.00  0.00    +0.000 C 
ATOM     15  O   UNL     1      -0.451   9.344  21.684  0.00  0.00    +0.000 OA
ENDBRANCH   8  15
ENDBRANCH   6  13
ENDBRANCH   2   7
ENDBRANCH   1   4
BRANCH   1  16
ATOM     16  C   UNL     1       4.949   5.150  18.750  0.00  0.00    +0.000 C 
ATOM     17  O   UNL     1       5.893   4.929  19.506  0.00  0.00    +0.000 OA
ATOM     18  N   UNL     1       3.802   4.386  18.754  0.00  0.00    +0.000 N 
ATOM     19  H   UNL     1       3.172   4.512  17.968  0.00  0.00    +0.000 HD
BRANCH  18  20
ATOM     20  C   UNL     1       3.634   3.229  19.629  0.00  0.00    +0.000 C 
ATOM     21  C   UNL     1       2.696   3.561  20.793  0.00  0.00    +0.000 C 
ATOM     22  C   UNL     1       1.262   3.797  20.323  0.00  0.00    +0.000 C 
ATOM     23  C   UNL     1       0.733   2.617  19.509  0.00  0.00    +0.000 C 
ATOM     24  C   UNL     1       1.673   2.209  18.376  0.00  0.00    +0.000 C 
ATOM     25  C   UNL     1       3.109   2.008  18.862  0.00  0.00    +0.000 C 
ENDBRANCH  18  20
ENDBRANCH   1  16
BRANCH   1  26
ATOM     26  C   UNL     1       6.434   6.664  17.433  0.00  0.00    +0.000 C 
BRANCH  26  27
ATOM     27  O   UNL     1       6.860   6.368  16.094  0.00  0.00    +0.000 OA
BRANCH  27  28
ATOM     28  C   UNL     1       7.290   5.097  15.893  0.00  0.00    +0.000 C 
ATOM     29  O   UNL     1       7.883   4.404  16.706  0.00  0.00    +0.000 OA
BRANCH  28  30
ATOM     30  C   UNL     1       6.955   4.653  14.517  0.00  0.00    +0.000 A 
ATOM     31  C   UNL     1       7.752   5.117  13.463  0.00  0.00    +0.000 A 
ATOM     32  C   UNL     1       7.476   4.731  12.152  0.00  0.00    +0.000 A 
ATOM     33  C   UNL     1       6.403   3.879  11.889  0.00  0.00    +0.000 A 
ATOM     34  C   UNL     1       5.607   3.410  12.931  0.00  0.00    +0.000 A 
ATOM     35  C   UNL     1       5.881   3.795  14.248  0.00  0.00    +0.000 A 
ENDBRANCH  28  30
ENDBRANCH  27  28
ENDBRANCH  26  27
ENDBRANCH   1  26
TORSDOF 10
ENDMDL
MODEL 5
REMARK VINA RESULT:      -8.8      4.392      6.240
REMARK  Name = 
REMARK  11 active torsions:
REMARK  status: ('A' for Active; 'I' for Inactive)
REMARK    1  A    between atoms: C_1  and  O_2
REMARK    2  A    between atoms: O_2  and  C_3
REMARK    3  A    between atoms: C_8  and  C_9
REMARK    4  A    between atoms: C_10  and  C_11
REMARK    5  A    between atoms: N_13  and  C_14
REMARK    6  A    between atoms: C_14  and  C_15
REMARK    7  A    between atoms: C_14  and  C_25
REMARK    8  A    between atoms: C_15  and  O_16
REMARK    9  A    between atoms: O_16  and  C_17
REMARK   10  A    between atoms: C_17  and  C_19
REMARK   11  A    between atoms: N_27  and  C_28
REMARK                            x       y       z     vdW  Elec       q    Type
REMARK                         _______ _______ _______ _____ _____    ______ ____
ROOT
ATOM      1  C   UNL     1       5.993   6.543  16.890  0.00  0.00    +0.000 C 
ENDROOT
BRANCH   1   4
ATOM      2  C   UNL     1       7.775   7.931  17.987  0.00  0.00    +0.000 C 
ATOM      3  O   UNL     1       8.238   7.010  18.647  0.00  0.00    +0.000 OA
ATOM      4  N   UNL     1       6.764   7.782  17.068  0.00  0.00    +0.000 N 
ATOM      5  H   UNL     1       6.367   8.612  16.648  0.00  0.00    +0.000 HD
BRANCH   2   7
ATOM      6  C   UNL     1       9.277   9.688  18.897  0.00  0.00    +0.000 C 
ATOM      7  C   UNL     1       8.253   9.346  18.103  0.00  0.00    +0.000 C 
BRANCH   6  13
ATOM      8  C   UNL     1       9.659  11.783  20.350  0.00  0.00    +0.000 A 
ATOM      9  C   UNL     1      10.223  13.070  20.455  0.00  0.00    +0.000 A 
ATOM     10  C   UNL     1      10.841  13.676  19.362  0.00  0.00    +0.000 A 
ATOM     11  C   UNL     1      10.915  12.997  18.154  0.00  0.00    +0.000 A 
ATOM     12  C   UNL     1      10.397  11.702  18.053  0.00  0.00    +0.000 A 
ATOM     13  C   UNL     1       9.781  11.059  19.147  0.00  0.00    +0.000 A 
BRANCH   8  15
ATOM     14  C   UNL     1       8.515  12.104  22.399  0.00  0.00    +0.000 C 
ATOM     15  O   UNL     1       9.018  11.198  21.418  0.00  0.00    +0.000 OA
ENDBRANCH   8  15
ENDBRANCH   6  13
ENDBRANCH   2   7
ENDBRANCH   1   4
BRANCH   1  16
ATOM     16  C   UNL     1       4.589   6.710  17.501  0.00  0.00    +0.000 C 
ATOM     17  O   UNL     1       3.997   7.787  17.543  0.00  0.00    +0.000 OA
ATOM     18  N   UNL     1       4.075   5.559  18.058  0.00  0.00    +0.000 N 
ATOM     19  H   UNL     1       4.715   4.778  18.154  0.00  0.00    +0.000 HD
BRANCH  18  20
ATOM     20  C   UNL     1       2.805   5.538  18.779  0.00  0.00    +0.000 C 
ATOM     21  C   UNL     1       1.725   4.834  17.952  0.00  0.00    +0.000 C 
ATOM     22  C   UNL     1       2.009   3.341  17.793  0.00  0.00    +0.000 C 
ATOM     23  C   UNL     1       2.202   2.655  19.143  0.00  0.00    +0.000 C 
ATOM     24  C   UNL     1       3.225   3.366  20.028  0.00  0.00    +0.000 C 
ATOM     25  C   UNL     1       2.940   4.864  20.150  0.00  0.00    +0.000 C 
ENDBRANCH  18  20
ENDBRANCH   1  16
BRANCH   1  26
ATOM     26  C   UNL     1       6.667   5.328  17.552  0.00  0.00    +0.000 C 
BRANCH  26  27
ATOM     27  O   UNL     1       7.084   4.355  16.582  0.00  0.00    +0.000 OA
BRANCH  27  28
ATOM     28  C   UNL     1       6.108   3.913  15.751  0.00  0.00    +0.000 C 
ATOM     29  O   UNL     1       5.050   3.406  16.093  0.00  0.00    +0.000 OA
BRANCH  28  30
ATOM     30  C   UNL     1       6.508   4.114  14.336  0.00  0.00    +0.000 A 
ATOM     31  C   UNL     1       5.876   3.336  13.357  0.00  0.00    +0.000 A 
ATOM     32  C   UNL     1       6.219   3.485  12.013  0.00  0.00    +0.000 A 
ATOM     33  C   UNL     1       7.194   4.412  11.643  0.00  0.00    +0.000 A 
ATOM     34  C   UNL     1       7.824   5.193  12.608  0.00  0.00    +0.000 A 
ATOM     35  C   UNL     1       7.482   5.046  13.957  0.00  0.00    +0.000 A 
ENDBRANCH  28  30
ENDBRANCH  27  28
ENDBRANCH  26  27
ENDBRANCH   1  26
TORSDOF 10
ENDMDL
MODEL 6
REMARK VINA RESULT:      -8.7      1.501      2.304
REMARK  Name = 
REMARK  11 active torsions:
REMARK  status: ('A' for Active; 'I' for Inactive)
REMARK    1  A    between atoms: C_1  and  O_2
REMARK    2  A    between atoms: O_2  and  C_3
REMARK    3  A    between atoms: C_8  and  C_9
REMARK    4  A    between atoms: C_10  and  C_11
REMARK    5  A    between atoms: N_13  and  C_14
REMARK    6  A    between atoms: C_14  and  C_15
REMARK    7  A    between atoms: C_14  and  C_25
REMARK    8  A    between atoms: C_15  and  O_16
REMARK    9  A    between atoms: O_16  and  C_17
REMARK   10  A    between atoms: C_17  and  C_19
REMARK   11  A    between atoms: N_27  and  C_28
REMARK                            x       y       z     vdW  Elec       q    Type
REMARK                         _______ _______ _______ _____ _____    ______ ____
ROOT
ATOM      1  C   UNL     1       4.834   5.949  17.605  0.00  0.00    +0.000 C 
ENDROOT
BRANCH   1   4
ATOM      2  C   UNL     1       2.657   7.051  18.202  0.00  0.00    +0.000 C 
ATOM      3  O   UNL     1       1.956   6.154  17.755  0.00  0.00    +0.000 OA
ATOM      4  N   UNL     1       4.030   7.000  18.246  0.00  0.00    +0.000 N 
ATOM      5  H   UNL     1       4.536   7.830  18.529  0.00  0.00    +0.000 HD
BRANCH   2   7
ATOM      6  C   UNL     1       1.982   9.434  18.006  0.00  0.00    +0.000 C 
ATOM      7  C   UNL     1       2.104   8.329  18.755  0.00  0.00    +0.000 C 
BRANCH   6  13
ATOM      8  C   UNL     1       0.377  11.027  19.243  0.00  0.00    +0.000 A 
ATOM      9  C   UNL     1       0.085  12.348  19.639  0.00  0.00    +0.000 A 
ATOM     10  C   UNL     1       0.873  13.417  19.216  0.00  0.00    +0.000 A 
ATOM     11  C   UNL     1       1.970  13.179  18.402  0.00  0.00    +0.000 A 
ATOM     12  C   UNL     1       2.294  11.868  18.039  0.00  0.00    +0.000 A 
ATOM     13  C   UNL     1       1.524  10.766  18.466  0.00  0.00    +0.000 A 
BRANCH   8  15
ATOM     14  C   UNL     1      -0.478   9.739  21.036  0.00  0.00    +0.000 C 
ATOM     15  O   UNL     1      -0.420   9.975  19.631  0.00  0.00    +0.000 OA
ENDBRANCH   8  15
ENDBRANCH   6  13
ENDBRANCH   2   7
ENDBRANCH   1   4
BRANCH   1  16
ATOM     16  C   UNL     1       4.849   4.690  18.492  0.00  0.00    +0.000 C 
ATOM     17  O   UNL     1       5.835   4.328  19.131  0.00  0.00    +0.000 OA
ATOM     18  N   UNL     1       3.678   3.963  18.461  0.00  0.00    +0.000 N 
ATOM     19  H   UNL     1       2.999   4.230  17.756  0.00  0.00    +0.000 HD
BRANCH  18  20
ATOM     20  C   UNL     1       3.532   2.685  19.151  0.00  0.00    +0.000 C 
ATOM     21  C   UNL     1       3.480   2.890  20.668  0.00  0.00    +0.000 C 
ATOM     22  C   UNL     1       2.209   3.617  21.104  0.00  0.00    +0.000 C 
ATOM     23  C   UNL     1       0.952   2.910  20.602  0.00  0.00    +0.000 C 
ATOM     24  C   UNL     1       0.992   2.625  19.101  0.00  0.00    +0.000 C 
ATOM     25  C   UNL     1       2.285   1.925  18.680  0.00  0.00    +0.000 C 
ENDBRANCH  18  20
ENDBRANCH   1  16
BRANCH   1  26
ATOM     26  C   UNL     1       6.288   6.386  17.361  0.00  0.00    +0.000 C 
BRANCH  26  27
ATOM     27  O   UNL     1       6.679   6.197  15.991  0.00  0.00    +0.000 OA
BRANCH  27  28
ATOM     28  C   UNL     1       7.250   4.998  15.715  0.00  0.00    +0.000 C 
ATOM     29  O   UNL     1       7.935   4.337  16.479  0.00  0.00    +0.000 OA
BRANCH  28  30
ATOM     30  C   UNL     1       6.942   4.593  14.320  0.00  0.00    +0.000 A 
ATOM     31  C   UNL     1       5.825   3.776  14.104  0.00  0.00    +0.000 A 
ATOM     32  C   UNL     1       5.496   3.365  12.812  0.00  0.00    +0.000 A 
ATOM     33  C   UNL     1       6.281   3.770  11.732  0.00  0.00    +0.000 A 
ATOM     34  C   UNL     1       7.391   4.586  11.937  0.00  0.00    +0.000 A 
ATOM     35  C   UNL     1       7.724   5.000  13.231  0.00  0.00    +0.000 A 
ENDBRANCH  28  30
ENDBRANCH  27  28
ENDBRANCH  26  27
ENDBRANCH   1  26
TORSDOF 10
ENDMDL
MODEL 7
REMARK VINA RESULT:      -8.5      4.061      7.192
REMARK  Name = 
REMARK  11 active torsions:
REMARK  status: ('A' for Active; 'I' for Inactive)
REMARK    1  A    between atoms: C_1  and  O_2
REMARK    2  A    between atoms: O_2  and  C_3
REMARK    3  A    between atoms: C_8  and  C_9
REMARK    4  A    between atoms: C_10  and  C_11
REMARK    5  A    between atoms: N_13  and  C_14
REMARK    6  A    between atoms: C_14  and  C_15
REMARK    7  A    between atoms: C_14  and  C_25
REMARK    8  A    between atoms: C_15  and  O_16
REMARK    9  A    between atoms: O_16  and  C_17
REMARK   10  A    between atoms: C_17  and  C_19
REMARK   11  A    between atoms: N_27  and  C_28
REMARK                            x       y       z     vdW  Elec       q    Type
REMARK                         _______ _______ _______ _____ _____    ______ ____
ROOT
ATOM      1  C   UNL     1       6.207   5.213  18.155  0.00  0.00    +0.000 C 
ENDROOT
BRANCH   1   4
ATOM      2  C   UNL     1       7.629   7.229  17.684  0.00  0.00    +0.000 C 
ATOM      3  O   UNL     1       7.759   6.994  16.491  0.00  0.00    +0.000 OA
ATOM      4  N   UNL     1       6.845   6.484  18.531  0.00  0.00    +0.000 N 
ATOM      5  H   UNL     1       6.882   6.681  19.523  0.00  0.00    +0.000 HD
BRANCH   2   7
ATOM      6  C   UNL     1       8.322   9.607  17.876  0.00  0.00    +0.000 C 
ATOM      7  C   UNL     1       8.319   8.364  18.378  0.00  0.00    +0.000 C 
BRANCH   6  13
ATOM      8  C   UNL     1       8.802  12.131  18.093  0.00  0.00    +0.000 A 
ATOM      9  C   UNL     1       9.532  13.151  18.735  0.00  0.00    +0.000 A 
ATOM     10  C   UNL     1      10.534  12.848  19.656  0.00  0.00    +0.000 A 
ATOM     11  C   UNL     1      10.811  11.522  19.955  0.00  0.00    +0.000 A 
ATOM     12  C   UNL     1      10.062  10.504  19.355  0.00  0.00    +0.000 A 
ATOM     13  C   UNL     1       9.032  10.783  18.433  0.00  0.00    +0.000 A 
BRANCH   8  15
ATOM     14  C   UNL     1       7.114  13.636  17.390  0.00  0.00    +0.000 C 
ATOM     15  O   UNL     1       7.836  12.427  17.159  0.00  0.00    +0.000 OA
ENDBRANCH   8  15
ENDBRANCH   6  13
ENDBRANCH   2   7
ENDBRANCH   1   4
BRANCH   1  16
ATOM     16  C   UNL     1       4.822   5.487  17.541  0.00  0.00    +0.000 C 
ATOM     17  O   UNL     1       4.601   5.440  16.332  0.00  0.00    +0.000 OA
ATOM     18  N   UNL     1       3.860   5.853  18.457  0.00  0.00    +0.000 N 
ATOM     19  H   UNL     1       4.185   6.058  19.396  0.00  0.00    +0.000 HD
BRANCH  18  20
ATOM     20  C   UNL     1       2.514   6.255  18.061  0.00  0.00    +0.000 C 
ATOM     21  C   UNL     1       1.487   5.817  19.109  0.00  0.00    +0.000 C 
ATOM     22  C   UNL     1       1.654   6.575  20.425  0.00  0.00    +0.000 C 
ATOM     23  C   UNL     1       1.616   8.087  20.216  0.00  0.00    +0.000 C 
ATOM     24  C   UNL     1       2.580   8.559  19.129  0.00  0.00    +0.000 C 
ATOM     25  C   UNL     1       2.417   7.768  17.830  0.00  0.00    +0.000 C 
ENDBRANCH  18  20
ENDBRANCH   1  16
BRANCH   1  26
ATOM     26  C   UNL     1       6.026   4.267  19.354  0.00  0.00    +0.000 C 
BRANCH  26  27
ATOM     27  O   UNL     1       5.253   3.107  19.007  0.00  0.00    +0.000 OA
BRANCH  27  28
ATOM     28  C   UNL     1       4.684   2.459  20.053  0.00  0.00    +0.000 C 
ATOM     29  O   UNL     1       5.279   1.892  20.956  0.00  0.00    +0.000 OA
BRANCH  28  30
ATOM     30  C   UNL     1       3.204   2.515  19.947  0.00  0.00    +0.000 A 
ATOM     31  C   UNL     1       2.473   2.838  21.098  0.00  0.00    +0.000 A 
ATOM     32  C   UNL     1       1.081   2.899  21.051  0.00  0.00    +0.000 A 
ATOM     33  C   UNL     1       0.413   2.640  19.854  0.00  0.00    +0.000 A 
ATOM     34  C   UNL     1       1.131   2.322  18.704  0.00  0.00    +0.000 A 
ATOM     35  C   UNL     1       2.528   2.259  18.747  0.00  0.00    +0.000 A 
ENDBRANCH  28  30
ENDBRANCH  27  28
ENDBRANCH  26  27
ENDBRANCH   1  26
TORSDOF 10
ENDMDL
MODEL 8
REMARK VINA RESULT:      -8.4      4.377      6.206
REMARK  Name = 
REMARK  11 active torsions:
REMARK  status: ('A' for Active; 'I' for Inactive)
REMARK    1  A    between atoms: C_1  and  O_2
REMARK    2  A    between atoms: O_2  and  C_3
REMARK    3  A    between atoms: C_8  and  C_9
REMARK    4  A    between atoms: C_10  and  C_11
REMARK    5  A    between atoms: N_13  and  C_14
REMARK    6  A    between atoms: C_14  and  C_15
REMARK    7  A    between atoms: C_14  and  C_25
REMARK    8  A    between atoms: C_15  and  O_16
REMARK    9  A    between atoms: O_16  and  C_17
REMARK   10  A    between atoms: C_17  and  C_19
REMARK   11  A    between atoms: N_27  and  C_28
REMARK                            x       y       z     vdW  Elec       q    Type
REMARK                         _______ _______ _______ _____ _____    ______ ____
ROOT
ATOM      1  C   UNL     1       6.930   5.761  17.880  0.00  0.00    +0.000 C 
ENDROOT
BRANCH   1   4
ATOM      2  C   UNL     1       7.386   8.191  17.440  0.00  0.00    +0.000 C 
ATOM      3  O   UNL     1       6.461   8.333  16.652  0.00  0.00    +0.000 OA
ATOM      4  N   UNL     1       7.632   7.028  18.130  0.00  0.00    +0.000 N 
ATOM      5  H   UNL     1       8.482   6.961  18.676  0.00  0.00    +0.000 HD
BRANCH   2   7
ATOM      6  C   UNL     1       8.796   9.516  18.998  0.00  0.00    +0.000 C 
ATOM      7  C   UNL     1       8.377   9.272  17.748  0.00  0.00    +0.000 C 
BRANCH   6  13
ATOM      8  C   UNL     1       9.656  11.296  20.652  0.00  0.00    +0.000 A 
ATOM      9  C   UNL     1      10.618  12.285  20.940  0.00  0.00    +0.000 A 
ATOM     10  C   UNL     1      11.583  12.644  20.001  0.00  0.00    +0.000 A 
ATOM     11  C   UNL     1      11.608  12.011  18.767  0.00  0.00    +0.000 A 
ATOM     12  C   UNL     1      10.685  10.997  18.489  0.00  0.00    +0.000 A 
ATOM     13  C   UNL     1       9.708  10.602  19.427  0.00  0.00    +0.000 A 
BRANCH   8  15
ATOM     14  C   UNL     1       8.268  12.023  22.428  0.00  0.00    +0.000 C 
ATOM     15  O   UNL     1       8.681  10.965  21.565  0.00  0.00    +0.000 OA
ENDBRANCH   8  15
ENDBRANCH   6  13
ENDBRANCH   2   7
ENDBRANCH   1   4
BRANCH   1  16
ATOM     16  C   UNL     1       6.014   5.429  19.072  0.00  0.00    +0.000 C 
ATOM     17  O   UNL     1       6.436   5.207  20.205  0.00  0.00    +0.000 OA
ATOM     18  N   UNL     1       4.677   5.337  18.748  0.00  0.00    +0.000 N 
ATOM     19  H   UNL     1       4.451   5.337  17.759  0.00  0.00    +0.000 HD
BRANCH  18  20
ATOM     20  C   UNL     1       3.663   4.929  19.716  0.00  0.00    +0.000 C 
ATOM     21  C   UNL     1       2.293   5.499  19.339  0.00  0.00    +0.000 C 
ATOM     22  C   UNL     1       1.751   4.880  18.051  0.00  0.00    +0.000 C 
ATOM     23  C   UNL     1       1.709   3.355  18.131  0.00  0.00    +0.000 C 
ATOM     24  C   UNL     1       3.040   2.748  18.571  0.00  0.00    +0.000 C 
ATOM     25  C   UNL     1       3.581   3.402  19.843  0.00  0.00    +0.000 C 
ENDBRANCH  18  20
ENDBRANCH   1  16
BRANCH   1  26
ATOM     26  C   UNL     1       7.898   4.583  17.671  0.00  0.00    +0.000 C 
BRANCH  26  27
ATOM     27  O   UNL     1       7.902   4.131  16.307  0.00  0.00    +0.000 OA
BRANCH  27  28
ATOM     28  C   UNL     1       6.677   4.009  15.737  0.00  0.00    +0.000 C 
ATOM     29  O   UNL     1       5.631   3.785  16.326  0.00  0.00    +0.000 OA
BRANCH  28  30
ATOM     30  C   UNL     1       6.779   4.169  14.264  0.00  0.00    +0.000 A 
ATOM     31  C   UNL     1       7.654   5.143  13.766  0.00  0.00    +0.000 A 
ATOM     32  C   UNL     1       7.782   5.334  12.391  0.00  0.00    +0.000 A 
ATOM     33  C   UNL     1       7.038   4.552  11.508  0.00  0.00    +0.000 A 
ATOM     34  C   UNL     1       6.169   3.578  11.993  0.00  0.00    +0.000 A 
ATOM     35  C   UNL     1       6.037   3.383  13.372  0.00  0.00    +0.000 A 
ENDBRANCH  28  30
ENDBRANCH  27  28
ENDBRANCH  26  27
ENDBRANCH   1  26
TORSDOF 10
ENDMDL
MODEL 9
REMARK VINA RESULT:      -8.4      1.287      1.966
REMARK  Name = 
REMARK  11 active torsions:
REMARK  status: ('A' for Active; 'I' for Inactive)
REMARK    1  A    between atoms: C_1  and  O_2
REMARK    2  A    between atoms: O_2  and  C_3
REMARK    3  A    between atoms: C_8  and  C_9
REMARK    4  A    between atoms: C_10  and  C_11
REMARK    5  A    between atoms: N_13  and  C_14
REMARK    6  A    between atoms: C_14  and  C_15
REMARK    7  A    between atoms: C_14  and  C_25
REMARK    8  A    between atoms: C_15  and  O_16
REMARK    9  A    between atoms: O_16  and  C_17
REMARK   10  A    between atoms: C_17  and  C_19
REMARK   11  A    between atoms: N_27  and  C_28
REMARK                            x       y       z     vdW  Elec       q    Type
REMARK                         _______ _______ _______ _____ _____    ______ ____
ROOT
ATOM      1  C   UNL     1       4.144   5.095  16.985  0.00  0.00    +0.000 C 
ENDROOT
BRANCH   1   4
ATOM      2  C   UNL     1       3.094   6.721  18.586  0.00  0.00    +0.000 C 
ATOM      3  O   UNL     1       3.328   6.055  19.585  0.00  0.00    +0.000 OA
ATOM      4  N   UNL     1       3.517   6.381  17.323  0.00  0.00    +0.000 N 
ATOM      5  H   UNL     1       3.186   6.929  16.539  0.00  0.00    +0.000 HD
BRANCH   2   7
ATOM      6  C   UNL     1       1.619   8.383  19.696  0.00  0.00    +0.000 C 
ATOM      7  C   UNL     1       2.308   7.996  18.613  0.00  0.00    +0.000 C 
BRANCH   6  13
ATOM      8  C   UNL     1       0.510  10.323  20.981  0.00  0.00    +0.000 A 
ATOM      9  C   UNL     1      -0.316  11.465  20.929  0.00  0.00    +0.000 A 
ATOM     10  C   UNL     1      -0.961  11.833  19.750  0.00  0.00    +0.000 A 
ATOM     11  C   UNL     1      -0.781  11.072  18.604  0.00  0.00    +0.000 A 
ATOM     12  C   UNL     1       0.071   9.963  18.634  0.00  0.00    +0.000 A 
ATOM     13  C   UNL     1       0.749   9.578  19.809  0.00  0.00    +0.000 A 
BRANCH   8  15
ATOM     14  C   UNL     1       0.250   9.400  23.146  0.00  0.00    +0.000 C 
ATOM     15  O   UNL     1       1.120   9.939  22.152  0.00  0.00    +0.000 OA
ENDBRANCH   8  15
ENDBRANCH   6  13
ENDBRANCH   2   7
ENDBRANCH   1   4
BRANCH   1  16
ATOM     16  C   UNL     1       3.163   3.944  17.277  0.00  0.00    +0.000 C 
ATOM     17  O   UNL     1       2.210   3.671  16.549  0.00  0.00    +0.000 OA
ATOM     18  N   UNL     1       3.405   3.282  18.461  0.00  0.00    +0.000 N 
ATOM     19  H   UNL     1       4.084   3.706  19.085  0.00  0.00    +0.000 HD
BRANCH  18  20
ATOM     20  C   UNL     1       2.525   2.232  18.965  0.00  0.00    +0.000 C 
ATOM     21  C   UNL     1       2.995   1.744  20.339  0.00  0.00    +0.000 C 
ATOM     22  C   UNL     1       2.833   2.818  21.414  0.00  0.00    +0.000 C 
ATOM     23  C   UNL     1       1.401   3.343  21.478  0.00  0.00    +0.000 C 
ATOM     24  C   UNL     1       0.868   3.779  20.113  0.00  0.00    +0.000 C 
ATOM     25  C   UNL     1       1.067   2.702  19.045  0.00  0.00    +0.000 C 
ENDBRANCH  18  20
ENDBRANCH   1  16
BRANCH   1  26
ATOM     26  C   UNL     1       5.436   4.842  17.781  0.00  0.00    +0.000 C 
BRANCH  26  27
ATOM     27  O   UNL     1       6.492   4.348  16.941  0.00  0.00    +0.000 OA
BRANCH  27  28
ATOM     28  C   UNL     1       7.041   5.265  16.107  0.00  0.00    +0.000 C 
ATOM     29  O   UNL     1       7.547   6.326  16.440  0.00  0.00    +0.000 OA
BRANCH  28  30
ATOM     30  C   UNL     1       6.929   4.809  14.698  0.00  0.00    +0.000 A 
ATOM     31  C   UNL     1       7.771   5.400  13.747  0.00  0.00    +0.000 A 
ATOM     32  C   UNL     1       7.701   5.009  12.410  0.00  0.00    +0.000 A 
ATOM     33  C   UNL     1       6.792   4.026  12.019  0.00  0.00    +0.000 A 
ATOM     34  C   UNL     1       5.954   3.430  12.959  0.00  0.00    +0.000 A 
ATOM     35  C   UNL     1       6.021   3.820  14.301  0.00  0.00    +0.000 A 
ENDBRANCH  28  30
ENDBRANCH  27  28
ENDBRANCH  26  27
ENDBRANCH   1  26
TORSDOF 10
ENDMDL
