MODEL 1
REMARK VINA RESULT:      -8.6      0.000      0.000
REMARK  Name = 
REMARK  9 active torsions:
REMARK  status: ('A' for Active; 'I' for Inactive)
REMARK    1  A    between atoms: P_2  and  O_3
REMARK    2  A    between atoms: P_2  and  O_4
REMARK    3  A    between atoms: P_2  and  C_5
REMARK    4  A    between atoms: C_5  and  N_6
REMARK    5  A    between atoms: C_5  and  P_25
REMARK    6  A    between atoms: N_6  and  C_7
REMARK    7  A    between atoms: C_13  and  C_14
REMARK    8  A    between atoms: P_25  and  O_27
REMARK    9  A    between atoms: P_25  and  O_28
REMARK                            x       y       z     vdW  Elec       q    Type
REMARK                         _______ _______ _______ _____ _____    ______ ____
ROOT
ATOM      1  C   UNL     1       4.216   3.577  18.775  0.00  0.00    +0.000 A 
ATOM      2  N   UNL     1       4.260   2.481  19.551  0.00  0.00    +0.000 NA
ATOM      3  C   UNL     1       3.425   2.380  20.599  0.00  0.00    +0.000 A 
ATOM      4  N   UNL     1       2.593   3.312  21.064  0.00  0.00    +0.000 NA
ATOM      5  C   UNL     1       2.623   4.433  20.323  0.00  0.00    +0.000 A 
ATOM      6  S   UNL     1       1.709   5.791  20.780  0.00  0.00    +0.000 S 
ATOM      7  C   UNL     1       2.245   6.715  19.430  0.00  0.00    +0.000 A 
ATOM      8  C   UNL     1       3.102   5.953  18.644  0.00  0.00    +0.000 A 
ATOM      9  C   UNL     1       3.361   4.635  19.166  0.00  0.00    +0.000 A 
ENDROOT
BRANCH   7  10
ATOM     10  C   UNL     1       1.785   8.104  19.256  0.00  0.00    +0.000 A 
ATOM     11  C   UNL     1       1.738   8.742  17.995  0.00  0.00    +0.000 A 
ATOM     12  C   UNL     1       1.320  10.069  17.856  0.00  0.00    +0.000 A 
ATOM     13  C   UNL     1       0.937  10.821  18.964  0.00  0.00    +0.000 A 
ATOM     14  C   UNL     1       0.974  10.186  20.206  0.00  0.00    +0.000 A 
ATOM     15  N   UNL     1       0.659  10.645  21.459  0.00  0.00    +0.000 N 
ATOM     16  N   UNL     1       0.796   9.732  22.430  0.00  0.00    +0.000 NA
ATOM     17  C   UNL     1       1.219   8.649  21.775  0.00  0.00    +0.000 A 
ATOM     18  C   UNL     1       1.376   8.859  20.381  0.00  0.00    +0.000 A 
ATOM     19  H   UNL     1       0.339  11.575  21.713  0.00  0.00    +0.000 HD
ENDBRANCH   7  10
BRANCH   1  20
ATOM     20  N   UNL     1       5.050   3.656  17.657  0.00  0.00    +0.000 N 
ATOM     21  H   UNL     1       5.659   2.846  17.567  0.00  0.00    +0.000 HD
BRANCH  20  22
ATOM     22  C   UNL     1       5.736   4.970  17.454  0.00  0.00    +0.000 C 
BRANCH  22  24
ATOM     23  O   UNL     1       7.595   5.027  15.253  0.00  0.00    +0.000 OA
ATOM     24  P   UNL     1       6.164   5.112  15.671  0.00  0.00    +0.000 P 
BRANCH  24  25
ATOM     25  O   UNL     1       5.477   6.482  15.192  0.00  0.00    +0.000 OA
ATOM     26  H   UNL     1       4.560   6.579  15.513  0.00  0.00    +0.000 HD
ENDBRANCH  24  25
BRANCH  24  27
ATOM     27  O   UNL     1       5.275   4.058  14.849  0.00  0.00    +0.000 OA
ATOM     28  H   UNL     1       5.544   4.013  13.912  0.00  0.00    +0.000 HD
ENDBRANCH  24  27
ENDBRANCH  22  24
BRANCH  22  29
ATOM     29  P   UNL     1       7.292   5.279  18.357  0.00  0.00    +0.000 P 
ATOM     30  O   UNL     1       7.221   5.285  19.850  0.00  0.00    +0.000 OA
BRANCH  29  31
ATOM     31  O   UNL     1       8.295   4.139  17.811  0.00  0.00    +0.000 OA
ATOM     32  H   UNL     1       9.215   4.431  17.658  0.00  0.00    +0.000 HD
ENDBRANCH  29  31
BRANCH  29  33
ATOM     33  O   UNL     1       8.118   6.546  17.827  0.00  0.00    +0.000 OA
ATOM     34  H   UNL     1       9.073   6.361  17.920  0.00  0.00    +0.000 HD
ENDBRANCH  29  33
ENDBRANCH  22  29
ENDBRANCH  20  22
ENDBRANCH   1  20
TORSDOF 9
ENDMDL
MODEL 2
REMARK VINA RESULT:      -8.6      1.452      2.939
REMARK  Name = 
REMARK  9 active torsions:
REMARK  status: ('A' for Active; 'I' for Inactive)
REMARK    1  A    between atoms: P_2  and  O_3
REMARK    2  A    between atoms: P_2  and  O_4
REMARK    3  A    between atoms: P_2  and  C_5
REMARK    4  A    between atoms: C_5  and  N_6
REMARK    5  A    between atoms: C_5  and  P_25
REMARK    6  A    between atoms: N_6  and  C_7
REMARK    7  A    between atoms: C_13  and  C_14
REMARK    8  A    between atoms: P_25  and  O_27
REMARK    9  A    between atoms: P_25  and  O_28
REMARK                            x       y       z     vdW  Elec       q    Type
REMARK                         _______ _______ _______ _____ _____    ______ ____
ROOT
ATOM      1  C   UNL     1       3.700   3.853  17.649  0.00  0.00    +0.000 A 
ATOM      2  N   UNL     1       3.910   2.568  17.981  0.00  0.00    +0.000 NA
ATOM      3  C   UNL     1       3.367   2.080  19.109  0.00  0.00    +0.000 A 
ATOM      4  N   UNL     1       2.705   2.758  20.048  0.00  0.00    +0.000 NA
ATOM      5  C   UNL     1       2.576   4.059  19.737  0.00  0.00    +0.000 A 
ATOM      6  S   UNL     1       1.846   5.136  20.830  0.00  0.00    +0.000 S 
ATOM      7  C   UNL     1       2.046   6.480  19.775  0.00  0.00    +0.000 A 
ATOM      8  C   UNL     1       2.655   6.070  18.594  0.00  0.00    +0.000 A 
ATOM      9  C   UNL     1       3.002   4.672  18.568  0.00  0.00    +0.000 A 
ENDROOT
BRANCH   7  10
ATOM     10  C   UNL     1       1.595   7.821  20.191  0.00  0.00    +0.000 A 
ATOM     11  C   UNL     1       1.116   8.097  21.491  0.00  0.00    +0.000 A 
ATOM     12  C   UNL     1       0.671   9.372  21.857  0.00  0.00    +0.000 A 
ATOM     13  C   UNL     1       0.678  10.424  20.944  0.00  0.00    +0.000 A 
ATOM     14  C   UNL     1       1.162  10.151  19.664  0.00  0.00    +0.000 A 
ATOM     15  N   UNL     1       1.301  10.959  18.566  0.00  0.00    +0.000 N 
ATOM     16  N   UNL     1       1.832  10.349  17.497  0.00  0.00    +0.000 NA
ATOM     17  C   UNL     1       2.037   9.103  17.926  0.00  0.00    +0.000 A 
ATOM     18  C   UNL     1       1.623   8.893  19.267  0.00  0.00    +0.000 A 
ATOM     19  H   UNL     1       1.053  11.941  18.487  0.00  0.00    +0.000 HD
ENDBRANCH   7  10
BRANCH   1  20
ATOM     20  N   UNL     1       4.225   4.343  16.451  0.00  0.00    +0.000 N 
ATOM     21  H   UNL     1       3.602   4.190  15.661  0.00  0.00    +0.000 HD
BRANCH  20  22
ATOM     22  C   UNL     1       5.657   4.000  16.184  0.00  0.00    +0.000 C 
BRANCH  22  24
ATOM     23  O   UNL     1       6.691   6.229  17.689  0.00  0.00    +0.000 OA
ATOM     24  P   UNL     1       6.673   4.746  17.523  0.00  0.00    +0.000 P 
BRANCH  24  25
ATOM     25  O   UNL     1       8.146   4.147  17.302  0.00  0.00    +0.000 OA
ATOM     26  H   UNL     1       8.853   4.780  17.536  0.00  0.00    +0.000 HD
ENDBRANCH  24  25
BRANCH  24  27
ATOM     27  O   UNL     1       6.293   4.030  18.910  0.00  0.00    +0.000 OA
ATOM     28  H   UNL     1       5.340   3.825  18.959  0.00  0.00    +0.000 HD
ENDBRANCH  24  27
ENDBRANCH  22  24
BRANCH  22  29
ATOM     29  P   UNL     1       6.406   4.577  14.622  0.00  0.00    +0.000 P 
ATOM     30  O   UNL     1       6.404   3.620  13.475  0.00  0.00    +0.000 OA
BRANCH  29  31
ATOM     31  O   UNL     1       5.595   5.928  14.275  0.00  0.00    +0.000 OA
ATOM     32  H   UNL     1       5.013   6.261  14.986  0.00  0.00    +0.000 HD
ENDBRANCH  29  31
BRANCH  29  33
ATOM     33  O   UNL     1       7.850   5.247  14.796  0.00  0.00    +0.000 OA
ATOM     34  H   UNL     1       8.166   5.086  15.706  0.00  0.00    +0.000 HD
ENDBRANCH  29  33
ENDBRANCH  22  29
ENDBRANCH  20  22
ENDBRANCH   1  20
TORSDOF 9
ENDMDL
MODEL 3
REMARK VINA RESULT:      -8.6      0.298      1.218
REMARK  Name = 
REMARK  9 active torsions:
REMARK  status: ('A' for Active; 'I' for Inactive)
REMARK    1  A    between atoms: P_2  and  O_3
REMARK    2  A    between atoms: P_2  and  O_4
REMARK    3  A    between atoms: P_2  and  C_5
REMARK    4  A    between atoms: C_5  and  N_6
REMARK    5  A    between atoms: C_5  and  P_25
REMARK    6  A    between atoms: N_6  and  C_7
REMARK    7  A    between atoms: C_13  and  C_14
REMARK    8  A    between atoms: P_25  and  O_27
REMARK    9  A    between atoms: P_25  and  O_28
REMARK                            x       y       z     vdW  Elec       q    Type
REMARK                         _______ _______ _______ _____ _____    ______ ____
ROOT
ATOM      1  C   UNL     1       4.260   3.533  19.120  0.00  0.00    +0.000 A 
ATOM      2  N   UNL     1       4.234   2.454  19.920  0.00  0.00    +0.000 NA
ATOM      3  C   UNL     1       3.317   2.381  20.900  0.00  0.00    +0.000 A 
ATOM      4  N   UNL     1       2.457   3.327  21.276  0.00  0.00    +0.000 NA
ATOM      5  C   UNL     1       2.554   4.431  20.515  0.00  0.00    +0.000 A 
ATOM      6  S   UNL     1       1.616   5.804  20.868  0.00  0.00    +0.000 S 
ATOM      7  C   UNL     1       2.265   6.695  19.546  0.00  0.00    +0.000 A 
ATOM      8  C   UNL     1       3.178   5.911  18.849  0.00  0.00    +0.000 A 
ATOM      9  C   UNL     1       3.384   4.603  19.418  0.00  0.00    +0.000 A 
ENDROOT
BRANCH   7  10
ATOM     10  C   UNL     1       1.831   8.082  19.306  0.00  0.00    +0.000 A 
ATOM     11  C   UNL     1       1.842   8.676  18.023  0.00  0.00    +0.000 A 
ATOM     12  C   UNL     1       1.447  10.002  17.821  0.00  0.00    +0.000 A 
ATOM     13  C   UNL     1       1.031  10.797  18.887  0.00  0.00    +0.000 A 
ATOM     14  C   UNL     1       1.010  10.206  20.150  0.00  0.00    +0.000 A 
ATOM     15  N   UNL     1       0.653  10.713  21.373  0.00  0.00    +0.000 N 
ATOM     16  N   UNL     1       0.740   9.833  22.380  0.00  0.00    +0.000 NA
ATOM     17  C   UNL     1       1.174   8.723  21.780  0.00  0.00    +0.000 A 
ATOM     18  C   UNL     1       1.389   8.882  20.387  0.00  0.00    +0.000 A 
ATOM     19  H   UNL     1       0.335  11.655  21.581  0.00  0.00    +0.000 HD
ENDBRANCH   7  10
BRANCH   1  20
ATOM     20  N   UNL     1       5.182   3.583  18.071  0.00  0.00    +0.000 N 
ATOM     21  H   UNL     1       5.834   2.801  18.087  0.00  0.00    +0.000 HD
BRANCH  20  22
ATOM     22  C   UNL     1       5.821   4.915  17.836  0.00  0.00    +0.000 C 
BRANCH  22  24
ATOM     23  O   UNL     1       5.099   4.326  15.109  0.00  0.00    +0.000 OA
ATOM     24  P   UNL     1       5.919   5.179  16.018  0.00  0.00    +0.000 P 
BRANCH  24  25
ATOM     25  O   UNL     1       7.485   5.093  15.675  0.00  0.00    +0.000 OA
ATOM     26  H   UNL     1       7.973   4.496  16.274  0.00  0.00    +0.000 HD
ENDBRANCH  24  25
BRANCH  24  27
ATOM     27  O   UNL     1       5.658   6.735  15.716  0.00  0.00    +0.000 OA
ATOM     28  H   UNL     1       6.437   7.159  15.309  0.00  0.00    +0.000 HD
ENDBRANCH  24  27
ENDBRANCH  22  24
BRANCH  22  29
ATOM     29  P   UNL     1       7.517   5.181  18.460  0.00  0.00    +0.000 P 
ATOM     30  O   UNL     1       8.557   4.195  18.039  0.00  0.00    +0.000 OA
BRANCH  29  31
ATOM     31  O   UNL     1       7.882   6.677  17.979  0.00  0.00    +0.000 OA
ATOM     32  H   UNL     1       7.139   7.187  17.601  0.00  0.00    +0.000 HD
ENDBRANCH  29  31
BRANCH  29  33
ATOM     33  O   UNL     1       7.600   5.449  20.037  0.00  0.00    +0.000 OA
ATOM     34  H   UNL     1       8.471   5.839  20.245  0.00  0.00    +0.000 HD
ENDBRANCH  29  33
ENDBRANCH  22  29
ENDBRANCH  20  22
ENDBRANCH   1  20
TORSDOF 9
ENDMDL
MODEL 4
REMARK VINA RESULT:      -8.6      0.193      1.186
REMARK  Name = 
REMARK  9 active torsions:
REMARK  status: ('A' for Active; 'I' for Inactive)
REMARK    1  A    between atoms: P_2  and  O_3
REMARK    2  A    between atoms: P_2  and  O_4
REMARK    3  A    between atoms: P_2  and  C_5
REMARK    4  A    between atoms: C_5  and  N_6
REMARK    5  A    between atoms: C_5  and  P_25
REMARK    6  A    between atoms: N_6  and  C_7
REMARK    7  A    between atoms: C_13  and  C_14
REMARK    8  A    between atoms: P_25  and  O_27
REMARK    9  A    between atoms: P_25  and  O_28
REMARK                            x       y       z     vdW  Elec       q    Type
REMARK                         _______ _______ _______ _____ _____    ______ ____
ROOT
ATOM      1  C   UNL     1       4.176   3.692  18.786  0.00  0.00    +0.000 A 
ATOM      2  N   UNL     1       4.208   2.578  19.536  0.00  0.00    +0.000 NA
ATOM      3  C   UNL     1       3.350   2.448  20.562  0.00  0.00    +0.000 A 
ATOM      4  N   UNL     1       2.502   3.365  21.029  0.00  0.00    +0.000 NA
ATOM      5  C   UNL     1       2.543   4.503  20.316  0.00  0.00    +0.000 A 
ATOM      6  S   UNL     1       1.612   5.845  20.783  0.00  0.00    +0.000 S 
ATOM      7  C   UNL     1       2.173   6.803  19.469  0.00  0.00    +0.000 A 
ATOM      8  C   UNL     1       3.053   6.065  18.685  0.00  0.00    +0.000 A 
ATOM      9  C   UNL     1       3.306   4.736  19.182  0.00  0.00    +0.000 A 
ENDROOT
BRANCH   7  10
ATOM     10  C   UNL     1       1.710   8.194  19.316  0.00  0.00    +0.000 A 
ATOM     11  C   UNL     1       1.647   8.847  18.065  0.00  0.00    +0.000 A 
ATOM     12  C   UNL     1       1.226  10.175  17.946  0.00  0.00    +0.000 A 
ATOM     13  C   UNL     1       0.855  10.913  19.068  0.00  0.00    +0.000 A 
ATOM     14  C   UNL     1       0.907  10.263  20.302  0.00  0.00    +0.000 A 
ATOM     15  N   UNL     1       0.607  10.707  21.563  0.00  0.00    +0.000 N 
ATOM     16  N   UNL     1       0.757   9.782  22.522  0.00  0.00    +0.000 NA
ATOM     17  C   UNL     1       1.173   8.708  21.849  0.00  0.00    +0.000 A 
ATOM     18  C   UNL     1       1.314   8.935  20.456  0.00  0.00    +0.000 A 
ATOM     19  H   UNL     1       0.289  11.633  21.832  0.00  0.00    +0.000 HD
ENDBRANCH   7  10
BRANCH   1  20
ATOM     20  N   UNL     1       5.035   3.802  17.690  0.00  0.00    +0.000 N 
ATOM     21  H   UNL     1       5.656   3.001  17.599  0.00  0.00    +0.000 HD
BRANCH  20  22
ATOM     22  C   UNL     1       5.710   5.128  17.527  0.00  0.00    +0.000 C 
BRANCH  22  24
ATOM     23  O   UNL     1       5.238   6.630  15.114  0.00  0.00    +0.000 OA
ATOM     24  P   UNL     1       5.905   5.443  15.726  0.00  0.00    +0.000 P 
BRANCH  24  25
ATOM     25  O   UNL     1       5.463   4.072  15.019  0.00  0.00    +0.000 OA
ATOM     26  H   UNL     1       5.921   3.918  14.169  0.00  0.00    +0.000 HD
ENDBRANCH  24  25
BRANCH  24  27
ATOM     27  O   UNL     1       7.473   5.439  15.376  0.00  0.00    +0.000 OA
ATOM     28  H   UNL     1       7.923   6.231  15.726  0.00  0.00    +0.000 HD
ENDBRANCH  24  27
ENDBRANCH  22  24
BRANCH  22  29
ATOM     29  P   UNL     1       7.376   5.341  18.245  0.00  0.00    +0.000 P 
ATOM     30  O   UNL     1       8.045   6.659  18.026  0.00  0.00    +0.000 OA
BRANCH  29  31
ATOM     31  O   UNL     1       7.170   5.028  19.814  0.00  0.00    +0.000 OA
ATOM     32  H   UNL     1       6.259   5.147  20.148  0.00  0.00    +0.000 HD
ENDBRANCH  29  31
BRANCH  29  33
ATOM     33  O   UNL     1       8.384   4.137  17.929  0.00  0.00    +0.000 OA
ATOM     34  H   UNL     1       8.908   4.364  17.136  0.00  0.00    +0.000 HD
ENDBRANCH  29  33
ENDBRANCH  22  29
ENDBRANCH  20  22
ENDBRANCH   1  20
TORSDOF 9
ENDMDL
MODEL 5
REMARK VINA RESULT:      -8.5      1.269      1.875
REMARK  Name = 
REMARK  9 active torsions:
REMARK  status: ('A' for Active; 'I' for Inactive)
REMARK    1  A    between atoms: P_2  and  O_3
REMARK    2  A    between atoms: P_2  and  O_4
REMARK    3  A    between atoms: P_2  and  C_5
REMARK    4  A    between atoms: C_5  and  N_6
REMARK    5  A    between atoms: C_5  and  P_25
REMARK    6  A    between atoms: N_6  and  C_7
REMARK    7  A    between atoms: C_13  and  C_14
REMARK    8  A    between atoms: P_25  and  O_27
REMARK    9  A    between atoms: P_25  and  O_28
REMARK                            x       y       z     vdW  Elec       q    Type
REMARK                         _______ _______ _______ _____ _____    ______ ____
ROOT
ATOM      1  C   UNL     1       4.304   3.328  18.517  0.00  0.00    +0.000 A 
ATOM      2  N   UNL     1       4.546   2.125  19.064  0.00  0.00    +0.000 NA
ATOM      3  C   UNL     1       3.897   1.766  20.185  0.00  0.00    +0.000 A 
ATOM      4  N   UNL     1       3.088   2.521  20.928  0.00  0.00    +0.000 NA
ATOM      5  C   UNL     1       2.923   3.750  20.408  0.00  0.00    +0.000 A 
ATOM      6  S   UNL     1       2.002   4.916  21.234  0.00  0.00    +0.000 S 
ATOM      7  C   UNL     1       2.252   6.104  20.014  0.00  0.00    +0.000 A 
ATOM      8  C   UNL     1       3.024   5.573  18.987  0.00  0.00    +0.000 A 
ATOM      9  C   UNL     1       3.452   4.216  19.215  0.00  0.00    +0.000 A 
ENDROOT
BRANCH   7  10
ATOM     10  C   UNL     1       1.676   7.452  20.166  0.00  0.00    +0.000 A 
ATOM     11  C   UNL     1       0.978   7.860  21.324  0.00  0.00    +0.000 A 
ATOM     12  C   UNL     1       0.420   9.138  21.438  0.00  0.00    +0.000 A 
ATOM     13  C   UNL     1       0.527  10.062  20.400  0.00  0.00    +0.000 A 
ATOM     14  C   UNL     1       1.227   9.660  19.262  0.00  0.00    +0.000 A 
ATOM     15  N   UNL     1       1.505  10.329  18.098  0.00  0.00    +0.000 N 
ATOM     16  N   UNL     1       2.232   9.624  17.219  0.00  0.00    +0.000 NA
ATOM     17  C   UNL     1       2.423   8.460  17.843  0.00  0.00    +0.000 A 
ATOM     18  C   UNL     1       1.805   8.397  19.119  0.00  0.00    +0.000 A 
ATOM     19  H   UNL     1       1.227  11.273  17.847  0.00  0.00    +0.000 HD
ENDBRANCH   7  10
BRANCH   1  20
ATOM     20  N   UNL     1       4.943   3.677  17.324  0.00  0.00    +0.000 N 
ATOM     21  H   UNL     1       5.524   2.925  16.959  0.00  0.00    +0.000 HD
BRANCH  20  22
ATOM     22  C   UNL     1       5.594   5.024  17.310  0.00  0.00    +0.000 C 
BRANCH  22  24
ATOM     23  O   UNL     1       7.533   5.476  15.226  0.00  0.00    +0.000 OA
ATOM     24  P   UNL     1       6.084   5.393  15.576  0.00  0.00    +0.000 P 
BRANCH  24  25
ATOM     25  O   UNL     1       5.297   6.743  15.206  0.00  0.00    +0.000 OA
ATOM     26  H   UNL     1       5.888   7.452  14.886  0.00  0.00    +0.000 HD
ENDBRANCH  24  25
BRANCH  24  27
ATOM     27  O   UNL     1       5.329   4.362  14.603  0.00  0.00    +0.000 OA
ATOM     28  H   UNL     1       4.953   4.811  13.823  0.00  0.00    +0.000 HD
ENDBRANCH  24  27
ENDBRANCH  22  24
BRANCH  22  29
ATOM     29  P   UNL     1       7.106   5.261  18.306  0.00  0.00    +0.000 P 
ATOM     30  O   UNL     1       6.964   5.157  19.790  0.00  0.00    +0.000 OA
BRANCH  29  31
ATOM     31  O   UNL     1       8.135   4.163  17.725  0.00  0.00    +0.000 OA
ATOM     32  H   UNL     1       8.382   4.277  16.786  0.00  0.00    +0.000 HD
ENDBRANCH  29  31
BRANCH  29  33
ATOM     33  O   UNL     1       7.954   6.561  17.911  0.00  0.00    +0.000 OA
ATOM     34  H   UNL     1       7.442   7.358  18.153  0.00  0.00    +0.000 HD
ENDBRANCH  29  33
ENDBRANCH  22  29
ENDBRANCH  20  22
ENDBRANCH   1  20
TORSDOF 9
ENDMDL
MODEL 6
REMARK VINA RESULT:      -8.5      2.057      3.555
REMARK  Name = 
REMARK  9 active torsions:
REMARK  status: ('A' for Active; 'I' for Inactive)
REMARK    1  A    between atoms: P_2  and  O_3
REMARK    2  A    between atoms: P_2  and  O_4
REMARK    3  A    between atoms: P_2  and  C_5
REMARK    4  A    between atoms: C_5  and  N_6
REMARK    5  A    between atoms: C_5  and  P_25
REMARK    6  A    between atoms: N_6  and  C_7
REMARK    7  A    between atoms: C_13  and  C_14
REMARK    8  A    between atoms: P_25  and  O_27
REMARK    9  A    between atoms: P_25  and  O_28
REMARK                            x       y       z     vdW  Elec       q    Type
REMARK                         _______ _______ _______ _____ _____    ______ ____
ROOT
ATOM      1  C   UNL     1       3.551   6.262  18.518  0.00  0.00    +0.000 A 
ATOM      2  N   UNL     1       3.587   5.192  19.329  0.00  0.00    +0.000 NA
ATOM      3  C   UNL     1       2.703   5.097  20.337  0.00  0.00    +0.000 A 
ATOM      4  N   UNL     1       1.823   6.018  20.731  0.00  0.00    +0.000 NA
ATOM      5  C   UNL     1       1.859   7.116  19.957  0.00  0.00    +0.000 A 
ATOM      6  S   UNL     1       0.885   8.460  20.325  0.00  0.00    +0.000 S 
ATOM      7  C   UNL     1       1.462   9.358  18.975  0.00  0.00    +0.000 A 
ATOM      8  C   UNL     1       2.380   8.599  18.257  0.00  0.00    +0.000 A 
ATOM      9  C   UNL     1       2.648   7.305  18.833  0.00  0.00    +0.000 A 
ENDROOT
BRANCH   7  10
ATOM     10  C   UNL     1       0.973  10.728  18.734  0.00  0.00    +0.000 A 
ATOM     11  C   UNL     1       1.800  11.868  18.857  0.00  0.00    +0.000 A 
ATOM     12  C   UNL     1       1.309  13.160  18.645  0.00  0.00    +0.000 A 
ATOM     13  C   UNL     1      -0.027  13.374  18.310  0.00  0.00    +0.000 A 
ATOM     14  C   UNL     1      -0.838  12.246  18.178  0.00  0.00    +0.000 A 
ATOM     15  N   UNL     1      -2.165  12.128  17.858  0.00  0.00    +0.000 N 
ATOM     16  N   UNL     1      -2.607  10.864  17.802  0.00  0.00    +0.000 NA
ATOM     17  C   UNL     1      -1.523  10.147  18.102  0.00  0.00    +0.000 A 
ATOM     18  C   UNL     1      -0.379  10.941  18.372  0.00  0.00    +0.000 A 
ATOM     19  H   UNL     1      -2.822  12.878  17.663  0.00  0.00    +0.000 HD
ENDBRANCH   7  10
BRANCH   1  20
ATOM     20  N   UNL     1       4.439   6.332  17.441  0.00  0.00    +0.000 N 
ATOM     21  H   UNL     1       3.982   6.619  16.578  0.00  0.00    +0.000 HD
BRANCH  20  22
ATOM     22  C   UNL     1       5.367   5.168  17.292  0.00  0.00    +0.000 C 
BRANCH  22  24
ATOM     23  O   UNL     1       7.596   6.851  18.002  0.00  0.00    +0.000 OA
ATOM     24  P   UNL     1       6.902   5.549  18.230  0.00  0.00    +0.000 P 
BRANCH  24  25
ATOM     25  O   UNL     1       7.869   4.296  17.962  0.00  0.00    +0.000 OA
ATOM     26  H   UNL     1       8.440   4.418  17.178  0.00  0.00    +0.000 HD
ENDBRANCH  24  25
BRANCH  24  27
ATOM     27  O   UNL     1       6.608   5.337  19.795  0.00  0.00    +0.000 OA
ATOM     28  H   UNL     1       6.864   6.120  20.319  0.00  0.00    +0.000 HD
ENDBRANCH  24  27
ENDBRANCH  22  24
BRANCH  22  29
ATOM     29  P   UNL     1       5.920   4.716  15.612  0.00  0.00    +0.000 P 
ATOM     30  O   UNL     1       5.010   5.067  14.481  0.00  0.00    +0.000 OA
BRANCH  29  31
ATOM     31  O   UNL     1       7.358   5.433  15.466  0.00  0.00    +0.000 OA
ATOM     32  H   UNL     1       7.421   6.104  14.759  0.00  0.00    +0.000 HD
ENDBRANCH  29  31
BRANCH  29  33
ATOM     33  O   UNL     1       6.433   3.205  15.475  0.00  0.00    +0.000 OA
ATOM     34  H   UNL     1       7.113   3.039  16.157  0.00  0.00    +0.000 HD
ENDBRANCH  29  33
ENDBRANCH  22  29
ENDBRANCH  20  22
ENDBRANCH   1  20
TORSDOF 9
ENDMDL
MODEL 7
REMARK VINA RESULT:      -8.4      1.408      2.227
REMARK  Name = 
REMARK  9 active torsions:
REMARK  status: ('A' for Active; 'I' for Inactive)
REMARK    1  A    between atoms: P_2  and  O_3
REMARK    2  A    between atoms: P_2  and  O_4
REMARK    3  A    between atoms: P_2  and  C_5
REMARK    4  A    between atoms: C_5  and  N_6
REMARK    5  A    between atoms: C_5  and  P_25
REMARK    6  A    between atoms: N_6  and  C_7
REMARK    7  A    between atoms: C_13  and  C_14
REMARK    8  A    between atoms: P_25  and  O_27
REMARK    9  A    between atoms: P_25  and  O_28
REMARK                            x       y       z     vdW  Elec       q    Type
REMARK                         _______ _______ _______ _____ _____    ______ ____
ROOT
ATOM      1  C   UNL     1       4.306   3.713  18.398  0.00  0.00    +0.000 A 
ATOM      2  N   UNL     1       4.211   2.389  18.606  0.00  0.00    +0.000 NA
ATOM      3  C   UNL     1       3.158   1.902  19.285  0.00  0.00    +0.000 A 
ATOM      4  N   UNL     1       2.204   2.595  19.905  0.00  0.00    +0.000 NA
ATOM      5  C   UNL     1       2.362   3.921  19.755  0.00  0.00    +0.000 A 
ATOM      6  S   UNL     1       1.313   5.007  20.536  0.00  0.00    +0.000 S 
ATOM      7  C   UNL     1       2.113   6.385  19.885  0.00  0.00    +0.000 A 
ATOM      8  C   UNL     1       3.161   5.981  19.065  0.00  0.00    +0.000 A 
ATOM      9  C   UNL     1       3.342   4.553  19.004  0.00  0.00    +0.000 A 
ENDROOT
BRANCH   7  10
ATOM     10  C   UNL     1       1.652   7.741  20.233  0.00  0.00    +0.000 A 
ATOM     11  C   UNL     1       1.170   8.079  21.518  0.00  0.00    +0.000 A 
ATOM     12  C   UNL     1       0.717   9.367  21.820  0.00  0.00    +0.000 A 
ATOM     13  C   UNL     1       0.716  10.372  20.855  0.00  0.00    +0.000 A 
ATOM     14  C   UNL     1       1.203  10.039  19.590  0.00  0.00    +0.000 A 
ATOM     15  N   UNL     1       1.336  10.792  18.453  0.00  0.00    +0.000 N 
ATOM     16  N   UNL     1       1.871  10.133  17.416  0.00  0.00    +0.000 NA
ATOM     17  C   UNL     1       2.086   8.911  17.907  0.00  0.00    +0.000 A 
ATOM     18  C   UNL     1       1.673   8.766  19.257  0.00  0.00    +0.000 A 
ATOM     19  H   UNL     1       1.081  11.767  18.325  0.00  0.00    +0.000 HD
ENDBRANCH   7  10
BRANCH   1  20
ATOM     20  N   UNL     1       5.376   4.211  17.649  0.00  0.00    +0.000 N 
ATOM     21  H   UNL     1       6.079   3.502  17.455  0.00  0.00    +0.000 HD
BRANCH  20  22
ATOM     22  C   UNL     1       5.930   5.523  18.108  0.00  0.00    +0.000 C 
BRANCH  22  24
ATOM     23  O   UNL     1       5.160   6.677  15.582  0.00  0.00    +0.000 OA
ATOM     24  P   UNL     1       6.228   6.560  16.618  0.00  0.00    +0.000 P 
BRANCH  24  25
ATOM     25  O   UNL     1       7.606   6.010  16.004  0.00  0.00    +0.000 OA
ATOM     26  H   UNL     1       8.390   6.305  16.506  0.00  0.00    +0.000 HD
ENDBRANCH  24  25
BRANCH  24  27
ATOM     27  O   UNL     1       6.706   8.016  17.100  0.00  0.00    +0.000 OA
ATOM     28  H   UNL     1       7.657   8.030  17.315  0.00  0.00    +0.000 HD
ENDBRANCH  24  27
ENDBRANCH  22  24
BRANCH  22  29
ATOM     29  P   UNL     1       7.510   5.518  19.024  0.00  0.00    +0.000 P 
ATOM     30  O   UNL     1       7.450   5.177  20.477  0.00  0.00    +0.000 OA
BRANCH  29  31
ATOM     31  O   UNL     1       8.435   4.481  18.204  0.00  0.00    +0.000 OA
ATOM     32  H   UNL     1       8.982   4.878  17.498  0.00  0.00    +0.000 HD
ENDBRANCH  29  31
BRANCH  29  33
ATOM     33  O   UNL     1       8.409   6.822  18.788  0.00  0.00    +0.000 OA
ATOM     34  H   UNL     1       7.886   7.613  19.023  0.00  0.00    +0.000 HD
ENDBRANCH  29  33
ENDBRANCH  22  29
ENDBRANCH  20  22
ENDBRANCH   1  20
TORSDOF 9
ENDMDL
MODEL 8
REMARK VINA RESULT:      -8.4      1.657      2.717
REMARK  Name = 
REMARK  9 active torsions:
REMARK  status: ('A' for Active; 'I' for Inactive)
REMARK    1  A    between atoms: P_2  and  O_3
REMARK    2  A    between atoms: P_2  and  O_4
REMARK    3  A    between atoms: P_2  and  C_5
REMARK    4  A    between atoms: C_5  and  N_6
REMARK    5  A    between atoms: C_5  and  P_25
REMARK    6  A    between atoms: N_6  and  C_7
REMARK    7  A    between atoms: C_13  and  C_14
REMARK    8  A    between atoms: P_25  and  O_27
REMARK    9  A    between atoms: P_25  and  O_28
REMARK                            x       y       z     vdW  Elec       q    Type
REMARK                         _______ _______ _______ _____ _____    ______ ____
ROOT
ATOM      1  C   UNL     1       4.992   3.974  19.545  0.00  0.00    +0.000 A 
ATOM      2  N   UNL     1       4.917   2.635  19.628  0.00  0.00    +0.000 NA
ATOM      3  C   UNL     1       3.716   2.049  19.768  0.00  0.00    +0.000 A 
ATOM      4  N   UNL     1       2.540   2.648  19.956  0.00  0.00    +0.000 NA
ATOM      5  C   UNL     1       2.647   3.988  19.952  0.00  0.00    +0.000 A 
ATOM      6  S   UNL     1       1.289   4.961  20.264  0.00  0.00    +0.000 S 
ATOM      7  C   UNL     1       2.183   6.419  20.084  0.00  0.00    +0.000 A 
ATOM      8  C   UNL     1       3.507   6.129  19.770  0.00  0.00    +0.000 A 
ATOM      9  C   UNL     1       3.802   4.720  19.722  0.00  0.00    +0.000 A 
ENDROOT
BRANCH   7  10
ATOM     10  C   UNL     1       1.519   7.722  20.268  0.00  0.00    +0.000 A 
ATOM     11  C   UNL     1       0.780   8.047  21.428  0.00  0.00    +0.000 A 
ATOM     12  C   UNL     1       0.138   9.281  21.572  0.00  0.00    +0.000 A 
ATOM     13  C   UNL     1       0.199  10.243  20.566  0.00  0.00    +0.000 A 
ATOM     14  C   UNL     1       0.938   9.924  19.426  0.00  0.00    +0.000 A 
ATOM     15  N   UNL     1       1.188  10.646  18.288  0.00  0.00    +0.000 N 
ATOM     16  N   UNL     1       1.971  10.019  17.400  0.00  0.00    +0.000 NA
ATOM     17  C   UNL     1       2.229   8.850  17.990  0.00  0.00    +0.000 A 
ATOM     18  C   UNL     1       1.599   8.706  19.253  0.00  0.00    +0.000 A 
ATOM     19  H   UNL     1       0.852  11.578  18.062  0.00  0.00    +0.000 HD
ENDBRANCH   7  10
BRANCH   1  20
ATOM     20  N   UNL     1       6.237   4.577  19.348  0.00  0.00    +0.000 N 
ATOM     21  H   UNL     1       6.335   5.448  19.865  0.00  0.00    +0.000 HD
BRANCH  20  22
ATOM     22  C   UNL     1       6.705   4.645  17.929  0.00  0.00    +0.000 C 
BRANCH  22  24
ATOM     23  O   UNL     1       8.153   7.061  18.536  0.00  0.00    +0.000 OA
ATOM     24  P   UNL     1       7.224   6.376  17.589  0.00  0.00    +0.000 P 
BRANCH  24  25
ATOM     25  O   UNL     1       5.852   7.186  17.400  0.00  0.00    +0.000 OA
ATOM     26  H   UNL     1       5.096   6.607  17.180  0.00  0.00    +0.000 HD
ENDBRANCH  24  25
BRANCH  24  27
ATOM     27  O   UNL     1       7.795   6.451  16.089  0.00  0.00    +0.000 OA
ATOM     28  H   UNL     1       8.690   6.839  16.064  0.00  0.00    +0.000 HD
ENDBRANCH  24  27
ENDBRANCH  22  24
BRANCH  22  29
ATOM     29  P   UNL     1       5.517   4.222  16.608  0.00  0.00    +0.000 P 
ATOM     30  O   UNL     1       4.370   5.157  16.403  0.00  0.00    +0.000 OA
BRANCH  29  31
ATOM     31  O   UNL     1       6.431   4.098  15.284  0.00  0.00    +0.000 OA
ATOM     32  H   UNL     1       7.081   3.368  15.291  0.00  0.00    +0.000 HD
ENDBRANCH  29  31
BRANCH  29  33
ATOM     33  O   UNL     1       5.008   2.704  16.645  0.00  0.00    +0.000 OA
ATOM     34  H   UNL     1       5.782   2.113  16.726  0.00  0.00    +0.000 HD
ENDBRANCH  29  33
ENDBRANCH  22  29
ENDBRANCH  20  22
ENDBRANCH   1  20
TORSDOF 9
ENDMDL
MODEL 9
REMARK VINA RESULT:      -8.3      1.978      2.868
REMARK  Name = 
REMARK  9 active torsions:
REMARK  status: ('A' for Active; 'I' for Inactive)
REMARK    1  A    between atoms: P_2  and  O_3
REMARK    2  A    between atoms: P_2  and  O_4
REMARK    3  A    between atoms: P_2  and  C_5
REMARK    4  A    between atoms: C_5  and  N_6
REMARK    5  A    between atoms: C_5  and  P_25
REMARK    6  A    between atoms: N_6  and  C_7
REMARK    7  A    between atoms: C_13  and  C_14
REMARK    8  A    between atoms: P_25  and  O_27
REMARK    9  A    between atoms: P_25  and  O_28
REMARK                            x       y       z     vdW  Elec       q    Type
REMARK                         _______ _______ _______ _____ _____    ______ ____
ROOT
ATOM      1  C   UNL     1       3.050   5.773  18.807  0.00  0.00    +0.000 A 
ATOM      2  N   UNL     1       3.050   4.788  19.720  0.00  0.00    +0.000 NA
ATOM      3  C   UNL     1       2.309   4.919  20.833  0.00  0.00    +0.000 A 
ATOM      4  N   UNL     1       1.624   5.993  21.228  0.00  0.00    +0.000 NA
ATOM      5  C   UNL     1       1.702   6.998  20.339  0.00  0.00    +0.000 A 
ATOM      6  S   UNL     1       0.980   8.500  20.673  0.00  0.00    +0.000 S 
ATOM      7  C   UNL     1       1.483   9.174  19.173  0.00  0.00    +0.000 A 
ATOM      8  C   UNL     1       2.182   8.224  18.436  0.00  0.00    +0.000 A 
ATOM      9  C   UNL     1       2.348   6.963  19.113  0.00  0.00    +0.000 A 
ENDROOT
BRANCH   7  10
ATOM     10  C   UNL     1       1.156  10.574  18.844  0.00  0.00    +0.000 A 
ATOM     11  C   UNL     1       2.142  11.575  18.696  0.00  0.00    +0.000 A 
ATOM     12  C   UNL     1       1.808  12.902  18.406  0.00  0.00    +0.000 A 
ATOM     13  C   UNL     1       0.478  13.291  18.258  0.00  0.00    +0.000 A 
ATOM     14  C   UNL     1      -0.493  12.298  18.394  0.00  0.00    +0.000 A 
ATOM     15  N   UNL     1      -1.859  12.360  18.301  0.00  0.00    +0.000 N 
ATOM     16  N   UNL     1      -2.477  11.183  18.470  0.00  0.00    +0.000 NA
ATOM     17  C   UNL     1      -1.468  10.336  18.683  0.00  0.00    +0.000 A 
ATOM     18  C   UNL     1      -0.195  10.962  18.673  0.00  0.00    +0.000 A 
ATOM     19  H   UNL     1      -2.429  13.182  18.119  0.00  0.00    +0.000 HD
ENDBRANCH   7  10
BRANCH   1  20
ATOM     20  N   UNL     1       3.782   5.611  17.628  0.00  0.00    +0.000 N 
ATOM     21  H   UNL     1       3.597   4.720  17.173  0.00  0.00    +0.000 HD
BRANCH  20  22
ATOM     22  C   UNL     1       5.231   5.973  17.713  0.00  0.00    +0.000 C 
BRANCH  22  24
ATOM     23  O   UNL     1       5.245   6.874  14.976  0.00  0.00    +0.000 OA
ATOM     24  P   UNL     1       5.903   6.012  16.002  0.00  0.00    +0.000 P 
BRANCH  24  25
ATOM     25  O   UNL     1       5.961   4.473  15.548  0.00  0.00    +0.000 OA
ATOM     26  H   UNL     1       6.870   4.114  15.538  0.00  0.00    +0.000 HD
ENDBRANCH  24  25
BRANCH  24  27
ATOM     27  O   UNL     1       7.475   6.333  16.080  0.00  0.00    +0.000 OA
ATOM     28  H   UNL     1       7.679   6.962  16.798  0.00  0.00    +0.000 HD
ENDBRANCH  24  27
ENDBRANCH  22  24
BRANCH  22  29
ATOM     29  P   UNL     1       6.342   4.867  18.650  0.00  0.00    +0.000 P 
ATOM     30  O   UNL     1       6.871   5.379  19.950  0.00  0.00    +0.000 OA
BRANCH  29  31
ATOM     31  O   UNL     1       5.479   3.518  18.845  0.00  0.00    +0.000 OA
ATOM     32  H   UNL     1       4.625   3.631  19.306  0.00  0.00    +0.000 HD
ENDBRANCH  29  31
BRANCH  29  33
ATOM     33  O   UNL     1       7.521   4.228  17.774  0.00  0.00    +0.000 OA
ATOM     34  H   UNL     1       7.266   3.321  17.515  0.00  0.00    +0.000 HD
ENDBRANCH  29  33
ENDBRANCH  22  29
ENDBRANCH  20  22
ENDBRANCH   1  20
TORSDOF 9
ENDMDL
