MODEL 1
REMARK VINA RESULT:      -8.0      0.000      0.000
REMARK  Name = 
REMARK  4 active torsions:
REMARK  status: ('A' for Active; 'I' for Inactive)
REMARK    1  A    between atoms: C_2  and  C_3
REMARK    2  A    between atoms: C_3  and  N_4
REMARK    3  A    between atoms: C_13  and  C_14
REMARK    4  A    between atoms: C_18  and  C_19
REMARK                            x       y       z     vdW  Elec       q    Type
REMARK                         _______ _______ _______ _____ _____    ______ ____
ROOT
ATOM      1  N   UNL     1       4.507   5.430  17.356  0.00  0.00    +0.000 N 
ATOM      2  C   UNL     1       4.551   4.140  16.809  0.00  0.00    +0.000 C 
ATOM      3  O   UNL     1       5.485   3.630  16.214  0.00  0.00    +0.000 OA
ATOM      4  C   UNL     1       3.265   3.415  17.166  0.00  0.00    +0.000 C 
ATOM      5  C   UNL     1       3.490   2.383  18.274  0.00  0.00    +0.000 C 
ATOM      6  C   UNL     1       2.165   1.843  18.820  0.00  0.00    +0.000 C 
ATOM      7  C   UNL     1       1.119   2.902  19.005  0.00  0.00    +0.000 C 
ATOM      8  C   UNL     1       1.226   4.141  18.506  0.00  0.00    +0.000 C 
ATOM      9  C   UNL     1       2.373   4.572  17.637  0.00  0.00    +0.000 C 
ATOM     10  C   UNL     1       3.404   5.519  18.291  0.00  0.00    +0.000 C 
ENDROOT
BRANCH  10  11
ATOM     11  C   UNL     1       2.822   6.877  18.605  0.00  0.00    +0.000 A 
ATOM     12  C   UNL     1       2.570   7.831  17.614  0.00  0.00    +0.000 A 
ATOM     13  C   UNL     1       1.801   8.961  17.903  0.00  0.00    +0.000 A 
ATOM     14  C   UNL     1       1.284   9.155  19.186  0.00  0.00    +0.000 A 
ATOM     15  C   UNL     1       1.561   8.240  20.203  0.00  0.00    +0.000 A 
ATOM     16  C   UNL     1       1.032   8.443  21.592  0.00  0.00    +0.000 C 
ATOM     17  C   UNL     1       2.347   7.118  19.909  0.00  0.00    +0.000 A 
ENDBRANCH  10  11
BRANCH   1  18
ATOM     18  C   UNL     1       5.726   6.204  17.484  0.00  0.00    +0.000 C 
BRANCH  18  20
ATOM     19  C   UNL     1       7.824   5.720  18.878  0.00  0.00    +0.000 C 
ATOM     20  C   UNL     1       6.500   5.849  18.727  0.00  0.00    +0.000 C 
ENDBRANCH  18  20
ENDBRANCH   1  18
TORSDOF 3
ENDMDL
MODEL 2
REMARK VINA RESULT:      -7.9      1.243      3.661
REMARK  Name = 
REMARK  4 active torsions:
REMARK  status: ('A' for Active; 'I' for Inactive)
REMARK    1  A    between atoms: C_2  and  C_3
REMARK    2  A    between atoms: C_3  and  N_4
REMARK    3  A    between atoms: C_13  and  C_14
REMARK    4  A    between atoms: C_18  and  C_19
REMARK                            x       y       z     vdW  Elec       q    Type
REMARK                         _______ _______ _______ _____ _____    ______ ____
ROOT
ATOM      1  N   UNL     1       2.945   4.483  18.114  0.00  0.00    +0.000 N 
ATOM      2  C   UNL     1       3.900   3.466  17.986  0.00  0.00    +0.000 C 
ATOM      3  O   UNL     1       3.689   2.265  17.959  0.00  0.00    +0.000 OA
ATOM      4  C   UNL     1       5.265   4.100  17.778  0.00  0.00    +0.000 C 
ATOM      5  C   UNL     1       5.720   3.989  16.321  0.00  0.00    +0.000 C 
ATOM      6  C   UNL     1       6.957   4.850  16.050  0.00  0.00    +0.000 C 
ATOM      7  C   UNL     1       6.899   6.202  16.699  0.00  0.00    +0.000 C 
ATOM      8  C   UNL     1       5.997   6.534  17.632  0.00  0.00    +0.000 C 
ATOM      9  C   UNL     1       4.997   5.556  18.183  0.00  0.00    +0.000 C 
ATOM     10  C   UNL     1       3.534   5.748  17.724  0.00  0.00    +0.000 C 
ENDROOT
BRANCH  10  11
ATOM     11  C   UNL     1       2.928   7.027  18.250  0.00  0.00    +0.000 A 
ATOM     12  C   UNL     1       2.646   8.119  17.422  0.00  0.00    +0.000 A 
ATOM     13  C   UNL     1       1.856   9.172  17.889  0.00  0.00    +0.000 A 
ATOM     14  C   UNL     1       1.348   9.153  19.189  0.00  0.00    +0.000 A 
ATOM     15  C   UNL     1       1.655   8.097  20.050  0.00  0.00    +0.000 A 
ATOM     16  C   UNL     1       1.136   8.069  21.457  0.00  0.00    +0.000 C 
ATOM     17  C   UNL     1       2.461   7.052  19.579  0.00  0.00    +0.000 A 
ENDBRANCH  10  11
BRANCH   1  18
ATOM     18  C   UNL     1       1.537   4.178  17.958  0.00  0.00    +0.000 C 
BRANCH  18  20
ATOM     19  C   UNL     1       1.067   3.882  20.462  0.00  0.00    +0.000 C 
ATOM     20  C   UNL     1       0.956   3.514  19.180  0.00  0.00    +0.000 C 
ENDBRANCH  18  20
ENDBRANCH   1  18
TORSDOF 3
ENDMDL
MODEL 3
REMARK VINA RESULT:      -7.8      1.618      3.563
REMARK  Name = 
REMARK  4 active torsions:
REMARK  status: ('A' for Active; 'I' for Inactive)
REMARK    1  A    between atoms: C_2  and  C_3
REMARK    2  A    between atoms: C_3  and  N_4
REMARK    3  A    between atoms: C_13  and  C_14
REMARK    4  A    between atoms: C_18  and  C_19
REMARK                            x       y       z     vdW  Elec       q    Type
REMARK                         _______ _______ _______ _____ _____    ______ ____
ROOT
ATOM      1  N   UNL     1       2.819   4.668  18.919  0.00  0.00    +0.000 N 
ATOM      2  C   UNL     1       3.789   3.703  18.620  0.00  0.00    +0.000 C 
ATOM      3  O   UNL     1       3.764   2.522  18.926  0.00  0.00    +0.000 OA
ATOM      4  C   UNL     1       4.858   4.338  17.746  0.00  0.00    +0.000 C 
ATOM      5  C   UNL     1       4.725   3.897  16.286  0.00  0.00    +0.000 C 
ATOM      6  C   UNL     1       5.619   4.730  15.363  0.00  0.00    +0.000 C 
ATOM      7  C   UNL     1       5.618   6.194  15.690  0.00  0.00    +0.000 C 
ATOM      8  C   UNL     1       5.108   6.697  16.823  0.00  0.00    +0.000 C 
ATOM      9  C   UNL     1       4.555   5.833  17.921  0.00  0.00    +0.000 C 
ATOM     10  C   UNL     1       3.018   5.828  18.074  0.00  0.00    +0.000 C 
ENDROOT
BRANCH  10  11
ATOM     11  C   UNL     1       2.480   7.163  18.531  0.00  0.00    +0.000 A 
ATOM     12  C   UNL     1       2.078   8.157  17.632  0.00  0.00    +0.000 A 
ATOM     13  C   UNL     1       1.353   9.263  18.082  0.00  0.00    +0.000 A 
ATOM     14  C   UNL     1       1.029   9.394  19.434  0.00  0.00    +0.000 A 
ATOM     15  C   UNL     1       1.459   8.439  20.357  0.00  0.00    +0.000 A 
ATOM     16  C   UNL     1       1.139   8.574  21.817  0.00  0.00    +0.000 C 
ATOM     17  C   UNL     1       2.201   7.342  19.900  0.00  0.00    +0.000 A 
ENDBRANCH  10  11
BRANCH   1  18
ATOM     18  C   UNL     1       1.522   4.260  19.421  0.00  0.00    +0.000 C 
BRANCH  18  20
ATOM     19  C   UNL     1       1.444   2.834  21.551  0.00  0.00    +0.000 C 
ATOM     20  C   UNL     1       1.537   4.003  20.905  0.00  0.00    +0.000 C 
ENDBRANCH  18  20
ENDBRANCH   1  18
TORSDOF 3
ENDMDL
MODEL 4
REMARK VINA RESULT:      -7.8      1.391      3.902
REMARK  Name = 
REMARK  4 active torsions:
REMARK  status: ('A' for Active; 'I' for Inactive)
REMARK    1  A    between atoms: C_2  and  C_3
REMARK    2  A    between atoms: C_3  and  N_4
REMARK    3  A    between atoms: C_13  and  C_14
REMARK    4  A    between atoms: C_18  and  C_19
REMARK                            x       y       z     vdW  Elec       q    Type
REMARK                         _______ _______ _______ _____ _____    ______ ____
ROOT
ATOM      1  N   UNL     1       2.697   3.899  18.270  0.00  0.00    +0.000 N 
ATOM      2  C   UNL     1       3.748   3.029  17.949  0.00  0.00    +0.000 C 
ATOM      3  O   UNL     1       3.678   1.820  17.806  0.00  0.00    +0.000 OA
ATOM      4  C   UNL     1       5.002   3.849  17.700  0.00  0.00    +0.000 C 
ATOM      5  C   UNL     1       5.324   3.944  16.206  0.00  0.00    +0.000 C 
ATOM      6  C   UNL     1       6.420   4.977  15.930  0.00  0.00    +0.000 C 
ATOM      7  C   UNL     1       6.267   6.238  16.729  0.00  0.00    +0.000 C 
ATOM      8  C   UNL     1       5.427   6.358  17.766  0.00  0.00    +0.000 C 
ATOM      9  C   UNL     1       4.606   5.212  18.286  0.00  0.00    +0.000 C 
ATOM     10  C   UNL     1       3.094   5.261  17.976  0.00  0.00    +0.000 C 
ENDROOT
BRANCH  10  11
ATOM     11  C   UNL     1       2.396   6.394  18.690  0.00  0.00    +0.000 A 
ATOM     12  C   UNL     1       2.108   6.353  20.058  0.00  0.00    +0.000 A 
ATOM     13  C   UNL     1       1.702   7.510  20.727  0.00  0.00    +0.000 A 
ATOM     14  C   UNL     1       1.568   8.716  20.038  0.00  0.00    +0.000 A 
ATOM     15  C   UNL     1       1.805   8.772  18.663  0.00  0.00    +0.000 A 
ATOM     16  C   UNL     1       1.646  10.054  17.900  0.00  0.00    +0.000 C 
ATOM     17  C   UNL     1       2.196   7.604  17.996  0.00  0.00    +0.000 A 
ENDBRANCH  10  11
BRANCH   1  18
ATOM     18  C   UNL     1       1.326   3.435  18.200  0.00  0.00    +0.000 C 
BRANCH  18  20
ATOM     19  C   UNL     1       1.438   2.940  20.714  0.00  0.00    +0.000 C 
ATOM     20  C   UNL     1       0.834   2.900  19.520  0.00  0.00    +0.000 C 
ENDBRANCH  18  20
ENDBRANCH   1  18
TORSDOF 3
ENDMDL
MODEL 5
REMARK VINA RESULT:      -7.7      2.114      5.267
REMARK  Name = 
REMARK  4 active torsions:
REMARK  status: ('A' for Active; 'I' for Inactive)
REMARK    1  A    between atoms: C_2  and  C_3
REMARK    2  A    between atoms: C_3  and  N_4
REMARK    3  A    between atoms: C_13  and  C_14
REMARK    4  A    between atoms: C_18  and  C_19
REMARK                            x       y       z     vdW  Elec       q    Type
REMARK                         _______ _______ _______ _____ _____    ______ ____
ROOT
ATOM      1  N   UNL     1       2.991   2.938  18.127  0.00  0.00    +0.000 N 
ATOM      2  C   UNL     1       1.679   3.100  18.592  0.00  0.00    +0.000 C 
ATOM      3  O   UNL     1       0.876   2.216  18.837  0.00  0.00    +0.000 OA
ATOM      4  C   UNL     1       1.431   4.577  18.850  0.00  0.00    +0.000 C 
ATOM      5  C   UNL     1       1.441   4.896  20.347  0.00  0.00    +0.000 C 
ATOM      6  C   UNL     1       1.459   6.405  20.602  0.00  0.00    +0.000 C 
ATOM      7  C   UNL     1       2.380   7.156  19.686  0.00  0.00    +0.000 C 
ATOM      8  C   UNL     1       2.931   6.617  18.589  0.00  0.00    +0.000 C 
ATOM      9  C   UNL     1       2.616   5.225  18.121  0.00  0.00    +0.000 C 
ATOM     10  C   UNL     1       3.727   4.170  18.325  0.00  0.00    +0.000 C 
ENDROOT
BRANCH  10  11
ATOM     11  C   UNL     1       4.942   4.439  17.469  0.00  0.00    +0.000 A 
ATOM     12  C   UNL     1       6.208   4.670  18.016  0.00  0.00    +0.000 A 
ATOM     13  C   UNL     1       7.342   4.656  17.199  0.00  0.00    +0.000 A 
ATOM     14  C   UNL     1       7.223   4.422  15.828  0.00  0.00    +0.000 A 
ATOM     15  C   UNL     1       5.965   4.236  15.252  0.00  0.00    +0.000 A 
ATOM     16  C   UNL     1       5.815   4.004  13.777  0.00  0.00    +0.000 C 
ATOM     17  C   UNL     1       4.832   4.268  16.075  0.00  0.00    +0.000 A 
ENDBRANCH  10  11
BRANCH   1  18
ATOM     18  C   UNL     1       3.610   1.628  18.148  0.00  0.00    +0.000 C 
BRANCH  18  20
ATOM     19  C   UNL     1       4.404   2.050  20.549  0.00  0.00    +0.000 C 
ATOM     20  C   UNL     1       4.462   1.417  19.372  0.00  0.00    +0.000 C 
ENDBRANCH  18  20
ENDBRANCH   1  18
TORSDOF 3
ENDMDL
MODEL 6
REMARK VINA RESULT:      -7.7      2.092      5.098
REMARK  Name = 
REMARK  4 active torsions:
REMARK  status: ('A' for Active; 'I' for Inactive)
REMARK    1  A    between atoms: C_2  and  C_3
REMARK    2  A    between atoms: C_3  and  N_4
REMARK    3  A    between atoms: C_13  and  C_14
REMARK    4  A    between atoms: C_18  and  C_19
REMARK                            x       y       z     vdW  Elec       q    Type
REMARK                         _______ _______ _______ _____ _____    ______ ____
ROOT
ATOM      1  N   UNL     1       3.248   6.028  19.204  0.00  0.00    +0.000 N 
ATOM      2  C   UNL     1       2.281   5.621  20.133  0.00  0.00    +0.000 C 
ATOM      3  O   UNL     1       1.583   6.343  20.825  0.00  0.00    +0.000 OA
ATOM      4  C   UNL     1       2.155   4.108  20.076  0.00  0.00    +0.000 C 
ATOM      5  C   UNL     1       0.879   3.677  19.349  0.00  0.00    +0.000 C 
ATOM      6  C   UNL     1       0.878   2.175  19.056  0.00  0.00    +0.000 C 
ATOM      7  C   UNL     1       2.204   1.657  18.580  0.00  0.00    +0.000 C 
ATOM      8  C   UNL     1       3.341   2.363  18.652  0.00  0.00    +0.000 C 
ATOM      9  C   UNL     1       3.417   3.719  19.293  0.00  0.00    +0.000 C 
ATOM     10  C   UNL     1       3.575   4.918  18.332  0.00  0.00    +0.000 C 
ENDROOT
BRANCH  10  11
ATOM     11  C   UNL     1       4.907   4.917  17.622  0.00  0.00    +0.000 A 
ATOM     12  C   UNL     1       6.123   4.993  18.309  0.00  0.00    +0.000 A 
ATOM     13  C   UNL     1       7.325   4.730  17.647  0.00  0.00    +0.000 A 
ATOM     14  C   UNL     1       7.327   4.399  16.291  0.00  0.00    +0.000 A 
ATOM     15  C   UNL     1       6.131   4.363  15.572  0.00  0.00    +0.000 A 
ATOM     16  C   UNL     1       6.116   4.030  14.109  0.00  0.00    +0.000 C 
ATOM     17  C   UNL     1       4.932   4.644  16.240  0.00  0.00    +0.000 A 
ENDBRANCH  10  11
BRANCH   1  18
ATOM     18  C   UNL     1       3.315   7.415  18.789  0.00  0.00    +0.000 C 
BRANCH  18  20
ATOM     19  C   UNL     1       1.468   8.905  17.816  0.00  0.00    +0.000 C 
ATOM     20  C   UNL     1       2.199   7.784  17.846  0.00  0.00    +0.000 C 
ENDBRANCH  18  20
ENDBRANCH   1  18
TORSDOF 3
ENDMDL
MODEL 7
REMARK VINA RESULT:      -7.5      1.172      1.204
REMARK  Name = 
REMARK  4 active torsions:
REMARK  status: ('A' for Active; 'I' for Inactive)
REMARK    1  A    between atoms: C_2  and  C_3
REMARK    2  A    between atoms: C_3  and  N_4
REMARK    3  A    between atoms: C_13  and  C_14
REMARK    4  A    between atoms: C_18  and  C_19
REMARK                            x       y       z     vdW  Elec       q    Type
REMARK                         _______ _______ _______ _____ _____    ______ ____
ROOT
ATOM      1  N   UNL     1       3.818   5.668  17.600  0.00  0.00    +0.000 N 
ATOM      2  C   UNL     1       3.857   4.277  17.435  0.00  0.00    +0.000 C 
ATOM      3  O   UNL     1       4.605   3.648  16.706  0.00  0.00    +0.000 OA
ATOM      4  C   UNL     1       2.872   3.643  18.402  0.00  0.00    +0.000 C 
ATOM      5  C   UNL     1       3.589   2.995  19.590  0.00  0.00    +0.000 C 
ATOM      6  C   UNL     1       2.604   2.592  20.691  0.00  0.00    +0.000 C 
ATOM      7  C   UNL     1       1.541   3.620  20.948  0.00  0.00    +0.000 C 
ATOM      8  C   UNL     1       1.306   4.658  20.134  0.00  0.00    +0.000 C 
ATOM      9  C   UNL     1       2.035   4.854  18.834  0.00  0.00    +0.000 C 
ATOM     10  C   UNL     1       3.082   5.989  18.806  0.00  0.00    +0.000 C 
ENDROOT
BRANCH  10  11
ATOM     11  C   UNL     1       2.454   7.357  18.934  0.00  0.00    +0.000 A 
ATOM     12  C   UNL     1       2.159   8.153  17.822  0.00  0.00    +0.000 A 
ATOM     13  C   UNL     1       1.352   9.285  17.961  0.00  0.00    +0.000 A 
ATOM     14  C   UNL     1       0.840   9.640  19.210  0.00  0.00    +0.000 A 
ATOM     15  C   UNL     1       1.159   8.888  20.342  0.00  0.00    +0.000 A 
ATOM     16  C   UNL     1       0.636   9.266  21.697  0.00  0.00    +0.000 C 
ATOM     17  C   UNL     1       1.983   7.764  20.198  0.00  0.00    +0.000 A 
ENDBRANCH  10  11
BRANCH   1  18
ATOM     18  C   UNL     1       4.893   6.489  17.079  0.00  0.00    +0.000 C 
BRANCH  18  20
ATOM     19  C   UNL     1       7.354   6.914  17.663  0.00  0.00    +0.000 C 
ATOM     20  C   UNL     1       6.185   6.282  17.825  0.00  0.00    +0.000 C 
ENDBRANCH  18  20
ENDBRANCH   1  18
TORSDOF 3
ENDMDL
MODEL 8
REMARK VINA RESULT:      -7.4      0.733      1.200
REMARK  Name = 
REMARK  4 active torsions:
REMARK  status: ('A' for Active; 'I' for Inactive)
REMARK    1  A    between atoms: C_2  and  C_3
REMARK    2  A    between atoms: C_3  and  N_4
REMARK    3  A    between atoms: C_13  and  C_14
REMARK    4  A    between atoms: C_18  and  C_19
REMARK                            x       y       z     vdW  Elec       q    Type
REMARK                         _______ _______ _______ _____ _____    ______ ____
ROOT
ATOM      1  N   UNL     1       4.347   5.192  17.668  0.00  0.00    +0.000 N 
ATOM      2  C   UNL     1       4.344   3.874  17.193  0.00  0.00    +0.000 C 
ATOM      3  O   UNL     1       5.265   3.293  16.642  0.00  0.00    +0.000 OA
ATOM      4  C   UNL     1       3.023   3.222  17.565  0.00  0.00    +0.000 C 
ATOM      5  C   UNL     1       3.187   2.244  18.731  0.00  0.00    +0.000 C 
ATOM      6  C   UNL     1       1.832   1.790  19.281  0.00  0.00    +0.000 C 
ATOM      7  C   UNL     1       0.829   2.901  19.391  0.00  0.00    +0.000 C 
ATOM      8  C   UNL     1       0.996   4.105  18.827  0.00  0.00    +0.000 C 
ATOM      9  C   UNL     1       2.174   4.440  17.957  0.00  0.00    +0.000 C 
ATOM     10  C   UNL     1       3.234   5.377  18.577  0.00  0.00    +0.000 C 
ENDROOT
BRANCH  10  11
ATOM     11  C   UNL     1       2.705   6.773  18.807  0.00  0.00    +0.000 A 
ATOM     12  C   UNL     1       2.479   7.671  17.758  0.00  0.00    +0.000 A 
ATOM     13  C   UNL     1       1.754   8.844  17.980  0.00  0.00    +0.000 A 
ATOM     14  C   UNL     1       1.257   9.140  19.250  0.00  0.00    +0.000 A 
ATOM     15  C   UNL     1       1.511   8.282  20.323  0.00  0.00    +0.000 A 
ATOM     16  C   UNL     1       1.003   8.594  21.700  0.00  0.00    +0.000 C 
ATOM     17  C   UNL     1       2.252   7.116  20.096  0.00  0.00    +0.000 A 
ENDBRANCH  10  11
BRANCH   1  18
ATOM     18  C   UNL     1       5.595   5.920  17.776  0.00  0.00    +0.000 C 
BRANCH  18  20
ATOM     19  C   UNL     1       5.223   6.764  15.383  0.00  0.00    +0.000 C 
ATOM     20  C   UNL     1       5.899   6.723  16.538  0.00  0.00    +0.000 C 
ENDBRANCH  18  20
ENDBRANCH   1  18
TORSDOF 3
ENDMDL
MODEL 9
REMARK VINA RESULT:      -7.4      2.051      5.371
REMARK  Name = 
REMARK  4 active torsions:
REMARK  status: ('A' for Active; 'I' for Inactive)
REMARK    1  A    between atoms: C_2  and  C_3
REMARK    2  A    between atoms: C_3  and  N_4
REMARK    3  A    between atoms: C_13  and  C_14
REMARK    4  A    between atoms: C_18  and  C_19
REMARK                            x       y       z     vdW  Elec       q    Type
REMARK                         _______ _______ _______ _____ _____    ______ ____
ROOT
ATOM      1  N   UNL     1       3.302   4.051  19.569  0.00  0.00    +0.000 N 
ATOM      2  C   UNL     1       1.992   4.311  19.993  0.00  0.00    +0.000 C 
ATOM      3  O   UNL     1       1.298   3.600  20.700  0.00  0.00    +0.000 OA
ATOM      4  C   UNL     1       1.588   5.695  19.512  0.00  0.00    +0.000 C 
ATOM      5  C   UNL     1       1.599   6.713  20.656  0.00  0.00    +0.000 C 
ATOM      6  C   UNL     1       1.455   8.145  20.136  0.00  0.00    +0.000 C 
ATOM      7  C   UNL     1       2.265   8.419  18.903  0.00  0.00    +0.000 C 
ATOM      8  C   UNL     1       2.845   7.456  18.173  0.00  0.00    +0.000 C 
ATOM      9  C   UNL     1       2.676   5.994  18.472  0.00  0.00    +0.000 C 
ATOM     10  C   UNL     1       3.901   5.277  19.081  0.00  0.00    +0.000 C 
ENDROOT
BRANCH  10  11
ATOM     11  C   UNL     1       5.057   5.188  18.113  0.00  0.00    +0.000 A 
ATOM     12  C   UNL     1       6.391   5.186  18.537  0.00  0.00    +0.000 A 
ATOM     13  C   UNL     1       7.412   4.844  17.647  0.00  0.00    +0.000 A 
ATOM     14  C   UNL     1       7.115   4.511  16.324  0.00  0.00    +0.000 A 
ATOM     15  C   UNL     1       5.797   4.552  15.865  0.00  0.00    +0.000 A 
ATOM     16  C   UNL     1       5.461   4.218  14.442  0.00  0.00    +0.000 C 
ATOM     17  C   UNL     1       4.780   4.912  16.760  0.00  0.00    +0.000 A 
ENDBRANCH  10  11
BRANCH   1  18
ATOM     18  C   UNL     1       4.063   2.981  20.182  0.00  0.00    +0.000 C 
BRANCH  18  20
ATOM     19  C   UNL     1       3.597   1.560  18.098  0.00  0.00    +0.000 C 
ATOM     20  C   UNL     1       4.099   1.742  19.325  0.00  0.00    +0.000 C 
ENDBRANCH  18  20
ENDBRANCH   1  18
TORSDOF 3
ENDMDL
