MODEL 1
REMARK VINA RESULT:      -7.5      0.000      0.000
REMARK  Name = 
REMARK  9 active torsions:
REMARK  status: ('A' for Active; 'I' for Inactive)
REMARK    1  A    between atoms: C_1  and  C_2
REMARK    2  A    between atoms: C_6  and  C_7
REMARK    3  A    between atoms: C_8  and  O_9
REMARK    4  A    between atoms: O_9  and  C_10
REMARK    5  A    between atoms: C_10  and  C_11
REMARK    6  A    between atoms: C_14  and  S_15
REMARK    7  A    between atoms: S_15  and  C_16
REMARK    8  A    between atoms: C_16  and  C_17
REMARK    9  A    between atoms: N_25  and  C_26
REMARK                            x       y       z     vdW  Elec       q    Type
REMARK                         _______ _______ _______ _____ _____    ______ ____
ROOT
ATOM      1  C   UNL     1       5.411   4.184  16.907  0.00  0.00    +0.000 A 
ATOM      2  N   UNL     1       6.605   3.874  16.421  0.00  0.00    +0.000 NA
ATOM      3  N   UNL     1       7.510   4.813  16.833  0.00  0.00    +0.000 NA
ATOM      4  C   UNL     1       6.872   5.669  17.595  0.00  0.00    +0.000 A 
ATOM      5  N   UNL     1       5.513   5.378  17.633  0.00  0.00    +0.000 N 
ENDROOT
BRANCH   5   6
ATOM      6  C   UNL     1       4.462   6.149  18.219  0.00  0.00    +0.000 A 
ATOM      7  C   UNL     1       4.023   5.880  19.526  0.00  0.00    +0.000 A 
ATOM      8  C   UNL     1       2.936   6.572  20.064  0.00  0.00    +0.000 A 
ATOM      9  C   UNL     1       2.308   7.570  19.329  0.00  0.00    +0.000 A 
ATOM     10  C   UNL     1       2.771   7.884  18.057  0.00  0.00    +0.000 A 
ATOM     11  C   UNL     1       3.832   7.169  17.498  0.00  0.00    +0.000 A 
ENDBRANCH   5   6
BRANCH   1  12
ATOM     12  C   UNL     1       4.136   3.534  16.447  0.00  0.00    +0.000 C 
BRANCH  12  13
ATOM     13  O   UNL     1       3.727   2.525  17.370  0.00  0.00    +0.000 OA
BRANCH  13  21
ATOM     14  C   UNL     1       1.000   4.144  17.177  0.00  0.00    +0.000 C 
ATOM     15  C   UNL     1       1.660   3.541  18.387  0.00  0.00    +0.000 A 
ATOM     16  C   UNL     1       0.953   3.745  19.600  0.00  0.00    +0.000 A 
ATOM     17  C   UNL     1       1.427   3.277  20.815  0.00  0.00    +0.000 A 
ATOM     18  C   UNL     1       2.635   2.595  20.857  0.00  0.00    +0.000 A 
ATOM     19  C   UNL     1       3.367   2.376  19.675  0.00  0.00    +0.000 A 
ATOM     20  C   UNL     1       4.687   1.656  19.803  0.00  0.00    +0.000 C 
ATOM     21  C   UNL     1       2.883   2.839  18.419  0.00  0.00    +0.000 A 
ENDBRANCH  13  21
ENDBRANCH  12  13
ENDBRANCH   1  12
BRANCH   4  22
ATOM     22  S   UNL     1       7.678   6.852  18.584  0.00  0.00    +0.000 S 
BRANCH  22  23
ATOM     23  C   UNL     1       7.677   8.323  17.527  0.00  0.00    +0.000 C 
BRANCH  23  24
ATOM     24  C   UNL     1       8.422   9.481  18.173  0.00  0.00    +0.000 C 
ATOM     25  O   UNL     1       9.177   9.294  19.121  0.00  0.00    +0.000 OA
ATOM     26  N   UNL     1       8.104  10.697  17.600  0.00  0.00    +0.000 N 
ATOM     27  C   UNL     1       8.751  11.848  17.947  0.00  0.00    +0.000 A 
ATOM     28  N   UNL     1       9.868  12.006  18.609  0.00  0.00    +0.000 NA
ATOM     29  C   UNL     1      10.129  13.354  18.751  0.00  0.00    +0.000 A 
ATOM     30  C   UNL     1       9.189  14.201  18.202  0.00  0.00    +0.000 A 
ATOM     31  S   UNL     1       7.973  13.275  17.419  0.00  0.00    +0.000 S 
ATOM     32  H   UNL     1       7.286  10.791  17.011  0.00  0.00    +0.000 HD
ENDBRANCH  23  24
ENDBRANCH  22  23
ENDBRANCH   4  22
TORSDOF 7
ENDMDL
MODEL 2
REMARK VINA RESULT:      -7.3      3.985      6.742
REMARK  Name = 
REMARK  9 active torsions:
REMARK  status: ('A' for Active; 'I' for Inactive)
REMARK    1  A    between atoms: C_1  and  C_2
REMARK    2  A    between atoms: C_6  and  C_7
REMARK    3  A    between atoms: C_8  and  O_9
REMARK    4  A    between atoms: O_9  and  C_10
REMARK    5  A    between atoms: C_10  and  C_11
REMARK    6  A    between atoms: C_14  and  S_15
REMARK    7  A    between atoms: S_15  and  C_16
REMARK    8  A    between atoms: C_16  and  C_17
REMARK    9  A    between atoms: N_25  and  C_26
REMARK                            x       y       z     vdW  Elec       q    Type
REMARK                         _______ _______ _______ _____ _____    ______ ____
ROOT
ATOM      1  C   UNL     1       2.598   7.084  18.231  0.00  0.00    +0.000 A 
ATOM      2  N   UNL     1       3.601   7.714  17.635  0.00  0.00    +0.000 NA
ATOM      3  N   UNL     1       4.689   6.886  17.604  0.00  0.00    +0.000 NA
ATOM      4  C   UNL     1       4.335   5.746  18.148  0.00  0.00    +0.000 A 
ATOM      5  N   UNL     1       3.035   5.818  18.639  0.00  0.00    +0.000 N 
ENDROOT
BRANCH   5   6
ATOM      6  C   UNL     1       2.338   4.853  19.429  0.00  0.00    +0.000 A 
ATOM      7  C   UNL     1       2.554   4.775  20.815  0.00  0.00    +0.000 A 
ATOM      8  C   UNL     1       1.942   3.774  21.572  0.00  0.00    +0.000 A 
ATOM      9  C   UNL     1       1.072   2.873  20.968  0.00  0.00    +0.000 A 
ATOM     10  C   UNL     1       0.806   2.978  19.608  0.00  0.00    +0.000 A 
ATOM     11  C   UNL     1       1.446   3.952  18.839  0.00  0.00    +0.000 A 
ENDBRANCH   5   6
BRANCH   1  12
ATOM     12  C   UNL     1       1.339   7.772  18.680  0.00  0.00    +0.000 C 
BRANCH  12  13
ATOM     13  O   UNL     1       1.623   8.714  19.714  0.00  0.00    +0.000 OA
BRANCH  13  21
ATOM     14  C   UNL     1       2.185  11.285  17.935  0.00  0.00    +0.000 C 
ATOM     15  C   UNL     1       1.141  11.079  18.998  0.00  0.00    +0.000 A 
ATOM     16  C   UNL     1       0.311  12.207  19.229  0.00  0.00    +0.000 A 
ATOM     17  C   UNL     1      -0.688  12.201  20.188  0.00  0.00    +0.000 A 
ATOM     18  C   UNL     1      -0.883  11.064  20.960  0.00  0.00    +0.000 A 
ATOM     19  C   UNL     1      -0.078   9.927  20.763  0.00  0.00    +0.000 A 
ATOM     20  C   UNL     1      -0.327   8.740  21.661  0.00  0.00    +0.000 C 
ATOM     21  C   UNL     1       0.941   9.916  19.770  0.00  0.00    +0.000 A 
ENDBRANCH  13  21
ENDBRANCH  12  13
ENDBRANCH   1  12
BRANCH   4  22
ATOM     22  S   UNL     1       5.297   4.301  18.049  0.00  0.00    +0.000 S 
BRANCH  22  23
ATOM     23  C   UNL     1       6.980   4.951  17.895  0.00  0.00    +0.000 C 
BRANCH  23  24
ATOM     24  C   UNL     1       7.266   5.447  16.485  0.00  0.00    +0.000 C 
ATOM     25  O   UNL     1       7.738   6.562  16.293  0.00  0.00    +0.000 OA
ATOM     26  N   UNL     1       6.895   4.531  15.520  0.00  0.00    +0.000 N 
ATOM     27  C   UNL     1       7.176   4.724  14.198  0.00  0.00    +0.000 A 
ATOM     28  N   UNL     1       8.002   5.570  13.639  0.00  0.00    +0.000 NA
ATOM     29  C   UNL     1       7.942   5.430  12.267  0.00  0.00    +0.000 A 
ATOM     30  C   UNL     1       7.053   4.482  11.806  0.00  0.00    +0.000 A 
ATOM     31  S   UNL     1       6.319   3.689  13.142  0.00  0.00    +0.000 S 
ATOM     32  H   UNL     1       6.278   3.761  15.750  0.00  0.00    +0.000 HD
ENDBRANCH  23  24
ENDBRANCH  22  23
ENDBRANCH   4  22
TORSDOF 7
ENDMDL
MODEL 3
REMARK VINA RESULT:      -6.9      6.609     10.585
REMARK  Name = 
REMARK  9 active torsions:
REMARK  status: ('A' for Active; 'I' for Inactive)
REMARK    1  A    between atoms: C_1  and  C_2
REMARK    2  A    between atoms: C_6  and  C_7
REMARK    3  A    between atoms: C_8  and  O_9
REMARK    4  A    between atoms: O_9  and  C_10
REMARK    5  A    between atoms: C_10  and  C_11
REMARK    6  A    between atoms: C_14  and  S_15
REMARK    7  A    between atoms: S_15  and  C_16
REMARK    8  A    between atoms: C_16  and  C_17
REMARK    9  A    between atoms: N_25  and  C_26
REMARK                            x       y       z     vdW  Elec       q    Type
REMARK                         _______ _______ _______ _____ _____    ______ ____
ROOT
ATOM      1  C   UNL     1       0.132  12.703  20.105  0.00  0.00    +0.000 A 
ATOM      2  N   UNL     1       0.796  12.710  21.252  0.00  0.00    +0.000 NA
ATOM      3  N   UNL     1       0.613  11.509  21.881  0.00  0.00    +0.000 NA
ATOM      4  C   UNL     1      -0.131  10.764  21.099  0.00  0.00    +0.000 A 
ATOM      5  N   UNL     1      -0.540  11.480  19.978  0.00  0.00    +0.000 N 
ENDROOT
BRANCH   5   6
ATOM      6  C   UNL     1      -1.474  11.085  18.972  0.00  0.00    +0.000 A 
ATOM      7  C   UNL     1      -1.087  10.210  17.944  0.00  0.00    +0.000 A 
ATOM      8  C   UNL     1      -1.972   9.897  16.910  0.00  0.00    +0.000 A 
ATOM      9  C   UNL     1      -3.265  10.409  16.915  0.00  0.00    +0.000 A 
ATOM     10  C   UNL     1      -3.676  11.230  17.959  0.00  0.00    +0.000 A 
ATOM     11  C   UNL     1      -2.783  11.578  18.974  0.00  0.00    +0.000 A 
ENDBRANCH   5   6
BRANCH   1  12
ATOM     12  C   UNL     1      -0.112  13.937  19.282  0.00  0.00    +0.000 C 
BRANCH  12  13
ATOM     13  O   UNL     1       0.803  14.969  19.643  0.00  0.00    +0.000 OA
BRANCH  13  21
ATOM     14  C   UNL     1      -1.036  17.356  18.635  0.00  0.00    +0.000 C 
ATOM     15  C   UNL     1       0.382  17.028  18.256  0.00  0.00    +0.000 A 
ATOM     16  C   UNL     1       0.954  17.916  17.308  0.00  0.00    +0.000 A 
ATOM     17  C   UNL     1       2.243  17.752  16.830  0.00  0.00    +0.000 A 
ATOM     18  C   UNL     1       3.004  16.681  17.279  0.00  0.00    +0.000 A 
ATOM     19  C   UNL     1       2.471  15.777  18.217  0.00  0.00    +0.000 A 
ATOM     20  C   UNL     1       3.344  14.619  18.635  0.00  0.00    +0.000 C 
ATOM     21  C   UNL     1       1.153  15.945  18.727  0.00  0.00    +0.000 A 
ENDBRANCH  13  21
ENDBRANCH  12  13
ENDBRANCH   1  12
BRANCH   4  22
ATOM     22  S   UNL     1      -0.367   9.059  21.346  0.00  0.00    +0.000 S 
BRANCH  22  23
ATOM     23  C   UNL     1       1.329   8.439  21.496  0.00  0.00    +0.000 C 
BRANCH  23  24
ATOM     24  C   UNL     1       1.833   7.856  20.185  0.00  0.00    +0.000 C 
ATOM     25  O   UNL     1       1.756   8.494  19.140  0.00  0.00    +0.000 OA
ATOM     26  N   UNL     1       2.316   6.571  20.332  0.00  0.00    +0.000 N 
ATOM     27  C   UNL     1       2.929   5.909  19.306  0.00  0.00    +0.000 A 
ATOM     28  N   UNL     1       3.395   6.378  18.177  0.00  0.00    +0.000 NA
ATOM     29  C   UNL     1       3.908   5.338  17.428  0.00  0.00    +0.000 A 
ATOM     30  C   UNL     1       3.808   4.088  18.001  0.00  0.00    +0.000 A 
ATOM     31  S   UNL     1       3.110   4.230  19.565  0.00  0.00    +0.000 S 
ATOM     32  H   UNL     1       2.101   6.031  21.161  0.00  0.00    +0.000 HD
ENDBRANCH  23  24
ENDBRANCH  22  23
ENDBRANCH   4  22
TORSDOF 7
ENDMDL
MODEL 4
REMARK VINA RESULT:      -6.9      6.731     10.808
REMARK  Name = 
REMARK  9 active torsions:
REMARK  status: ('A' for Active; 'I' for Inactive)
REMARK    1  A    between atoms: C_1  and  C_2
REMARK    2  A    between atoms: C_6  and  C_7
REMARK    3  A    between atoms: C_8  and  O_9
REMARK    4  A    between atoms: O_9  and  C_10
REMARK    5  A    between atoms: C_10  and  C_11
REMARK    6  A    between atoms: C_14  and  S_15
REMARK    7  A    between atoms: S_15  and  C_16
REMARK    8  A    between atoms: C_16  and  C_17
REMARK    9  A    between atoms: N_25  and  C_26
REMARK                            x       y       z     vdW  Elec       q    Type
REMARK                         _______ _______ _______ _____ _____    ______ ____
ROOT
ATOM      1  C   UNL     1       0.649  12.671  19.652  0.00  0.00    +0.000 A 
ATOM      2  N   UNL     1       1.390  12.731  20.749  0.00  0.00    +0.000 NA
ATOM      3  N   UNL     1       1.076  11.671  21.555  0.00  0.00    +0.000 NA
ATOM      4  C   UNL     1       0.174  10.954  20.931  0.00  0.00    +0.000 A 
ATOM      5  N   UNL     1      -0.205  11.565  19.740  0.00  0.00    +0.000 N 
ENDROOT
BRANCH   5   6
ATOM      6  C   UNL     1      -1.260  11.189  18.853  0.00  0.00    +0.000 A 
ATOM      7  C   UNL     1      -2.540  11.751  18.987  0.00  0.00    +0.000 A 
ATOM      8  C   UNL     1      -3.593  11.316  18.180  0.00  0.00    +0.000 A 
ATOM      9  C   UNL     1      -3.373  10.356  17.199  0.00  0.00    +0.000 A 
ATOM     10  C   UNL     1      -2.097   9.835  17.019  0.00  0.00    +0.000 A 
ATOM     11  C   UNL     1      -1.049  10.237  17.850  0.00  0.00    +0.000 A 
ENDBRANCH   5   6
BRANCH   1  12
ATOM     12  C   UNL     1       0.531  13.804  18.670  0.00  0.00    +0.000 C 
BRANCH  12  13
ATOM     13  O   UNL     1       0.930  15.033  19.274  0.00  0.00    +0.000 OA
BRANCH  13  21
ATOM     14  C   UNL     1       3.422  15.897  17.502  0.00  0.00    +0.000 C 
ATOM     15  C   UNL     1       2.110  16.607  17.701  0.00  0.00    +0.000 A 
ATOM     16  C   UNL     1       1.997  17.834  16.998  0.00  0.00    +0.000 A 
ATOM     17  C   UNL     1       0.866  18.630  17.084  0.00  0.00    +0.000 A 
ATOM     18  C   UNL     1      -0.189  18.226  17.889  0.00  0.00    +0.000 A 
ATOM     19  C   UNL     1      -0.113  17.016  18.605  0.00  0.00    +0.000 A 
ATOM     20  C   UNL     1      -1.286  16.658  19.485  0.00  0.00    +0.000 C 
ATOM     21  C   UNL     1       1.037  16.183  18.512  0.00  0.00    +0.000 A 
ENDBRANCH  13  21
ENDBRANCH  12  13
ENDBRANCH   1  12
BRANCH   4  22
ATOM     22  S   UNL     1      -0.295   9.357  21.438  0.00  0.00    +0.000 S 
BRANCH  22  23
ATOM     23  C   UNL     1       1.298   8.522  21.649  0.00  0.00    +0.000 C 
BRANCH  23  24
ATOM     24  C   UNL     1       1.766   7.867  20.357  0.00  0.00    +0.000 C 
ATOM     25  O   UNL     1       1.715   8.470  19.291  0.00  0.00    +0.000 OA
ATOM     26  N   UNL     1       2.184   6.564  20.549  0.00  0.00    +0.000 N 
ATOM     27  C   UNL     1       2.756   5.836  19.545  0.00  0.00    +0.000 A 
ATOM     28  N   UNL     1       3.240   6.240  18.398  0.00  0.00    +0.000 NA
ATOM     29  C   UNL     1       3.696   5.149  17.685  0.00  0.00    +0.000 A 
ATOM     30  C   UNL     1       3.534   3.927  18.303  0.00  0.00    +0.000 A 
ATOM     31  S   UNL     1       2.853   4.161  19.863  0.00  0.00    +0.000 S 
ATOM     32  H   UNL     1       1.946   6.066  21.397  0.00  0.00    +0.000 HD
ENDBRANCH  23  24
ENDBRANCH  22  23
ENDBRANCH   4  22
TORSDOF 7
ENDMDL
MODEL 5
REMARK VINA RESULT:      -6.9      4.234      7.069
REMARK  Name = 
REMARK  9 active torsions:
REMARK  status: ('A' for Active; 'I' for Inactive)
REMARK    1  A    between atoms: C_1  and  C_2
REMARK    2  A    between atoms: C_6  and  C_7
REMARK    3  A    between atoms: C_8  and  O_9
REMARK    4  A    between atoms: O_9  and  C_10
REMARK    5  A    between atoms: C_10  and  C_11
REMARK    6  A    between atoms: C_14  and  S_15
REMARK    7  A    between atoms: S_15  and  C_16
REMARK    8  A    between atoms: C_16  and  C_17
REMARK    9  A    between atoms: N_25  and  C_26
REMARK                            x       y       z     vdW  Elec       q    Type
REMARK                         _______ _______ _______ _____ _____    ______ ____
ROOT
ATOM      1  C   UNL     1       2.219   7.151  19.375  0.00  0.00    +0.000 A 
ATOM      2  N   UNL     1       3.032   7.886  18.629  0.00  0.00    +0.000 NA
ATOM      3  N   UNL     1       3.973   7.071  18.062  0.00  0.00    +0.000 NA
ATOM      4  C   UNL     1       3.708   5.842  18.436  0.00  0.00    +0.000 A 
ATOM      5  N   UNL     1       2.647   5.818  19.335  0.00  0.00    +0.000 N 
ENDROOT
BRANCH   5   6
ATOM      6  C   UNL     1       2.153   4.707  20.086  0.00  0.00    +0.000 A 
ATOM      7  C   UNL     1       2.876   4.209  21.182  0.00  0.00    +0.000 A 
ATOM      8  C   UNL     1       2.441   3.068  21.859  0.00  0.00    +0.000 A 
ATOM      9  C   UNL     1       1.257   2.442  21.486  0.00  0.00    +0.000 A 
ATOM     10  C   UNL     1       0.504   2.960  20.439  0.00  0.00    +0.000 A 
ATOM     11  C   UNL     1       0.955   4.078  19.733  0.00  0.00    +0.000 A 
ENDBRANCH   5   6
BRANCH   1  12
ATOM     12  C   UNL     1       1.237   7.736  20.352  0.00  0.00    +0.000 C 
BRANCH  12  13
ATOM     13  O   UNL     1       1.536   9.108  20.602  0.00  0.00    +0.000 OA
BRANCH  13  21
ATOM     14  C   UNL     1       0.155   9.378  23.451  0.00  0.00    +0.000 C 
ATOM     15  C   UNL     1      -0.109  10.160  22.193  0.00  0.00    +0.000 A 
ATOM     16  C   UNL     1      -1.126  11.141  22.317  0.00  0.00    +0.000 A 
ATOM     17  C   UNL     1      -1.514  11.937  21.252  0.00  0.00    +0.000 A 
ATOM     18  C   UNL     1      -0.901  11.770  20.019  0.00  0.00    +0.000 A 
ATOM     19  C   UNL     1       0.110  10.804  19.855  0.00  0.00    +0.000 A 
ATOM     20  C   UNL     1       0.708  10.657  18.477  0.00  0.00    +0.000 C 
ATOM     21  C   UNL     1       0.528   9.991  20.945  0.00  0.00    +0.000 A 
ENDBRANCH  13  21
ENDBRANCH  12  13
ENDBRANCH   1  12
BRANCH   4  22
ATOM     22  S   UNL     1       4.453   4.444  17.718  0.00  0.00    +0.000 S 
BRANCH  22  23
ATOM     23  C   UNL     1       6.220   4.817  17.856  0.00  0.00    +0.000 C 
BRANCH  23  24
ATOM     24  C   UNL     1       6.788   5.345  16.546  0.00  0.00    +0.000 C 
ATOM     25  O   UNL     1       7.360   6.428  16.499  0.00  0.00    +0.000 OA
ATOM     26  N   UNL     1       6.538   4.497  15.485  0.00  0.00    +0.000 N 
ATOM     27  C   UNL     1       7.066   4.720  14.245  0.00  0.00    +0.000 A 
ATOM     28  N   UNL     1       8.034   5.524  13.887  0.00  0.00    +0.000 NA
ATOM     29  C   UNL     1       8.214   5.442  12.521  0.00  0.00    +0.000 A 
ATOM     30  C   UNL     1       7.362   4.581  11.861  0.00  0.00    +0.000 A 
ATOM     31  S   UNL     1       6.348   3.793  13.002  0.00  0.00    +0.000 S 
ATOM     32  H   UNL     1       5.841   3.767  15.562  0.00  0.00    +0.000 HD
ENDBRANCH  23  24
ENDBRANCH  22  23
ENDBRANCH   4  22
TORSDOF 7
ENDMDL
MODEL 6
REMARK VINA RESULT:      -6.9      4.400      7.094
REMARK  Name = 
REMARK  9 active torsions:
REMARK  status: ('A' for Active; 'I' for Inactive)
REMARK    1  A    between atoms: C_1  and  C_2
REMARK    2  A    between atoms: C_6  and  C_7
REMARK    3  A    between atoms: C_8  and  O_9
REMARK    4  A    between atoms: O_9  and  C_10
REMARK    5  A    between atoms: C_10  and  C_11
REMARK    6  A    between atoms: C_14  and  S_15
REMARK    7  A    between atoms: S_15  and  C_16
REMARK    8  A    between atoms: C_16  and  C_17
REMARK    9  A    between atoms: N_25  and  C_26
REMARK                            x       y       z     vdW  Elec       q    Type
REMARK                         _______ _______ _______ _____ _____    ______ ____
ROOT
ATOM      1  C   UNL     1       3.701   7.332  17.099  0.00  0.00    +0.000 A 
ATOM      2  N   UNL     1       3.239   8.573  17.156  0.00  0.00    +0.000 NA
ATOM      3  N   UNL     1       2.375   8.677  18.212  0.00  0.00    +0.000 NA
ATOM      4  C   UNL     1       2.343   7.511  18.812  0.00  0.00    +0.000 A 
ATOM      5  N   UNL     1       3.107   6.578  18.119  0.00  0.00    +0.000 N 
ENDROOT
BRANCH   5   6
ATOM      6  C   UNL     1       3.209   5.173  18.354  0.00  0.00    +0.000 A 
ATOM      7  C   UNL     1       4.073   4.676  19.344  0.00  0.00    +0.000 A 
ATOM      8  C   UNL     1       4.241   3.300  19.511  0.00  0.00    +0.000 A 
ATOM      9  C   UNL     1       3.516   2.406  18.731  0.00  0.00    +0.000 A 
ATOM     10  C   UNL     1       2.616   2.887  17.788  0.00  0.00    +0.000 A 
ATOM     11  C   UNL     1       2.473   4.262  17.589  0.00  0.00    +0.000 A 
ENDBRANCH   5   6
BRANCH   1  12
ATOM     12  C   UNL     1       4.459   6.785  15.921  0.00  0.00    +0.000 C 
BRANCH  12  13
ATOM     13  O   UNL     1       5.853   7.063  16.049  0.00  0.00    +0.000 OA
BRANCH  13  21
ATOM     14  C   UNL     1       6.024   3.901  16.305  0.00  0.00    +0.000 C 
ATOM     15  C   UNL     1       6.748   4.955  17.097  0.00  0.00    +0.000 A 
ATOM     16  C   UNL     1       7.614   4.443  18.097  0.00  0.00    +0.000 A 
ATOM     17  C   UNL     1       8.344   5.272  18.933  0.00  0.00    +0.000 A 
ATOM     18  C   UNL     1       8.220   6.648  18.803  0.00  0.00    +0.000 A 
ATOM     19  C   UNL     1       7.369   7.194  17.825  0.00  0.00    +0.000 A 
ATOM     20  C   UNL     1       7.261   8.699  17.763  0.00  0.00    +0.000 C 
ATOM     21  C   UNL     1       6.626   6.353  16.949  0.00  0.00    +0.000 A 
ENDBRANCH  13  21
ENDBRANCH  12  13
ENDBRANCH   1  12
BRANCH   4  22
ATOM     22  S   UNL     1       1.620   7.261  20.374  0.00  0.00    +0.000 S 
BRANCH  22  23
ATOM     23  C   UNL     1       1.740   8.900  21.136  0.00  0.00    +0.000 C 
BRANCH  23  24
ATOM     24  C   UNL     1       0.446   9.687  20.985  0.00  0.00    +0.000 C 
ATOM     25  O   UNL     1      -0.155  10.105  21.969  0.00  0.00    +0.000 OA
ATOM     26  N   UNL     1       0.056   9.809  19.666  0.00  0.00    +0.000 N 
ATOM     27  C   UNL     1      -1.010  10.581  19.299  0.00  0.00    +0.000 A 
ATOM     28  N   UNL     1      -1.652  11.491  19.985  0.00  0.00    +0.000 NA
ATOM     29  C   UNL     1      -2.683  11.999  19.220  0.00  0.00    +0.000 A 
ATOM     30  C   UNL     1      -2.813  11.448  17.962  0.00  0.00    +0.000 A 
ATOM     31  S   UNL     1      -1.556  10.307  17.703  0.00  0.00    +0.000 S 
ATOM     32  H   UNL     1       0.460   9.217  18.952  0.00  0.00    +0.000 HD
ENDBRANCH  23  24
ENDBRANCH  22  23
ENDBRANCH   4  22
TORSDOF 7
ENDMDL
MODEL 7
REMARK VINA RESULT:      -6.8      4.141      6.846
REMARK  Name = 
REMARK  9 active torsions:
REMARK  status: ('A' for Active; 'I' for Inactive)
REMARK    1  A    between atoms: C_1  and  C_2
REMARK    2  A    between atoms: C_6  and  C_7
REMARK    3  A    between atoms: C_8  and  O_9
REMARK    4  A    between atoms: O_9  and  C_10
REMARK    5  A    between atoms: C_10  and  C_11
REMARK    6  A    between atoms: C_14  and  S_15
REMARK    7  A    between atoms: S_15  and  C_16
REMARK    8  A    between atoms: C_16  and  C_17
REMARK    9  A    between atoms: N_25  and  C_26
REMARK                            x       y       z     vdW  Elec       q    Type
REMARK                         _______ _______ _______ _____ _____    ______ ____
ROOT
ATOM      1  C   UNL     1       2.426   6.842  19.087  0.00  0.00    +0.000 A 
ATOM      2  N   UNL     1       3.299   7.580  18.417  0.00  0.00    +0.000 NA
ATOM      3  N   UNL     1       4.351   6.792  18.038  0.00  0.00    +0.000 NA
ATOM      4  C   UNL     1       4.097   5.572  18.448  0.00  0.00    +0.000 A 
ATOM      5  N   UNL     1       2.921   5.535  19.189  0.00  0.00    +0.000 N 
ENDROOT
BRANCH   5   6
ATOM      6  C   UNL     1       2.381   4.441  19.933  0.00  0.00    +0.000 A 
ATOM      7  C   UNL     1       1.527   3.512  19.316  0.00  0.00    +0.000 A 
ATOM      8  C   UNL     1       0.927   2.496  20.063  0.00  0.00    +0.000 A 
ATOM      9  C   UNL     1       1.209   2.364  21.418  0.00  0.00    +0.000 A 
ATOM     10  C   UNL     1       2.099   3.242  22.025  0.00  0.00    +0.000 A 
ATOM     11  C   UNL     1       2.671   4.284  21.292  0.00  0.00    +0.000 A 
ENDBRANCH   5   6
BRANCH   1  12
ATOM     12  C   UNL     1       1.287   7.421  19.880  0.00  0.00    +0.000 C 
BRANCH  12  13
ATOM     13  O   UNL     1       1.699   8.610  20.552  0.00  0.00    +0.000 OA
BRANCH  13  21
ATOM     14  C   UNL     1       1.587  10.469  17.977  0.00  0.00    +0.000 C 
ATOM     15  C   UNL     1       0.876  10.630  19.293  0.00  0.00    +0.000 A 
ATOM     16  C   UNL     1       0.056  11.785  19.377  0.00  0.00    +0.000 A 
ATOM     17  C   UNL     1      -0.654  12.102  20.524  0.00  0.00    +0.000 A 
ATOM     18  C   UNL     1      -0.557  11.275  21.634  0.00  0.00    +0.000 A 
ATOM     19  C   UNL     1       0.249  10.122  21.591  0.00  0.00    +0.000 A 
ATOM     20  C   UNL     1       0.331   9.289  22.846  0.00  0.00    +0.000 C 
ATOM     21  C   UNL     1       0.971   9.778  20.414  0.00  0.00    +0.000 A 
ENDBRANCH  13  21
ENDBRANCH  12  13
ENDBRANCH   1  12
BRANCH   4  22
ATOM     22  S   UNL     1       5.005   4.182  17.928  0.00  0.00    +0.000 S 
BRANCH  22  23
ATOM     23  C   UNL     1       6.707   4.800  17.913  0.00  0.00    +0.000 C 
BRANCH  23  24
ATOM     24  C   UNL     1       7.098   5.342  16.546  0.00  0.00    +0.000 C 
ATOM     25  O   UNL     1       7.626   6.443  16.432  0.00  0.00    +0.000 OA
ATOM     26  N   UNL     1       6.749   4.485  15.521  0.00  0.00    +0.000 N 
ATOM     27  C   UNL     1       7.117   4.722  14.227  0.00  0.00    +0.000 A 
ATOM     28  N   UNL     1       8.009   5.555  13.757  0.00  0.00    +0.000 NA
ATOM     29  C   UNL     1       8.027   5.475  12.378  0.00  0.00    +0.000 A 
ATOM     30  C   UNL     1       7.129   4.587  11.824  0.00  0.00    +0.000 A 
ATOM     31  S   UNL     1       6.284   3.771  13.077  0.00  0.00    +0.000 S 
ATOM     32  H   UNL     1       6.089   3.734  15.679  0.00  0.00    +0.000 HD
ENDBRANCH  23  24
ENDBRANCH  22  23
ENDBRANCH   4  22
TORSDOF 7
ENDMDL
MODEL 8
REMARK VINA RESULT:      -6.7      4.119      6.766
REMARK  Name = 
REMARK  9 active torsions:
REMARK  status: ('A' for Active; 'I' for Inactive)
REMARK    1  A    between atoms: C_1  and  C_2
REMARK    2  A    between atoms: C_6  and  C_7
REMARK    3  A    between atoms: C_8  and  O_9
REMARK    4  A    between atoms: O_9  and  C_10
REMARK    5  A    between atoms: C_10  and  C_11
REMARK    6  A    between atoms: C_14  and  S_15
REMARK    7  A    between atoms: S_15  and  C_16
REMARK    8  A    between atoms: C_16  and  C_17
REMARK    9  A    between atoms: N_25  and  C_26
REMARK                            x       y       z     vdW  Elec       q    Type
REMARK                         _______ _______ _______ _____ _____    ______ ____
ROOT
ATOM      1  C   UNL     1       3.859   6.921  17.084  0.00  0.00    +0.000 A 
ATOM      2  N   UNL     1       3.449   8.174  17.217  0.00  0.00    +0.000 NA
ATOM      3  N   UNL     1       2.585   8.251  18.274  0.00  0.00    +0.000 NA
ATOM      4  C   UNL     1       2.500   7.053  18.802  0.00  0.00    +0.000 A 
ATOM      5  N   UNL     1       3.228   6.132  18.055  0.00  0.00    +0.000 N 
ENDROOT
BRANCH   5   6
ATOM      6  C   UNL     1       3.268   4.712  18.204  0.00  0.00    +0.000 A 
ATOM      7  C   UNL     1       4.110   4.118  19.159  0.00  0.00    +0.000 A 
ATOM      8  C   UNL     1       4.219   2.729  19.242  0.00  0.00    +0.000 A 
ATOM      9  C   UNL     1       3.455   1.916  18.412  0.00  0.00    +0.000 A 
ATOM     10  C   UNL     1       2.576   2.493  17.502  0.00  0.00    +0.000 A 
ATOM     11  C   UNL     1       2.493   3.882  17.388  0.00  0.00    +0.000 A 
ENDBRANCH   5   6
BRANCH   1  12
ATOM     12  C   UNL     1       4.598   6.415  15.877  0.00  0.00    +0.000 C 
BRANCH  12  13
ATOM     13  O   UNL     1       5.960   6.838  15.911  0.00  0.00    +0.000 OA
BRANCH  13  21
ATOM     14  C   UNL     1       7.521   8.831  17.831  0.00  0.00    +0.000 C 
ATOM     15  C   UNL     1       7.478   7.328  17.859  0.00  0.00    +0.000 A 
ATOM     16  C   UNL     1       8.259   6.740  18.889  0.00  0.00    +0.000 A 
ATOM     17  C   UNL     1       8.352   5.367  19.048  0.00  0.00    +0.000 A 
ATOM     18  C   UNL     1       7.673   4.533  18.171  0.00  0.00    +0.000 A 
ATOM     19  C   UNL     1       6.892   5.078  17.136  0.00  0.00    +0.000 A 
ATOM     20  C   UNL     1       6.208   4.109  16.202  0.00  0.00    +0.000 C 
ATOM     21  C   UNL     1       6.775   6.487  16.971  0.00  0.00    +0.000 A 
ENDBRANCH  13  21
ENDBRANCH  12  13
ENDBRANCH   1  12
BRANCH   4  22
ATOM     22  S   UNL     1       1.760   6.739  20.345  0.00  0.00    +0.000 S 
BRANCH  22  23
ATOM     23  C   UNL     1       1.867   8.346  21.173  0.00  0.00    +0.000 C 
BRANCH  23  24
ATOM     24  C   UNL     1       0.627   9.192  20.924  0.00  0.00    +0.000 C 
ATOM     25  O   UNL     1      -0.480   8.810  21.289  0.00  0.00    +0.000 OA
ATOM     26  N   UNL     1       0.912  10.353  20.232  0.00  0.00    +0.000 N 
ATOM     27  C   UNL     1      -0.036  11.311  20.012  0.00  0.00    +0.000 A 
ATOM     28  N   UNL     1      -1.207  11.466  20.575  0.00  0.00    +0.000 NA
ATOM     29  C   UNL     1      -1.839  12.561  20.021  0.00  0.00    +0.000 A 
ATOM     30  C   UNL     1      -1.136  13.213  19.030  0.00  0.00    +0.000 A 
ATOM     31  S   UNL     1       0.401  12.470  18.835  0.00  0.00    +0.000 S 
ATOM     32  H   UNL     1       1.793  10.460  19.745  0.00  0.00    +0.000 HD
ENDBRANCH  23  24
ENDBRANCH  22  23
ENDBRANCH   4  22
TORSDOF 7
ENDMDL
MODEL 9
REMARK VINA RESULT:      -6.6      4.077      6.111
REMARK  Name = 
REMARK  9 active torsions:
REMARK  status: ('A' for Active; 'I' for Inactive)
REMARK    1  A    between atoms: C_1  and  C_2
REMARK    2  A    between atoms: C_6  and  C_7
REMARK    3  A    between atoms: C_8  and  O_9
REMARK    4  A    between atoms: O_9  and  C_10
REMARK    5  A    between atoms: C_10  and  C_11
REMARK    6  A    between atoms: C_14  and  S_15
REMARK    7  A    between atoms: S_15  and  C_16
REMARK    8  A    between atoms: C_16  and  C_17
REMARK    9  A    between atoms: N_25  and  C_26
REMARK                            x       y       z     vdW  Elec       q    Type
REMARK                         _______ _______ _______ _____ _____    ______ ____
ROOT
ATOM      1  C   UNL     1       3.667   7.361  17.186  0.00  0.00    +0.000 A 
ATOM      2  N   UNL     1       3.379   8.655  17.154  0.00  0.00    +0.000 NA
ATOM      3  N   UNL     1       2.555   8.953  18.203  0.00  0.00    +0.000 NA
ATOM      4  C   UNL     1       2.373   7.850  18.889  0.00  0.00    +0.000 A 
ATOM      5  N   UNL     1       2.991   6.773  18.263  0.00  0.00    +0.000 N 
ENDROOT
BRANCH   5   6
ATOM      6  C   UNL     1       2.904   5.388  18.602  0.00  0.00    +0.000 A 
ATOM      7  C   UNL     1       3.792   4.823  19.532  0.00  0.00    +0.000 A 
ATOM      8  C   UNL     1       3.767   3.452  19.794  0.00  0.00    +0.000 A 
ATOM      9  C   UNL     1       2.825   2.638  19.173  0.00  0.00    +0.000 A 
ATOM     10  C   UNL     1       1.904   3.196  18.295  0.00  0.00    +0.000 A 
ATOM     11  C   UNL     1       1.951   4.560  17.999  0.00  0.00    +0.000 A 
ENDBRANCH   5   6
BRANCH   1  12
ATOM     12  C   UNL     1       4.323   6.630  16.048  0.00  0.00    +0.000 C 
BRANCH  12  13
ATOM     13  O   UNL     1       5.714   6.941  15.989  0.00  0.00    +0.000 OA
BRANCH  13  21
ATOM     14  C   UNL     1       7.590   8.851  17.700  0.00  0.00    +0.000 C 
ATOM     15  C   UNL     1       7.400   7.363  17.811  0.00  0.00    +0.000 A 
ATOM     16  C   UNL     1       8.186   6.748  18.821  0.00  0.00    +0.000 A 
ATOM     17  C   UNL     1       8.153   5.382  19.047  0.00  0.00    +0.000 A 
ATOM     18  C   UNL     1       7.337   4.581  18.260  0.00  0.00    +0.000 A 
ATOM     19  C   UNL     1       6.546   5.154  17.247  0.00  0.00    +0.000 A 
ATOM     20  C   UNL     1       5.709   4.218  16.410  0.00  0.00    +0.000 C 
ATOM     21  C   UNL     1       6.559   6.558  17.015  0.00  0.00    +0.000 A 
ENDBRANCH  13  21
ENDBRANCH  12  13
ENDBRANCH   1  12
BRANCH   4  22
ATOM     22  S   UNL     1       1.649   7.817  20.470  0.00  0.00    +0.000 S 
BRANCH  22  23
ATOM     23  C   UNL     1       0.334   9.055  20.333  0.00  0.00    +0.000 C 
BRANCH  23  24
ATOM     24  C   UNL     1       0.781  10.412  20.855  0.00  0.00    +0.000 C 
ATOM     25  O   UNL     1       0.860  10.629  22.059  0.00  0.00    +0.000 OA
ATOM     26  N   UNL     1       1.023  11.314  19.837  0.00  0.00    +0.000 N 
ATOM     27  C   UNL     1       1.550  12.550  20.079  0.00  0.00    +0.000 A 
ATOM     28  N   UNL     1       2.138  13.006  21.156  0.00  0.00    +0.000 NA
ATOM     29  C   UNL     1       2.490  14.326  20.960  0.00  0.00    +0.000 A 
ATOM     30  C   UNL     1       2.146  14.856  19.734  0.00  0.00    +0.000 A 
ATOM     31  S   UNL     1       1.421  13.636  18.766  0.00  0.00    +0.000 S 
ATOM     32  H   UNL     1       0.682  11.137  18.900  0.00  0.00    +0.000 HD
ENDBRANCH  23  24
ENDBRANCH  22  23
ENDBRANCH   4  22
TORSDOF 7
ENDMDL
