MODEL 1
REMARK VINA RESULT:      -5.5      0.000      0.000
REMARK  Name = 
REMARK  18 active torsions:
REMARK  status: ('A' for Active; 'I' for Inactive)
REMARK    1  A    between atoms: C_1  and  C_2
REMARK    2  A    between atoms: C_3  and  C_4
REMARK    3  A    between atoms: C_3  and  C_5
REMARK    4  A    between atoms: C_5  and  O_7
REMARK    5  A    between atoms: O_7  and  C_8
REMARK    6  A    between atoms: C_9  and  O_10
REMARK    7  A    between atoms: O_10  and  C_11
REMARK    8  A    between atoms: C_11  and  C_13
REMARK    9  A    between atoms: C_13  and  C_14
REMARK   10  A    between atoms: C_15  and  C_16
REMARK   11  A    between atoms: C_17  and  O_18
REMARK   12  A    between atoms: C_19  and  O_20
REMARK   13  A    between atoms: O_20  and  C_21
REMARK   14  A    between atoms: C_21  and  C_23
REMARK   15  A    between atoms: C_23  and  C_24
REMARK   16  A    between atoms: C_25  and  C_26
REMARK   17  A    between atoms: C_27  and  O_28
REMARK   18  A    between atoms: C_29  and  O_30
REMARK                            x       y       z     vdW  Elec       q    Type
REMARK                         _______ _______ _______ _____ _____    ______ ____
ROOT
ATOM      1  C   UNL     1      -6.519  13.224  22.235  0.00  0.00    +0.000 C 
ATOM      2  C   UNL     1      -5.017  13.514  21.986  0.00  0.00    +0.000 C 
ATOM      3  C   UNL     1      -4.792  14.113  20.569  0.00  0.00    +0.000 C 
ATOM      4  C   UNL     1      -5.392  13.232  19.450  0.00  0.00    +0.000 C 
ATOM      5  C   UNL     1      -6.881  12.945  19.727  0.00  0.00    +0.000 C 
ATOM      6  C   UNL     1      -7.111  12.340  21.122  0.00  0.00    +0.000 C 
ENDROOT
BRANCH   3   7
ATOM      7  O   UNL     1      -5.295  15.450  20.481  0.00  0.00    +0.000 OA
ATOM      8  H   UNL     1      -6.266  15.438  20.512  0.00  0.00    +0.000 HD
ENDBRANCH   3   7
BRANCH   5   9
ATOM      9  O   UNL     1      -7.402  12.058  18.732  0.00  0.00    +0.000 OA
ATOM     10  H   UNL     1      -8.133  11.570  19.162  0.00  0.00    +0.000 HD
ENDBRANCH   5   9
BRANCH   6  11
ATOM     11  O   UNL     1      -6.589  11.002  21.156  0.00  0.00    +0.000 OA
ATOM     12  H   UNL     1      -6.429  10.714  20.236  0.00  0.00    +0.000 HD
ENDBRANCH   6  11
BRANCH   1  13
ATOM     13  O   UNL     1      -7.257  14.478  22.267  0.00  0.00    +0.000 OA
BRANCH  13  14
ATOM     14  C   UNL     1      -7.388  15.041  23.504  0.00  0.00    +0.000 C 
ATOM     15  O   UNL     1      -7.747  14.436  24.500  0.00  0.00    +0.000 OA
BRANCH  14  18
ATOM     16  C   UNL     1      -4.705  15.961  24.556  0.00  0.00    +0.000 C 
ATOM     17  C   UNL     1      -5.764  16.849  23.969  0.00  0.00    +0.000 C 
ATOM     18  C   UNL     1      -6.963  16.473  23.482  0.00  0.00    +0.000 C 
ATOM     19  C   UNL     1      -7.916  17.489  22.919  0.00  0.00    +0.000 C 
ENDBRANCH  14  18
ENDBRANCH  13  14
ENDBRANCH   1  13
BRANCH   2  20
ATOM     20  O   UNL     1      -4.161  12.355  22.107  0.00  0.00    +0.000 OA
BRANCH  20  21
ATOM     21  C   UNL     1      -3.518  12.226  23.296  0.00  0.00    +0.000 C 
ATOM     22  O   UNL     1      -4.067  12.222  24.384  0.00  0.00    +0.000 OA
BRANCH  21  23
ATOM     23  C   UNL     1      -2.044  12.207  23.084  0.00  0.00    +0.000 C 
ATOM     24  C   UNL     1      -1.350  10.872  23.018  0.00  0.00    +0.000 C 
ATOM     25  C   UNL     1      -1.334  13.325  22.827  0.00  0.00    +0.000 C 
ATOM     26  C   UNL     1      -1.782  14.751  22.796  0.00  0.00    +0.000 C 
ENDBRANCH  21  23
ENDBRANCH  20  21
ENDBRANCH   2  20
BRANCH   4  27
ATOM     27  O   UNL     1      -4.674  11.975  19.371  0.00  0.00    +0.000 OA
BRANCH  27  28
ATOM     28  C   UNL     1      -4.166  11.675  18.143  0.00  0.00    +0.000 C 
ATOM     29  O   UNL     1      -4.799  11.720  17.103  0.00  0.00    +0.000 OA
BRANCH  28  30
ATOM     30  C   UNL     1      -2.719  11.329  18.243  0.00  0.00    +0.000 C 
ATOM     31  C   UNL     1      -1.909  11.921  19.366  0.00  0.00    +0.000 C 
ATOM     32  C   UNL     1      -2.131  10.480  17.376  0.00  0.00    +0.000 C 
ATOM     33  C   UNL     1      -2.715   9.770  16.193  0.00  0.00    +0.000 C 
ENDBRANCH  28  30
ENDBRANCH  27  28
ENDBRANCH   4  27
TORSDOF 12
ENDMDL
MODEL 2
REMARK VINA RESULT:      -5.4      4.761      7.907
REMARK  Name = 
REMARK  18 active torsions:
REMARK  status: ('A' for Active; 'I' for Inactive)
REMARK    1  A    between atoms: C_1  and  C_2
REMARK    2  A    between atoms: C_3  and  C_4
REMARK    3  A    between atoms: C_3  and  C_5
REMARK    4  A    between atoms: C_5  and  O_7
REMARK    5  A    between atoms: O_7  and  C_8
REMARK    6  A    between atoms: C_9  and  O_10
REMARK    7  A    between atoms: O_10  and  C_11
REMARK    8  A    between atoms: C_11  and  C_13
REMARK    9  A    between atoms: C_13  and  C_14
REMARK   10  A    between atoms: C_15  and  C_16
REMARK   11  A    between atoms: C_17  and  O_18
REMARK   12  A    between atoms: C_19  and  O_20
REMARK   13  A    between atoms: O_20  and  C_21
REMARK   14  A    between atoms: C_21  and  C_23
REMARK   15  A    between atoms: C_23  and  C_24
REMARK   16  A    between atoms: C_25  and  C_26
REMARK   17  A    between atoms: C_27  and  O_28
REMARK   18  A    between atoms: C_29  and  O_30
REMARK                            x       y       z     vdW  Elec       q    Type
REMARK                         _______ _______ _______ _____ _____    ______ ____
ROOT
ATOM      1  C   UNL     1       1.088  12.885  20.713  0.00  0.00    +0.000 C 
ATOM      2  C   UNL     1      -0.266  13.500  20.276  0.00  0.00    +0.000 C 
ATOM      3  C   UNL     1      -0.142  14.201  18.894  0.00  0.00    +0.000 C 
ATOM      4  C   UNL     1       0.995  15.249  18.861  0.00  0.00    +0.000 C 
ATOM      5  C   UNL     1       2.326  14.618  19.313  0.00  0.00    +0.000 C 
ATOM      6  C   UNL     1       2.215  13.933  20.685  0.00  0.00    +0.000 C 
ENDROOT
BRANCH   3   7
ATOM      7  O   UNL     1       0.021  13.250  17.839  0.00  0.00    +0.000 OA
ATOM      8  H   UNL     1      -0.570  12.492  17.985  0.00  0.00    +0.000 HD
ENDBRANCH   3   7
BRANCH   5   9
ATOM      9  O   UNL     1       3.350  15.617  19.361  0.00  0.00    +0.000 OA
ATOM     10  H   UNL     1       3.403  15.904  20.295  0.00  0.00    +0.000 HD
ENDBRANCH   5   9
BRANCH   6  11
ATOM     11  O   UNL     1       2.053  14.931  21.706  0.00  0.00    +0.000 OA
ATOM     12  H   UNL     1       2.939  15.167  22.044  0.00  0.00    +0.000 HD
ENDBRANCH   6  11
BRANCH   1  13
ATOM     13  O   UNL     1       1.444  11.803  19.805  0.00  0.00    +0.000 OA
BRANCH  13  14
ATOM     14  C   UNL     1       0.890  10.592  20.104  0.00  0.00    +0.000 C 
ATOM     15  O   UNL     1       0.957  10.055  21.197  0.00  0.00    +0.000 OA
BRANCH  14  18
ATOM     16  C   UNL     1       2.222   9.025  17.885  0.00  0.00    +0.000 C 
ATOM     17  C   UNL     1       0.763   9.367  17.958  0.00  0.00    +0.000 C 
ATOM     18  C   UNL     1       0.134  10.052  18.934  0.00  0.00    +0.000 C 
ATOM     19  C   UNL     1      -1.344  10.309  18.863  0.00  0.00    +0.000 C 
ENDBRANCH  14  18
ENDBRANCH  13  14
ENDBRANCH   1  13
BRANCH   2  20
ATOM     20  O   UNL     1      -0.804  14.468  21.206  0.00  0.00    +0.000 OA
BRANCH  20  21
ATOM     21  C   UNL     1      -1.050  14.002  22.458  0.00  0.00    +0.000 C 
ATOM     22  O   UNL     1      -0.457  14.361  23.459  0.00  0.00    +0.000 OA
BRANCH  21  23
ATOM     23  C   UNL     1      -2.064  12.912  22.410  0.00  0.00    +0.000 C 
ATOM     24  C   UNL     1      -1.672  11.551  22.924  0.00  0.00    +0.000 C 
ATOM     25  C   UNL     1      -3.344  13.127  22.043  0.00  0.00    +0.000 C 
ATOM     26  C   UNL     1      -3.991  14.376  21.535  0.00  0.00    +0.000 C 
ENDBRANCH  21  23
ENDBRANCH  20  21
ENDBRANCH   2  20
BRANCH   4  27
ATOM     27  O   UNL     1       0.673  16.357  19.740  0.00  0.00    +0.000 OA
BRANCH  27  28
ATOM     28  C   UNL     1       0.743  17.590  19.168  0.00  0.00    +0.000 C 
ATOM     29  O   UNL     1       1.703  18.336  19.249  0.00  0.00    +0.000 OA
BRANCH  28  30
ATOM     30  C   UNL     1      -0.495  17.880  18.390  0.00  0.00    +0.000 C 
ATOM     31  C   UNL     1      -1.829  17.752  19.078  0.00  0.00    +0.000 C 
ATOM     32  C   UNL     1      -0.448  18.283  17.104  0.00  0.00    +0.000 C 
ATOM     33  C   UNL     1       0.740  18.484  16.212  0.00  0.00    +0.000 C 
ENDBRANCH  28  30
ENDBRANCH  27  28
ENDBRANCH   4  27
TORSDOF 12
ENDMDL
MODEL 3
REMARK VINA RESULT:      -5.3      1.971      7.074
REMARK  Name = 
REMARK  18 active torsions:
REMARK  status: ('A' for Active; 'I' for Inactive)
REMARK    1  A    between atoms: C_1  and  C_2
REMARK    2  A    between atoms: C_3  and  C_4
REMARK    3  A    between atoms: C_3  and  C_5
REMARK    4  A    between atoms: C_5  and  O_7
REMARK    5  A    between atoms: O_7  and  C_8
REMARK    6  A    between atoms: C_9  and  O_10
REMARK    7  A    between atoms: O_10  and  C_11
REMARK    8  A    between atoms: C_11  and  C_13
REMARK    9  A    between atoms: C_13  and  C_14
REMARK   10  A    between atoms: C_15  and  C_16
REMARK   11  A    between atoms: C_17  and  O_18
REMARK   12  A    between atoms: C_19  and  O_20
REMARK   13  A    between atoms: O_20  and  C_21
REMARK   14  A    between atoms: C_21  and  C_23
REMARK   15  A    between atoms: C_23  and  C_24
REMARK   16  A    between atoms: C_25  and  C_26
REMARK   17  A    between atoms: C_27  and  O_28
REMARK   18  A    between atoms: C_29  and  O_30
REMARK                            x       y       z     vdW  Elec       q    Type
REMARK                         _______ _______ _______ _____ _____    ______ ____
ROOT
ATOM      1  C   UNL     1      -2.133  12.236  21.049  0.00  0.00    +0.000 C 
ATOM      2  C   UNL     1      -3.343  13.002  20.459  0.00  0.00    +0.000 C 
ATOM      3  C   UNL     1      -3.278  14.513  20.820  0.00  0.00    +0.000 C 
ATOM      4  C   UNL     1      -3.141  14.754  22.341  0.00  0.00    +0.000 C 
ATOM      5  C   UNL     1      -1.940  13.970  22.906  0.00  0.00    +0.000 C 
ATOM      6  C   UNL     1      -2.004  12.473  22.565  0.00  0.00    +0.000 C 
ENDROOT
BRANCH   3   7
ATOM      7  O   UNL     1      -2.227  15.175  20.109  0.00  0.00    +0.000 OA
ATOM      8  H   UNL     1      -2.450  15.224  19.164  0.00  0.00    +0.000 HD
ENDBRANCH   3   7
BRANCH   5   9
ATOM      9  O   UNL     1      -1.876  14.132  24.328  0.00  0.00    +0.000 OA
ATOM     10  H   UNL     1      -2.770  13.919  24.663  0.00  0.00    +0.000 HD
ENDBRANCH   5   9
BRANCH   6  11
ATOM     11  O   UNL     1      -3.072  11.858  23.303  0.00  0.00    +0.000 OA
ATOM     12  H   UNL     1      -3.821  11.715  22.692  0.00  0.00    +0.000 HD
ENDBRANCH   6  11
BRANCH   1  13
ATOM     13  O   UNL     1      -0.908  12.694  20.407  0.00  0.00    +0.000 OA
BRANCH  13  14
ATOM     14  C   UNL     1      -0.758  12.307  19.106  0.00  0.00    +0.000 C 
ATOM     15  O   UNL     1      -0.812  13.064  18.152  0.00  0.00    +0.000 OA
BRANCH  14  18
ATOM     16  C   UNL     1      -2.378  10.392  17.415  0.00  0.00    +0.000 C 
ATOM     17  C   UNL     1      -1.197  10.022  18.265  0.00  0.00    +0.000 C 
ATOM     18  C   UNL     1      -0.446  10.848  19.021  0.00  0.00    +0.000 C 
ATOM     19  C   UNL     1       0.715  10.321  19.814  0.00  0.00    +0.000 C 
ENDBRANCH  14  18
ENDBRANCH  13  14
ENDBRANCH   1  13
BRANCH   2  20
ATOM     20  O   UNL     1      -4.629  12.507  20.898  0.00  0.00    +0.000 OA
BRANCH  20  21
ATOM     21  C   UNL     1      -5.522  12.243  19.909  0.00  0.00    +0.000 C 
ATOM     22  O   UNL     1      -5.238  11.736  18.838  0.00  0.00    +0.000 OA
BRANCH  21  23
ATOM     23  C   UNL     1      -6.867  12.765  20.277  0.00  0.00    +0.000 C 
ATOM     24  C   UNL     1      -7.147  14.229  20.060  0.00  0.00    +0.000 C 
ATOM     25  C   UNL     1      -7.873  11.960  20.678  0.00  0.00    +0.000 C 
ATOM     26  C   UNL     1      -7.868  10.487  20.934  0.00  0.00    +0.000 C 
ENDBRANCH  21  23
ENDBRANCH  20  21
ENDBRANCH   2  20
BRANCH   4  27
ATOM     27  O   UNL     1      -4.348  14.327  23.021  0.00  0.00    +0.000 OA
BRANCH  27  28
ATOM     28  C   UNL     1      -4.928  15.267  23.816  0.00  0.00    +0.000 C 
ATOM     29  O   UNL     1      -4.334  15.932  24.646  0.00  0.00    +0.000 OA
BRANCH  28  30
ATOM     30  C   UNL     1      -6.378  15.403  23.499  0.00  0.00    +0.000 C 
ATOM     31  C   UNL     1      -6.879  16.710  22.943  0.00  0.00    +0.000 C 
ATOM     32  C   UNL     1      -7.241  14.379  23.668  0.00  0.00    +0.000 C 
ATOM     33  C   UNL     1      -6.990  13.000  24.196  0.00  0.00    +0.000 C 
ENDBRANCH  28  30
ENDBRANCH  27  28
ENDBRANCH   4  27
TORSDOF 12
ENDMDL
MODEL 4
REMARK VINA RESULT:      -5.3      4.758      8.323
REMARK  Name = 
REMARK  18 active torsions:
REMARK  status: ('A' for Active; 'I' for Inactive)
REMARK    1  A    between atoms: C_1  and  C_2
REMARK    2  A    between atoms: C_3  and  C_4
REMARK    3  A    between atoms: C_3  and  C_5
REMARK    4  A    between atoms: C_5  and  O_7
REMARK    5  A    between atoms: O_7  and  C_8
REMARK    6  A    between atoms: C_9  and  O_10
REMARK    7  A    between atoms: O_10  and  C_11
REMARK    8  A    between atoms: C_11  and  C_13
REMARK    9  A    between atoms: C_13  and  C_14
REMARK   10  A    between atoms: C_15  and  C_16
REMARK   11  A    between atoms: C_17  and  O_18
REMARK   12  A    between atoms: C_19  and  O_20
REMARK   13  A    between atoms: O_20  and  C_21
REMARK   14  A    between atoms: C_21  and  C_23
REMARK   15  A    between atoms: C_23  and  C_24
REMARK   16  A    between atoms: C_25  and  C_26
REMARK   17  A    between atoms: C_27  and  O_28
REMARK   18  A    between atoms: C_29  and  O_30
REMARK                            x       y       z     vdW  Elec       q    Type
REMARK                         _______ _______ _______ _____ _____    ______ ____
ROOT
ATOM      1  C   UNL     1       0.551  11.522  18.854  0.00  0.00    +0.000 C 
ATOM      2  C   UNL     1       1.166  12.641  19.732  0.00  0.00    +0.000 C 
ATOM      3  C   UNL     1       0.258  12.953  20.955  0.00  0.00    +0.000 C 
ATOM      4  C   UNL     1      -1.195  13.287  20.546  0.00  0.00    +0.000 C 
ATOM      5  C   UNL     1      -1.779  12.168  19.663  0.00  0.00    +0.000 C 
ATOM      6  C   UNL     1      -0.894  11.861  18.443  0.00  0.00    +0.000 C 
ENDROOT
BRANCH   3   7
ATOM      7  O   UNL     1       0.280  11.886  21.908  0.00  0.00    +0.000 OA
ATOM      8  H   UNL     1       0.938  11.221  21.642  0.00  0.00    +0.000 HD
ENDBRANCH   3   7
BRANCH   5   9
ATOM      9  O   UNL     1      -3.091  12.529  19.219  0.00  0.00    +0.000 OA
ATOM     10  H   UNL     1      -3.562  12.856  20.011  0.00  0.00    +0.000 HD
ENDBRANCH   5   9
BRANCH   6  11
ATOM     11  O   UNL     1      -0.951  12.962  17.521  0.00  0.00    +0.000 OA
ATOM     12  H   UNL     1      -1.676  13.555  17.799  0.00  0.00    +0.000 HD
ENDBRANCH   6  11
BRANCH   1  13
ATOM     13  O   UNL     1       0.533  10.272  19.602  0.00  0.00    +0.000 OA
BRANCH  13  14
ATOM     14  C   UNL     1       1.263   9.258  19.051  0.00  0.00    +0.000 C 
ATOM     15  O   UNL     1       1.620   9.222  17.885  0.00  0.00    +0.000 OA
BRANCH  14  18
ATOM     16  C   UNL     1       2.684   6.676  18.372  0.00  0.00    +0.000 C 
ATOM     17  C   UNL     1       2.248   7.097  19.745  0.00  0.00    +0.000 C 
ATOM     18  C   UNL     1       1.624   8.243  20.085  0.00  0.00    +0.000 C 
ATOM     19  C   UNL     1       1.256   8.522  21.514  0.00  0.00    +0.000 C 
ENDBRANCH  14  18
ENDBRANCH  13  14
ENDBRANCH   1  13
BRANCH   2  20
ATOM     20  O   UNL     1       1.393  13.886  19.033  0.00  0.00    +0.000 OA
BRANCH  20  21
ATOM     21  C   UNL     1       2.686  14.146  18.707  0.00  0.00    +0.000 C 
ATOM     22  O   UNL     1       3.403  13.396  18.069  0.00  0.00    +0.000 OA
BRANCH  21  23
ATOM     23  C   UNL     1       3.129  15.419  19.340  0.00  0.00    +0.000 C 
ATOM     24  C   UNL     1       3.609  15.376  20.767  0.00  0.00    +0.000 C 
ATOM     25  C   UNL     1       3.233  16.574  18.651  0.00  0.00    +0.000 C 
ATOM     26  C   UNL     1       2.863  16.872  17.233  0.00  0.00    +0.000 C 
ENDBRANCH  21  23
ENDBRANCH  20  21
ENDBRANCH   2  20
BRANCH   4  27
ATOM     27  O   UNL     1      -1.227  14.537  19.812  0.00  0.00    +0.000 OA
BRANCH  27  28
ATOM     28  C   UNL     1      -1.588  15.628  20.542  0.00  0.00    +0.000 C 
ATOM     29  O   UNL     1      -2.655  15.754  21.116  0.00  0.00    +0.000 OA
BRANCH  28  30
ATOM     30  C   UNL     1      -0.481  16.625  20.579  0.00  0.00    +0.000 C 
ATOM     31  C   UNL     1       0.356  16.732  21.827  0.00  0.00    +0.000 C 
ATOM     32  C   UNL     1      -0.192  17.407  19.518  0.00  0.00    +0.000 C 
ATOM     33  C   UNL     1      -0.867  17.486  18.183  0.00  0.00    +0.000 C 
ENDBRANCH  28  30
ENDBRANCH  27  28
ENDBRANCH   4  27
TORSDOF 12
ENDMDL
MODEL 5
REMARK VINA RESULT:      -5.2      2.163      7.042
REMARK  Name = 
REMARK  18 active torsions:
REMARK  status: ('A' for Active; 'I' for Inactive)
REMARK    1  A    between atoms: C_1  and  C_2
REMARK    2  A    between atoms: C_3  and  C_4
REMARK    3  A    between atoms: C_3  and  C_5
REMARK    4  A    between atoms: C_5  and  O_7
REMARK    5  A    between atoms: O_7  and  C_8
REMARK    6  A    between atoms: C_9  and  O_10
REMARK    7  A    between atoms: O_10  and  C_11
REMARK    8  A    between atoms: C_11  and  C_13
REMARK    9  A    between atoms: C_13  and  C_14
REMARK   10  A    between atoms: C_15  and  C_16
REMARK   11  A    between atoms: C_17  and  O_18
REMARK   12  A    between atoms: C_19  and  O_20
REMARK   13  A    between atoms: O_20  and  C_21
REMARK   14  A    between atoms: C_21  and  C_23
REMARK   15  A    between atoms: C_23  and  C_24
REMARK   16  A    between atoms: C_25  and  C_26
REMARK   17  A    between atoms: C_27  and  O_28
REMARK   18  A    between atoms: C_29  and  O_30
REMARK                            x       y       z     vdW  Elec       q    Type
REMARK                         _______ _______ _______ _____ _____    ______ ____
ROOT
ATOM      1  C   UNL     1      -2.120  12.220  21.067  0.00  0.00    +0.000 C 
ATOM      2  C   UNL     1      -3.315  13.017  20.488  0.00  0.00    +0.000 C 
ATOM      3  C   UNL     1      -3.208  14.526  20.850  0.00  0.00    +0.000 C 
ATOM      4  C   UNL     1      -3.051  14.762  22.369  0.00  0.00    +0.000 C 
ATOM      5  C   UNL     1      -1.866  13.948  22.924  0.00  0.00    +0.000 C 
ATOM      6  C   UNL     1      -1.971  12.452  22.582  0.00  0.00    +0.000 C 
ENDROOT
BRANCH   3   7
ATOM      7  O   UNL     1      -2.147  15.161  20.130  0.00  0.00    +0.000 OA
ATOM      8  H   UNL     1      -2.274  16.125  20.139  0.00  0.00    +0.000 HD
ENDBRANCH   3   7
BRANCH   5   9
ATOM      9  O   UNL     1      -1.785  14.106  24.345  0.00  0.00    +0.000 OA
ATOM     10  H   UNL     1      -1.631  13.211  24.707  0.00  0.00    +0.000 HD
ENDBRANCH   5   9
BRANCH   6  11
ATOM     11  O   UNL     1      -3.048  11.864  23.329  0.00  0.00    +0.000 OA
ATOM     12  H   UNL     1      -3.211  10.969  22.975  0.00  0.00    +0.000 HD
ENDBRANCH   6  11
BRANCH   1  13
ATOM     13  O   UNL     1      -0.890  12.647  20.415  0.00  0.00    +0.000 OA
BRANCH  13  14
ATOM     14  C   UNL     1       0.185  11.827  20.613  0.00  0.00    +0.000 C 
ATOM     15  O   UNL     1       1.191  12.147  21.222  0.00  0.00    +0.000 OA
BRANCH  14  18
ATOM     16  C   UNL     1      -0.067   9.360  22.345  0.00  0.00    +0.000 C 
ATOM     17  C   UNL     1      -0.170   9.390  20.848  0.00  0.00    +0.000 C 
ATOM     18  C   UNL     1      -0.074  10.469  20.046  0.00  0.00    +0.000 C 
ATOM     19  C   UNL     1      -0.207  10.334  18.556  0.00  0.00    +0.000 C 
ENDBRANCH  14  18
ENDBRANCH  13  14
ENDBRANCH   1  13
BRANCH   2  20
ATOM     20  O   UNL     1      -4.609  12.556  20.939  0.00  0.00    +0.000 OA
BRANCH  20  21
ATOM     21  C   UNL     1      -5.472  12.187  19.956  0.00  0.00    +0.000 C 
ATOM     22  O   UNL     1      -5.172  11.508  18.990  0.00  0.00    +0.000 OA
BRANCH  21  23
ATOM     23  C   UNL     1      -6.800  12.827  20.171  0.00  0.00    +0.000 C 
ATOM     24  C   UNL     1      -7.009  14.226  19.654  0.00  0.00    +0.000 C 
ATOM     25  C   UNL     1      -7.849  12.162  20.697  0.00  0.00    +0.000 C 
ATOM     26  C   UNL     1      -7.916  10.773  21.246  0.00  0.00    +0.000 C 
ENDBRANCH  21  23
ENDBRANCH  20  21
ENDBRANCH   2  20
BRANCH   4  27
ATOM     27  O   UNL     1      -4.263  14.366  23.060  0.00  0.00    +0.000 OA
BRANCH  27  28
ATOM     28  C   UNL     1      -4.884  15.358  23.756  0.00  0.00    +0.000 C 
ATOM     29  O   UNL     1      -4.415  15.916  24.732  0.00  0.00    +0.000 OA
BRANCH  28  30
ATOM     30  C   UNL     1      -6.193  15.699  23.130  0.00  0.00    +0.000 C 
ATOM     31  C   UNL     1      -6.268  16.887  22.207  0.00  0.00    +0.000 C 
ATOM     32  C   UNL     1      -7.298  14.955  23.344  0.00  0.00    +0.000 C 
ATOM     33  C   UNL     1      -7.477  13.742  24.207  0.00  0.00    +0.000 C 
ENDBRANCH  28  30
ENDBRANCH  27  28
ENDBRANCH   4  27
TORSDOF 12
ENDMDL
MODEL 6
REMARK VINA RESULT:      -5.2      2.172      5.058
REMARK  Name = 
REMARK  18 active torsions:
REMARK  status: ('A' for Active; 'I' for Inactive)
REMARK    1  A    between atoms: C_1  and  C_2
REMARK    2  A    between atoms: C_3  and  C_4
REMARK    3  A    between atoms: C_3  and  C_5
REMARK    4  A    between atoms: C_5  and  O_7
REMARK    5  A    between atoms: O_7  and  C_8
REMARK    6  A    between atoms: C_9  and  O_10
REMARK    7  A    between atoms: O_10  and  C_11
REMARK    8  A    between atoms: C_11  and  C_13
REMARK    9  A    between atoms: C_13  and  C_14
REMARK   10  A    between atoms: C_15  and  C_16
REMARK   11  A    between atoms: C_17  and  O_18
REMARK   12  A    between atoms: C_19  and  O_20
REMARK   13  A    between atoms: O_20  and  C_21
REMARK   14  A    between atoms: C_21  and  C_23
REMARK   15  A    between atoms: C_23  and  C_24
REMARK   16  A    between atoms: C_25  and  C_26
REMARK   17  A    between atoms: C_27  and  O_28
REMARK   18  A    between atoms: C_29  and  O_30
REMARK                            x       y       z     vdW  Elec       q    Type
REMARK                         _______ _______ _______ _____ _____    ______ ____
ROOT
ATOM      1  C   UNL     1      -2.384  13.895  22.471  0.00  0.00    +0.000 C 
ATOM      2  C   UNL     1      -2.974  13.816  21.041  0.00  0.00    +0.000 C 
ATOM      3  C   UNL     1      -4.428  14.367  21.005  0.00  0.00    +0.000 C 
ATOM      4  C   UNL     1      -5.349  13.679  22.039  0.00  0.00    +0.000 C 
ATOM      5  C   UNL     1      -4.733  13.759  23.449  0.00  0.00    +0.000 C 
ATOM      6  C   UNL     1      -3.301  13.203  23.496  0.00  0.00    +0.000 C 
ENDROOT
BRANCH   3   7
ATOM      7  O   UNL     1      -4.452  15.788  21.177  0.00  0.00    +0.000 OA
ATOM      8  H   UNL     1      -5.175  16.034  21.778  0.00  0.00    +0.000 HD
ENDBRANCH   3   7
BRANCH   5   9
ATOM      9  O   UNL     1      -5.552  13.043  24.382  0.00  0.00    +0.000 OA
ATOM     10  H   UNL     1      -5.010  12.937  25.189  0.00  0.00    +0.000 HD
ENDBRANCH   5   9
BRANCH   6  11
ATOM     11  O   UNL     1      -3.333  11.778  23.318  0.00  0.00    +0.000 OA
ATOM     12  H   UNL     1      -4.002  11.571  22.637  0.00  0.00    +0.000 HD
ENDBRANCH   6  11
BRANCH   1  13
ATOM     13  O   UNL     1      -2.235  15.292  22.858  0.00  0.00    +0.000 OA
BRANCH  13  14
ATOM     14  C   UNL     1      -0.954  15.685  23.121  0.00  0.00    +0.000 C 
ATOM     15  O   UNL     1      -0.384  15.506  24.184  0.00  0.00    +0.000 OA
BRANCH  14  18
ATOM     16  C   UNL     1       1.195  14.285  21.517  0.00  0.00    +0.000 C 
ATOM     17  C   UNL     1       0.635  15.647  21.225  0.00  0.00    +0.000 C 
ATOM     18  C   UNL     1      -0.328  16.296  21.910  0.00  0.00    +0.000 C 
ATOM     19  C   UNL     1      -0.787  17.661  21.484  0.00  0.00    +0.000 C 
ENDBRANCH  14  18
ENDBRANCH  13  14
ENDBRANCH   1  13
BRANCH   2  20
ATOM     20  O   UNL     1      -3.005  12.481  20.485  0.00  0.00    +0.000 OA
BRANCH  20  21
ATOM     21  C   UNL     1      -1.794  11.952  20.170  0.00  0.00    +0.000 C 
ATOM     22  O   UNL     1      -1.037  11.430  20.970  0.00  0.00    +0.000 OA
BRANCH  21  23
ATOM     23  C   UNL     1      -1.479  12.206  18.737  0.00  0.00    +0.000 C 
ATOM     24  C   UNL     1      -0.518  13.316  18.403  0.00  0.00    +0.000 C 
ATOM     25  C   UNL     1      -1.923  11.406  17.745  0.00  0.00    +0.000 C 
ATOM     26  C   UNL     1      -2.844  10.230  17.810  0.00  0.00    +0.000 C 
ENDBRANCH  21  23
ENDBRANCH  20  21
ENDBRANCH   2  20
BRANCH   4  27
ATOM     27  O   UNL     1      -5.540  12.287  21.682  0.00  0.00    +0.000 OA
BRANCH  27  28
ATOM     28  C   UNL     1      -6.764  11.982  21.172  0.00  0.00    +0.000 C 
ATOM     29  O   UNL     1      -7.824  12.270  21.699  0.00  0.00    +0.000 OA
BRANCH  28  30
ATOM     30  C   UNL     1      -6.630  11.291  19.858  0.00  0.00    +0.000 C 
ATOM     31  C   UNL     1      -6.005  12.037  18.708  0.00  0.00    +0.000 C 
ATOM     32  C   UNL     1      -7.021  10.012  19.684  0.00  0.00    +0.000 C 
ATOM     33  C   UNL     1      -7.659   9.071  20.660  0.00  0.00    +0.000 C 
ENDBRANCH  28  30
ENDBRANCH  27  28
ENDBRANCH   4  27
TORSDOF 12
ENDMDL
MODEL 7
REMARK VINA RESULT:      -5.2      4.581      7.924
REMARK  Name = 
REMARK  18 active torsions:
REMARK  status: ('A' for Active; 'I' for Inactive)
REMARK    1  A    between atoms: C_1  and  C_2
REMARK    2  A    between atoms: C_3  and  C_4
REMARK    3  A    between atoms: C_3  and  C_5
REMARK    4  A    between atoms: C_5  and  O_7
REMARK    5  A    between atoms: O_7  and  C_8
REMARK    6  A    between atoms: C_9  and  O_10
REMARK    7  A    between atoms: O_10  and  C_11
REMARK    8  A    between atoms: C_11  and  C_13
REMARK    9  A    between atoms: C_13  and  C_14
REMARK   10  A    between atoms: C_15  and  C_16
REMARK   11  A    between atoms: C_17  and  O_18
REMARK   12  A    between atoms: C_19  and  O_20
REMARK   13  A    between atoms: O_20  and  C_21
REMARK   14  A    between atoms: C_21  and  C_23
REMARK   15  A    between atoms: C_23  and  C_24
REMARK   16  A    between atoms: C_25  and  C_26
REMARK   17  A    between atoms: C_27  and  O_28
REMARK   18  A    between atoms: C_29  and  O_30
REMARK                            x       y       z     vdW  Elec       q    Type
REMARK                         _______ _______ _______ _____ _____    ______ ____
ROOT
ATOM      1  C   UNL     1       0.868  12.229  20.512  0.00  0.00    +0.000 C 
ATOM      2  C   UNL     1      -0.438  12.955  20.100  0.00  0.00    +0.000 C 
ATOM      3  C   UNL     1      -0.237  13.761  18.786  0.00  0.00    +0.000 C 
ATOM      4  C   UNL     1       0.955  14.741  18.867  0.00  0.00    +0.000 C 
ATOM      5  C   UNL     1       2.237  13.999  19.292  0.00  0.00    +0.000 C 
ATOM      6  C   UNL     1       2.052  13.210  20.598  0.00  0.00    +0.000 C 
ENDROOT
BRANCH   3   7
ATOM      7  O   UNL     1      -0.099  12.893  17.657  0.00  0.00    +0.000 OA
ATOM      8  H   UNL     1      -0.836  13.038  17.039  0.00  0.00    +0.000 HD
ENDBRANCH   3   7
BRANCH   5   9
ATOM      9  O   UNL     1       3.313  14.931  19.448  0.00  0.00    +0.000 OA
ATOM     10  H   UNL     1       4.098  14.398  19.686  0.00  0.00    +0.000 HD
ENDBRANCH   5   9
BRANCH   6  11
ATOM     11  O   UNL     1       1.918  14.126  21.697  0.00  0.00    +0.000 OA
ATOM     12  H   UNL     1       2.377  13.743  22.470  0.00  0.00    +0.000 HD
ENDBRANCH   6  11
BRANCH   1  13
ATOM     13  O   UNL     1       1.189  11.209  19.524  0.00  0.00    +0.000 OA
BRANCH  13  14
ATOM     14  C   UNL     1       0.386  10.104  19.552  0.00  0.00    +0.000 C 
ATOM     15  O   UNL     1      -0.708  10.035  19.017  0.00  0.00    +0.000 OA
BRANCH  14  18
ATOM     16  C   UNL     1       2.219   8.156  18.140  0.00  0.00    +0.000 C 
ATOM     17  C   UNL     1       1.864   8.121  19.598  0.00  0.00    +0.000 C 
ATOM     18  C   UNL     1       1.061   8.976  20.261  0.00  0.00    +0.000 C 
ATOM     19  C   UNL     1       0.808   8.809  21.732  0.00  0.00    +0.000 C 
ENDBRANCH  14  18
ENDBRANCH  13  14
ENDBRANCH   1  13
BRANCH   2  20
ATOM     20  O   UNL     1      -0.946  13.871  21.097  0.00  0.00    +0.000 OA
BRANCH  20  21
ATOM     21  C   UNL     1      -2.227  13.651  21.493  0.00  0.00    +0.000 C 
ATOM     22  O   UNL     1      -3.211  13.894  20.818  0.00  0.00    +0.000 OA
BRANCH  21  23
ATOM     23  C   UNL     1      -2.254  13.182  22.906  0.00  0.00    +0.000 C 
ATOM     24  C   UNL     1      -2.045  11.715  23.174  0.00  0.00    +0.000 C 
ATOM     25  C   UNL     1      -2.335  14.032  23.951  0.00  0.00    +0.000 C 
ATOM     26  C   UNL     1      -2.508  15.517  23.958  0.00  0.00    +0.000 C 
ENDBRANCH  21  23
ENDBRANCH  20  21
ENDBRANCH   2  20
BRANCH   4  27
ATOM     27  O   UNL     1       0.672  15.788  19.830  0.00  0.00    +0.000 OA
BRANCH  27  28
ATOM     28  C   UNL     1       0.741  17.057  19.342  0.00  0.00    +0.000 C 
ATOM     29  O   UNL     1       1.738  17.757  19.376  0.00  0.00    +0.000 OA
BRANCH  28  30
ATOM     30  C   UNL     1      -0.554  17.454  18.721  0.00  0.00    +0.000 C 
ATOM     31  C   UNL     1      -1.825  17.251  19.503  0.00  0.00    +0.000 C 
ATOM     32  C   UNL     1      -0.612  18.016  17.496  0.00  0.00    +0.000 C 
ATOM     33  C   UNL     1       0.497  18.319  16.534  0.00  0.00    +0.000 C 
ENDBRANCH  28  30
ENDBRANCH  27  28
ENDBRANCH   4  27
TORSDOF 12
ENDMDL
MODEL 8
REMARK VINA RESULT:      -5.2      4.195      7.910
REMARK  Name = 
REMARK  18 active torsions:
REMARK  status: ('A' for Active; 'I' for Inactive)
REMARK    1  A    between atoms: C_1  and  C_2
REMARK    2  A    between atoms: C_3  and  C_4
REMARK    3  A    between atoms: C_3  and  C_5
REMARK    4  A    between atoms: C_5  and  O_7
REMARK    5  A    between atoms: O_7  and  C_8
REMARK    6  A    between atoms: C_9  and  O_10
REMARK    7  A    between atoms: O_10  and  C_11
REMARK    8  A    between atoms: C_11  and  C_13
REMARK    9  A    between atoms: C_13  and  C_14
REMARK   10  A    between atoms: C_15  and  C_16
REMARK   11  A    between atoms: C_17  and  O_18
REMARK   12  A    between atoms: C_19  and  O_20
REMARK   13  A    between atoms: O_20  and  C_21
REMARK   14  A    between atoms: C_21  and  C_23
REMARK   15  A    between atoms: C_23  and  C_24
REMARK   16  A    between atoms: C_25  and  C_26
REMARK   17  A    between atoms: C_27  and  O_28
REMARK   18  A    between atoms: C_29  and  O_30
REMARK                            x       y       z     vdW  Elec       q    Type
REMARK                         _______ _______ _______ _____ _____    ______ ____
ROOT
ATOM      1  C   UNL     1       1.077  12.115  20.114  0.00  0.00    +0.000 C 
ATOM      2  C   UNL     1      -0.302  12.801  20.292  0.00  0.00    +0.000 C 
ATOM      3  C   UNL     1      -0.553  13.849  19.172  0.00  0.00    +0.000 C 
ATOM      4  C   UNL     1       0.587  14.887  19.064  0.00  0.00    +0.000 C 
ATOM      5  C   UNL     1       1.948  14.181  18.902  0.00  0.00    +0.000 C 
ATOM      6  C   UNL     1       2.210  13.152  20.013  0.00  0.00    +0.000 C 
ENDROOT
BRANCH   3   7
ATOM      7  O   UNL     1      -0.780  13.218  17.908  0.00  0.00    +0.000 OA
ATOM      8  H   UNL     1      -1.015  13.888  17.244  0.00  0.00    +0.000 HD
ENDBRANCH   3   7
BRANCH   5   9
ATOM      9  O   UNL     1       3.003  15.149  18.891  0.00  0.00    +0.000 OA
ATOM     10  H   UNL     1       2.588  15.997  18.639  0.00  0.00    +0.000 HD
ENDBRANCH   5   9
BRANCH   6  11
ATOM     11  O   UNL     1       2.431  13.836  21.258  0.00  0.00    +0.000 OA
ATOM     12  H   UNL     1       1.573  14.180  21.572  0.00  0.00    +0.000 HD
ENDBRANCH   6  11
BRANCH   1  13
ATOM     13  O   UNL     1       1.070  11.323  18.892  0.00  0.00    +0.000 OA
BRANCH  13  14
ATOM     14  C   UNL     1       0.294  10.200  18.935  0.00  0.00    +0.000 C 
ATOM     15  O   UNL     1      -0.782  10.085  18.374  0.00  0.00    +0.000 OA
BRANCH  14  18
ATOM     16  C   UNL     1       2.453   8.463  17.722  0.00  0.00    +0.000 C 
ATOM     17  C   UNL     1       1.929   8.352  19.123  0.00  0.00    +0.000 C 
ATOM     18  C   UNL     1       0.978   9.114  19.700  0.00  0.00    +0.000 C 
ATOM     19  C   UNL     1       0.564   8.879  21.125  0.00  0.00    +0.000 C 
ENDBRANCH  14  18
ENDBRANCH  13  14
ENDBRANCH   1  13
BRANCH   2  20
ATOM     20  O   UNL     1      -0.468  13.475  21.561  0.00  0.00    +0.000 OA
BRANCH  20  21
ATOM     21  C   UNL     1      -0.998  12.719  22.558  0.00  0.00    +0.000 C 
ATOM     22  O   UNL     1      -0.504  11.690  22.983  0.00  0.00    +0.000 OA
BRANCH  21  23
ATOM     23  C   UNL     1      -2.319  13.268  22.972  0.00  0.00    +0.000 C 
ATOM     24  C   UNL     1      -3.563  12.634  22.407  0.00  0.00    +0.000 C 
ATOM     25  C   UNL     1      -2.444  14.221  23.919  0.00  0.00    +0.000 C 
ATOM     26  C   UNL     1      -1.384  14.977  24.655  0.00  0.00    +0.000 C 
ENDBRANCH  21  23
ENDBRANCH  20  21
ENDBRANCH   2  20
BRANCH   4  27
ATOM     27  O   UNL     1       0.620  15.712  20.256  0.00  0.00    +0.000 OA
BRANCH  27  28
ATOM     28  C   UNL     1       0.040  16.937  20.128  0.00  0.00    +0.000 C 
ATOM     29  O   UNL     1       0.067  17.613  19.115  0.00  0.00    +0.000 OA
BRANCH  28  30
ATOM     30  C   UNL     1      -0.672  17.315  21.382  0.00  0.00    +0.000 C 
ATOM     31  C   UNL     1       0.072  18.101  22.429  0.00  0.00    +0.000 C 
ATOM     32  C   UNL     1      -1.967  16.999  21.586  0.00  0.00    +0.000 C 
ATOM     33  C   UNL     1      -2.911  16.235  20.707  0.00  0.00    +0.000 C 
ENDBRANCH  28  30
ENDBRANCH  27  28
ENDBRANCH   4  27
TORSDOF 12
ENDMDL
MODEL 9
REMARK VINA RESULT:      -5.2      2.055      7.060
REMARK  Name = 
REMARK  18 active torsions:
REMARK  status: ('A' for Active; 'I' for Inactive)
REMARK    1  A    between atoms: C_1  and  C_2
REMARK    2  A    between atoms: C_3  and  C_4
REMARK    3  A    between atoms: C_3  and  C_5
REMARK    4  A    between atoms: C_5  and  O_7
REMARK    5  A    between atoms: O_7  and  C_8
REMARK    6  A    between atoms: C_9  and  O_10
REMARK    7  A    between atoms: O_10  and  C_11
REMARK    8  A    between atoms: C_11  and  C_13
REMARK    9  A    between atoms: C_13  and  C_14
REMARK   10  A    between atoms: C_15  and  C_16
REMARK   11  A    between atoms: C_17  and  O_18
REMARK   12  A    between atoms: C_19  and  O_20
REMARK   13  A    between atoms: O_20  and  C_21
REMARK   14  A    between atoms: C_21  and  C_23
REMARK   15  A    between atoms: C_23  and  C_24
REMARK   16  A    between atoms: C_25  and  C_26
REMARK   17  A    between atoms: C_27  and  O_28
REMARK   18  A    between atoms: C_29  and  O_30
REMARK                            x       y       z     vdW  Elec       q    Type
REMARK                         _______ _______ _______ _____ _____    ______ ____
ROOT
ATOM      1  C   UNL     1      -2.192  12.184  21.007  0.00  0.00    +0.000 C 
ATOM      2  C   UNL     1      -3.382  13.036  20.498  0.00  0.00    +0.000 C 
ATOM      3  C   UNL     1      -3.187  14.537  20.855  0.00  0.00    +0.000 C 
ATOM      4  C   UNL     1      -2.934  14.760  22.363  0.00  0.00    +0.000 C 
ATOM      5  C   UNL     1      -1.757  13.891  22.848  0.00  0.00    +0.000 C 
ATOM      6  C   UNL     1      -1.948  12.404  22.511  0.00  0.00    +0.000 C 
ENDROOT
BRANCH   3   7
ATOM      7  O   UNL     1      -2.142  15.127  20.077  0.00  0.00    +0.000 OA
ATOM      8  H   UNL     1      -2.525  15.622  19.333  0.00  0.00    +0.000 HD
ENDBRANCH   3   7
BRANCH   5   9
ATOM      9  O   UNL     1      -1.588  14.041  24.263  0.00  0.00    +0.000 OA
ATOM     10  H   UNL     1      -1.317  14.969  24.405  0.00  0.00    +0.000 HD
ENDBRANCH   5   9
BRANCH   6  11
ATOM     11  O   UNL     1      -3.006  11.861  23.317  0.00  0.00    +0.000 OA
ATOM     12  H   UNL     1      -2.604  11.308  24.016  0.00  0.00    +0.000 HD
ENDBRANCH   6  11
BRANCH   1  13
ATOM     13  O   UNL     1      -0.983  12.559  20.286  0.00  0.00    +0.000 OA
BRANCH  13  14
ATOM     14  C   UNL     1      -0.974  12.227  18.961  0.00  0.00    +0.000 C 
ATOM     15  O   UNL     1      -0.944  13.037  18.050  0.00  0.00    +0.000 OA
BRANCH  14  18
ATOM     16  C   UNL     1      -3.218  10.676  17.654  0.00  0.00    +0.000 C 
ATOM     17  C   UNL     1      -1.956  10.084  18.209  0.00  0.00    +0.000 C 
ATOM     18  C   UNL     1      -0.932  10.744  18.787  0.00  0.00    +0.000 C 
ATOM     19  C   UNL     1       0.274  10.003  19.290  0.00  0.00    +0.000 C 
ENDBRANCH  14  18
ENDBRANCH  13  14
ENDBRANCH   1  13
BRANCH   2  20
ATOM     20  O   UNL     1      -4.668  12.630  21.021  0.00  0.00    +0.000 OA
BRANCH  20  21
ATOM     21  C   UNL     1      -5.651  12.472  20.096  0.00  0.00    +0.000 C 
ATOM     22  O   UNL     1      -5.629  12.950  18.975  0.00  0.00    +0.000 OA
BRANCH  21  23
ATOM     23  C   UNL     1      -6.800  11.734  20.689  0.00  0.00    +0.000 C 
ATOM     24  C   UNL     1      -7.548  12.375  21.828  0.00  0.00    +0.000 C 
ATOM     25  C   UNL     1      -7.267  10.580  20.167  0.00  0.00    +0.000 C 
ATOM     26  C   UNL     1      -6.737   9.766  19.031  0.00  0.00    +0.000 C 
ENDBRANCH  21  23
ENDBRANCH  20  21
ENDBRANCH   2  20
BRANCH   4  27
ATOM     27  O   UNL     1      -4.121  14.415  23.121  0.00  0.00    +0.000 OA
BRANCH  27  28
ATOM     28  C   UNL     1      -4.609  15.406  23.917  0.00  0.00    +0.000 C 
ATOM     29  O   UNL     1      -4.012  15.890  24.863  0.00  0.00    +0.000 OA
BRANCH  28  30
ATOM     30  C   UNL     1      -5.950  15.850  23.443  0.00  0.00    +0.000 C 
ATOM     31  C   UNL     1      -7.173  15.140  23.961  0.00  0.00    +0.000 C 
ATOM     32  C   UNL     1      -6.096  16.885  22.591  0.00  0.00    +0.000 C 
ATOM     33  C   UNL     1      -5.049  17.741  21.944  0.00  0.00    +0.000 C 
ENDBRANCH  28  30
ENDBRANCH  27  28
ENDBRANCH   4  27
TORSDOF 12
ENDMDL
