MODEL 1
REMARK VINA RESULT:      -8.4      0.000      0.000
REMARK  Name = 
REMARK  7 active torsions:
REMARK  status: ('A' for Active; 'I' for Inactive)
REMARK    1  A    between atoms: C_1  and  C_2
REMARK    2  A    between atoms: C_5  and  N_6
REMARK    3  A    between atoms: C_7  and  S_8
REMARK    4  A    between atoms: S_8  and  C_9
REMARK    5  A    between atoms: C_9  and  C_10
REMARK    6  A    between atoms: C_12  and  C_13
REMARK    7  A    between atoms: C_23  and  C_24
REMARK                            x       y       z     vdW  Elec       q    Type
REMARK                         _______ _______ _______ _____ _____    ______ ____
ROOT
ATOM      1  N   UNL     1       3.512   5.863  17.736  0.00  0.00    +0.000 N 
ATOM      2  C   UNL     1       4.427   5.643  16.691  0.00  0.00    +0.000 A 
ATOM      3  N   UNL     1       4.660   6.760  16.051  0.00  0.00    +0.000 NA
ATOM      4  N   UNL     1       3.916   7.748  16.638  0.00  0.00    +0.000 NA
ATOM      5  C   UNL     1       3.203   7.236  17.629  0.00  0.00    +0.000 A 
ENDROOT
BRANCH   1  10
ATOM      6  C   UNL     1       1.261   2.489  21.807  0.00  0.00    +0.000 C 
ATOM      7  C   UNL     1       1.881   3.321  20.724  0.00  0.00    +0.000 A 
ATOM      8  C   UNL     1       3.147   3.883  20.885  0.00  0.00    +0.000 A 
ATOM      9  C   UNL     1       3.719   4.646  19.862  0.00  0.00    +0.000 A 
ATOM     10  C   UNL     1       3.002   4.930  18.692  0.00  0.00    +0.000 A 
ATOM     11  C   UNL     1       1.742   4.345  18.522  0.00  0.00    +0.000 A 
ATOM     12  C   UNL     1       1.197   3.533  19.522  0.00  0.00    +0.000 A 
ENDBRANCH   1  10
BRANCH   5  13
ATOM     13  C   UNL     1       2.251   8.039  18.439  0.00  0.00    +0.000 A 
ATOM     14  C   UNL     1       1.965   7.784  19.786  0.00  0.00    +0.000 A 
ATOM     15  C   UNL     1       1.184   8.683  20.496  0.00  0.00    +0.000 A 
ATOM     16  N   UNL     1       0.597   9.762  19.941  0.00  0.00    +0.000 NA
ATOM     17  C   UNL     1       0.794   9.944  18.622  0.00  0.00    +0.000 A 
ATOM     18  C   UNL     1       1.606   9.122  17.845  0.00  0.00    +0.000 A 
ENDBRANCH   5  13
BRANCH   2  19
ATOM     19  S   UNL     1       5.282   4.144  16.403  0.00  0.00    +0.000 S 
BRANCH  19  20
ATOM     20  C   UNL     1       7.009   4.648  16.093  0.00  0.00    +0.000 C 
BRANCH  20  21
ATOM     21  C   UNL     1       7.380   5.792  16.991  0.00  0.00    +0.000 A 
ATOM     22  N   UNL     1       7.585   7.071  16.732  0.00  0.00    +0.000 NA
ATOM     23  C   UNL     1       7.952   7.581  17.971  0.00  0.00    +0.000 A 
ATOM     24  N   UNL     1       7.943   6.657  18.948  0.00  0.00    +0.000 NA
ATOM     25  O   UNL     1       7.565   5.484  18.306  0.00  0.00    +0.000 OA
BRANCH  23  26
ATOM     26  C   UNL     1       8.342   8.981  18.197  0.00  0.00    +0.000 A 
ATOM     27  C   UNL     1       7.850  10.014  17.386  0.00  0.00    +0.000 A 
ATOM     28  C   UNL     1       8.244  11.344  17.599  0.00  0.00    +0.000 A 
ATOM     29  C   UNL     1       9.136  11.657  18.628  0.00  0.00    +0.000 A 
ATOM     30  C   UNL     1       9.631  10.646  19.442  0.00  0.00    +0.000 A 
ATOM     31  C   UNL     1       9.236   9.319  19.232  0.00  0.00    +0.000 A 
ENDBRANCH  23  26
ENDBRANCH  20  21
ENDBRANCH  19  20
ENDBRANCH   2  19
TORSDOF 6
ENDMDL
MODEL 2
REMARK VINA RESULT:      -8.4      0.823      1.187
REMARK  Name = 
REMARK  7 active torsions:
REMARK  status: ('A' for Active; 'I' for Inactive)
REMARK    1  A    between atoms: C_1  and  C_2
REMARK    2  A    between atoms: C_5  and  N_6
REMARK    3  A    between atoms: C_7  and  S_8
REMARK    4  A    between atoms: S_8  and  C_9
REMARK    5  A    between atoms: C_9  and  C_10
REMARK    6  A    between atoms: C_12  and  C_13
REMARK    7  A    between atoms: C_23  and  C_24
REMARK                            x       y       z     vdW  Elec       q    Type
REMARK                         _______ _______ _______ _____ _____    ______ ____
ROOT
ATOM      1  N   UNL     1       3.042   6.552  18.141  0.00  0.00    +0.000 N 
ATOM      2  C   UNL     1       4.075   6.389  17.200  0.00  0.00    +0.000 A 
ATOM      3  N   UNL     1       4.307   7.519  16.582  0.00  0.00    +0.000 NA
ATOM      4  N   UNL     1       3.446   8.459  17.082  0.00  0.00    +0.000 NA
ATOM      5  C   UNL     1       2.663   7.904  17.994  0.00  0.00    +0.000 A 
ENDROOT
BRANCH   1  10
ATOM      6  C   UNL     1       1.207   2.399  21.664  0.00  0.00    +0.000 C 
ATOM      7  C   UNL     1       1.631   3.510  20.751  0.00  0.00    +0.000 A 
ATOM      8  C   UNL     1       1.280   3.506  19.401  0.00  0.00    +0.000 A 
ATOM      9  C   UNL     1       1.671   4.555  18.564  0.00  0.00    +0.000 A 
ATOM     10  C   UNL     1       2.490   5.588  19.041  0.00  0.00    +0.000 A 
ATOM     11  C   UNL     1       2.820   5.604  20.401  0.00  0.00    +0.000 A 
ATOM     12  C   UNL     1       2.377   4.584  21.250  0.00  0.00    +0.000 A 
ENDBRANCH   1  10
BRANCH   5  13
ATOM     13  C   UNL     1       1.584   8.646  18.694  0.00  0.00    +0.000 A 
ATOM     14  C   UNL     1       1.446   8.693  20.087  0.00  0.00    +0.000 A 
ATOM     15  C   UNL     1       0.501   9.539  20.647  0.00  0.00    +0.000 A 
ATOM     16  N   UNL     1      -0.371  10.268  19.922  0.00  0.00    +0.000 NA
ATOM     17  C   UNL     1      -0.299  10.139  18.584  0.00  0.00    +0.000 A 
ATOM     18  C   UNL     1       0.652   9.355  17.937  0.00  0.00    +0.000 A 
ENDBRANCH   5  13
BRANCH   2  19
ATOM     19  S   UNL     1       5.045   4.945  17.013  0.00  0.00    +0.000 S 
BRANCH  19  20
ATOM     20  C   UNL     1       6.607   5.529  16.272  0.00  0.00    +0.000 C 
BRANCH  20  21
ATOM     21  C   UNL     1       7.245   6.558  17.160  0.00  0.00    +0.000 A 
ATOM     22  N   UNL     1       7.393   7.862  17.014  0.00  0.00    +0.000 NA
ATOM     23  C   UNL     1       8.112   8.219  18.149  0.00  0.00    +0.000 A 
ATOM     24  N   UNL     1       8.365   7.180  18.964  0.00  0.00    +0.000 NA
ATOM     25  O   UNL     1       7.793   6.091  18.317  0.00  0.00    +0.000 OA
BRANCH  23  26
ATOM     26  C   UNL     1       8.580   9.585  18.425  0.00  0.00    +0.000 A 
ATOM     27  C   UNL     1       8.311  10.640  17.541  0.00  0.00    +0.000 A 
ATOM     28  C   UNL     1       8.778  11.936  17.805  0.00  0.00    +0.000 A 
ATOM     29  C   UNL     1       9.522  12.194  18.961  0.00  0.00    +0.000 A 
ATOM     30  C   UNL     1       9.795  11.161  19.848  0.00  0.00    +0.000 A 
ATOM     31  C   UNL     1       9.326   9.868  19.586  0.00  0.00    +0.000 A 
ENDBRANCH  23  26
ENDBRANCH  20  21
ENDBRANCH  19  20
ENDBRANCH   2  19
TORSDOF 6
ENDMDL
MODEL 3
REMARK VINA RESULT:      -8.1      4.733      8.344
REMARK  Name = 
REMARK  7 active torsions:
REMARK  status: ('A' for Active; 'I' for Inactive)
REMARK    1  A    between atoms: C_1  and  C_2
REMARK    2  A    between atoms: C_5  and  N_6
REMARK    3  A    between atoms: C_7  and  S_8
REMARK    4  A    between atoms: S_8  and  C_9
REMARK    5  A    between atoms: C_9  and  C_10
REMARK    6  A    between atoms: C_12  and  C_13
REMARK    7  A    between atoms: C_23  and  C_24
REMARK                            x       y       z     vdW  Elec       q    Type
REMARK                         _______ _______ _______ _____ _____    ______ ____
ROOT
ATOM      1  N   UNL     1      -0.983  11.596  20.726  0.00  0.00    +0.000 N 
ATOM      2  C   UNL     1      -0.496  10.734  21.725  0.00  0.00    +0.000 A 
ATOM      3  N   UNL     1      -0.219  11.411  22.811  0.00  0.00    +0.000 NA
ATOM      4  N   UNL     1      -0.505  12.729  22.573  0.00  0.00    +0.000 NA
ATOM      5  C   UNL     1      -0.938  12.871  21.330  0.00  0.00    +0.000 A 
ENDROOT
BRANCH   1  10
ATOM      6  C   UNL     1      -2.949   9.909  15.596  0.00  0.00    +0.000 C 
ATOM      7  C   UNL     1      -2.404  10.393  16.907  0.00  0.00    +0.000 A 
ATOM      8  C   UNL     1      -1.143   9.996  17.352  0.00  0.00    +0.000 A 
ATOM      9  C   UNL     1      -0.642  10.466  18.570  0.00  0.00    +0.000 A 
ATOM     10  C   UNL     1      -1.424  11.277  19.404  0.00  0.00    +0.000 A 
ATOM     11  C   UNL     1      -2.677  11.694  18.944  0.00  0.00    +0.000 A 
ATOM     12  C   UNL     1      -3.152  11.271  17.698  0.00  0.00    +0.000 A 
ENDBRANCH   1  10
BRANCH   5  13
ATOM     13  C   UNL     1      -1.287  14.190  20.741  0.00  0.00    +0.000 A 
ATOM     14  C   UNL     1      -2.472  14.880  21.024  0.00  0.00    +0.000 A 
ATOM     15  C   UNL     1      -2.635  16.172  20.548  0.00  0.00    +0.000 A 
ATOM     16  N   UNL     1      -1.747  16.788  19.741  0.00  0.00    +0.000 NA
ATOM     17  C   UNL     1      -0.658  16.078  19.392  0.00  0.00    +0.000 A 
ATOM     18  C   UNL     1      -0.389  14.797  19.866  0.00  0.00    +0.000 A 
ENDBRANCH   5  13
BRANCH   2  19
ATOM     19  S   UNL     1      -0.450   8.990  21.612  0.00  0.00    +0.000 S 
BRANCH  19  20
ATOM     20  C   UNL     1       1.324   8.567  21.690  0.00  0.00    +0.000 C 
BRANCH  20  21
ATOM     21  C   UNL     1       1.671   7.598  20.597  0.00  0.00    +0.000 A 
ATOM     22  N   UNL     1       1.685   6.278  20.576  0.00  0.00    +0.000 NA
ATOM     23  C   UNL     1       2.149   5.995  19.297  0.00  0.00    +0.000 A 
ATOM     24  N   UNL     1       2.381   7.097  18.562  0.00  0.00    +0.000 NA
ATOM     25  O   UNL     1       2.065   8.149  19.414  0.00  0.00    +0.000 OA
BRANCH  23  26
ATOM     26  C   UNL     1       2.395   4.634  18.798  0.00  0.00    +0.000 A 
ATOM     27  C   UNL     1       1.604   3.553  19.211  0.00  0.00    +0.000 A 
ATOM     28  C   UNL     1       1.860   2.255  18.743  0.00  0.00    +0.000 A 
ATOM     29  C   UNL     1       2.913   2.023  17.853  0.00  0.00    +0.000 A 
ATOM     30  C   UNL     1       3.704   3.083  17.432  0.00  0.00    +0.000 A 
ATOM     31  C   UNL     1       3.448   4.379  17.897  0.00  0.00    +0.000 A 
ENDBRANCH  23  26
ENDBRANCH  20  21
ENDBRANCH  19  20
ENDBRANCH   2  19
TORSDOF 6
ENDMDL
MODEL 4
REMARK VINA RESULT:      -8.0      2.234      4.569
REMARK  Name = 
REMARK  7 active torsions:
REMARK  status: ('A' for Active; 'I' for Inactive)
REMARK    1  A    between atoms: C_1  and  C_2
REMARK    2  A    between atoms: C_5  and  N_6
REMARK    3  A    between atoms: C_7  and  S_8
REMARK    4  A    between atoms: S_8  and  C_9
REMARK    5  A    between atoms: C_9  and  C_10
REMARK    6  A    between atoms: C_12  and  C_13
REMARK    7  A    between atoms: C_23  and  C_24
REMARK                            x       y       z     vdW  Elec       q    Type
REMARK                         _______ _______ _______ _____ _____    ______ ____
ROOT
ATOM      1  N   UNL     1       4.530   5.505  18.671  0.00  0.00    +0.000 N 
ATOM      2  C   UNL     1       5.885   5.539  18.296  0.00  0.00    +0.000 A 
ATOM      3  N   UNL     1       6.442   4.373  18.504  0.00  0.00    +0.000 NA
ATOM      4  N   UNL     1       5.491   3.536  19.021  0.00  0.00    +0.000 NA
ATOM      5  C   UNL     1       4.348   4.191  19.156  0.00  0.00    +0.000 A 
ENDROOT
BRANCH   1  10
ATOM      6  C   UNL     1       0.927   9.979  18.541  0.00  0.00    +0.000 C 
ATOM      7  C   UNL     1       1.820   8.775  18.561  0.00  0.00    +0.000 A 
ATOM      8  C   UNL     1       1.899   7.957  19.688  0.00  0.00    +0.000 A 
ATOM      9  C   UNL     1       2.726   6.830  19.688  0.00  0.00    +0.000 A 
ATOM     10  C   UNL     1       3.551   6.544  18.592  0.00  0.00    +0.000 A 
ATOM     11  C   UNL     1       3.451   7.350  17.453  0.00  0.00    +0.000 A 
ATOM     12  C   UNL     1       2.578   8.443  17.433  0.00  0.00    +0.000 A 
ENDBRANCH   1  10
BRANCH   5  13
ATOM     13  C   UNL     1       3.128   3.577  19.737  0.00  0.00    +0.000 A 
ATOM     14  C   UNL     1       2.919   3.408  21.111  0.00  0.00    +0.000 A 
ATOM     15  C   UNL     1       1.682   2.968  21.561  0.00  0.00    +0.000 A 
ATOM     16  N   UNL     1       0.677   2.602  20.741  0.00  0.00    +0.000 NA
ATOM     17  C   UNL     1       0.922   2.671  19.419  0.00  0.00    +0.000 A 
ATOM     18  C   UNL     1       2.114   3.150  18.881  0.00  0.00    +0.000 A 
ENDBRANCH   5  13
BRANCH   2  19
ATOM     19  S   UNL     1       6.669   6.877  17.487  0.00  0.00    +0.000 S 
BRANCH  19  20
ATOM     20  C   UNL     1       8.066   7.322  18.574  0.00  0.00    +0.000 C 
BRANCH  20  21
ATOM     21  C   UNL     1       8.409   8.773  18.403  0.00  0.00    +0.000 A 
ATOM     22  N   UNL     1       9.346   9.518  18.960  0.00  0.00    +0.000 NA
ATOM     23  C   UNL     1       9.096  10.778  18.428  0.00  0.00    +0.000 A 
ATOM     24  N   UNL     1       8.068  10.792  17.563  0.00  0.00    +0.000 NA
ATOM     25  O   UNL     1       7.619   9.477  17.543  0.00  0.00    +0.000 OA
BRANCH  23  26
ATOM     26  C   UNL     1       9.853  11.985  18.792  0.00  0.00    +0.000 A 
ATOM     27  C   UNL     1      10.652  12.024  19.944  0.00  0.00    +0.000 A 
ATOM     28  C   UNL     1      11.355  13.187  20.292  0.00  0.00    +0.000 A 
ATOM     29  C   UNL     1      11.267  14.328  19.488  0.00  0.00    +0.000 A 
ATOM     30  C   UNL     1      10.483  14.305  18.343  0.00  0.00    +0.000 A 
ATOM     31  C   UNL     1       9.783  13.143  17.994  0.00  0.00    +0.000 A 
ENDBRANCH  23  26
ENDBRANCH  20  21
ENDBRANCH  19  20
ENDBRANCH   2  19
TORSDOF 6
ENDMDL
MODEL 5
REMARK VINA RESULT:      -8.0      2.637      7.553
REMARK  Name = 
REMARK  7 active torsions:
REMARK  status: ('A' for Active; 'I' for Inactive)
REMARK    1  A    between atoms: C_1  and  C_2
REMARK    2  A    between atoms: C_5  and  N_6
REMARK    3  A    between atoms: C_7  and  S_8
REMARK    4  A    between atoms: S_8  and  C_9
REMARK    5  A    between atoms: C_9  and  C_10
REMARK    6  A    between atoms: C_12  and  C_13
REMARK    7  A    between atoms: C_23  and  C_24
REMARK                            x       y       z     vdW  Elec       q    Type
REMARK                         _______ _______ _______ _____ _____    ______ ____
ROOT
ATOM      1  N   UNL     1       5.448   4.859  17.196  0.00  0.00    +0.000 N 
ATOM      2  C   UNL     1       4.528   4.278  18.087  0.00  0.00    +0.000 A 
ATOM      3  N   UNL     1       3.928   3.262  17.519  0.00  0.00    +0.000 NA
ATOM      4  N   UNL     1       4.421   3.137  16.247  0.00  0.00    +0.000 NA
ATOM      5  C   UNL     1       5.309   4.091  16.019  0.00  0.00    +0.000 A 
ENDROOT
BRANCH   1  10
ATOM      6  C   UNL     1       8.708   9.423  18.449  0.00  0.00    +0.000 C 
ATOM      7  C   UNL     1       7.886   8.228  18.068  0.00  0.00    +0.000 A 
ATOM      8  C   UNL     1       6.763   8.357  17.252  0.00  0.00    +0.000 A 
ATOM      9  C   UNL     1       6.014   7.232  16.894  0.00  0.00    +0.000 A 
ATOM     10  C   UNL     1       6.325   5.967  17.411  0.00  0.00    +0.000 A 
ATOM     11  C   UNL     1       7.467   5.835  18.208  0.00  0.00    +0.000 A 
ATOM     12  C   UNL     1       8.250   6.953  18.517  0.00  0.00    +0.000 A 
ENDBRANCH   1  10
BRANCH   5  13
ATOM     13  C   UNL     1       5.994   4.263  14.713  0.00  0.00    +0.000 A 
ATOM     14  C   UNL     1       7.152   5.030  14.535  0.00  0.00    +0.000 A 
ATOM     15  C   UNL     1       7.803   5.001  13.310  0.00  0.00    +0.000 A 
ATOM     16  N   UNL     1       7.336   4.340  12.232  0.00  0.00    +0.000 NA
ATOM     17  C   UNL     1       6.168   3.689  12.384  0.00  0.00    +0.000 A 
ATOM     18  C   UNL     1       5.476   3.620  13.590  0.00  0.00    +0.000 A 
ENDBRANCH   5  13
BRANCH   2  19
ATOM     19  S   UNL     1       4.345   4.716  19.770  0.00  0.00    +0.000 S 
BRANCH  19  20
ATOM     20  C   UNL     1       2.541   4.792  20.036  0.00  0.00    +0.000 C 
BRANCH  20  21
ATOM     21  C   UNL     1       2.099   6.221  20.159  0.00  0.00    +0.000 A 
ATOM     22  N   UNL     1       1.334   6.823  21.052  0.00  0.00    +0.000 NA
ATOM     23  C   UNL     1       1.264   8.125  20.571  0.00  0.00    +0.000 A 
ATOM     24  N   UNL     1       1.980   8.314  19.449  0.00  0.00    +0.000 NA
ATOM     25  O   UNL     1       2.530   7.066  19.180  0.00  0.00    +0.000 OA
BRANCH  23  26
ATOM     26  C   UNL     1       0.468   9.188  21.200  0.00  0.00    +0.000 A 
ATOM     27  C   UNL     1       0.000  10.283  20.460  0.00  0.00    +0.000 A 
ATOM     28  C   UNL     1      -0.744  11.302  21.075  0.00  0.00    +0.000 A 
ATOM     29  C   UNL     1      -1.030  11.236  22.442  0.00  0.00    +0.000 A 
ATOM     30  C   UNL     1      -0.578  10.157  23.189  0.00  0.00    +0.000 A 
ATOM     31  C   UNL     1       0.163   9.139  22.575  0.00  0.00    +0.000 A 
ENDBRANCH  23  26
ENDBRANCH  20  21
ENDBRANCH  19  20
ENDBRANCH   2  19
TORSDOF 6
ENDMDL
MODEL 6
REMARK VINA RESULT:      -8.0      2.181      4.503
REMARK  Name = 
REMARK  7 active torsions:
REMARK  status: ('A' for Active; 'I' for Inactive)
REMARK    1  A    between atoms: C_1  and  C_2
REMARK    2  A    between atoms: C_5  and  N_6
REMARK    3  A    between atoms: C_7  and  S_8
REMARK    4  A    between atoms: S_8  and  C_9
REMARK    5  A    between atoms: C_9  and  C_10
REMARK    6  A    between atoms: C_12  and  C_13
REMARK    7  A    between atoms: C_23  and  C_24
REMARK                            x       y       z     vdW  Elec       q    Type
REMARK                         _______ _______ _______ _____ _____    ______ ____
ROOT
ATOM      1  N   UNL     1       4.038   6.002  18.287  0.00  0.00    +0.000 N 
ATOM      2  C   UNL     1       5.357   6.170  17.829  0.00  0.00    +0.000 A 
ATOM      3  N   UNL     1       5.948   5.007  17.717  0.00  0.00    +0.000 NA
ATOM      4  N   UNL     1       5.055   4.040  18.093  0.00  0.00    +0.000 NA
ATOM      5  C   UNL     1       3.917   4.607  18.463  0.00  0.00    +0.000 A 
ENDROOT
BRANCH   1  10
ATOM      6  C   UNL     1       0.380  10.290  19.407  0.00  0.00    +0.000 C 
ATOM      7  C   UNL     1       1.286   9.134  19.106  0.00  0.00    +0.000 A 
ATOM      8  C   UNL     1       1.604   8.194  20.087  0.00  0.00    +0.000 A 
ATOM      9  C   UNL     1       2.440   7.114  19.788  0.00  0.00    +0.000 A 
ATOM     10  C   UNL     1       3.040   6.997  18.527  0.00  0.00    +0.000 A 
ATOM     11  C   UNL     1       2.700   7.926  17.538  0.00  0.00    +0.000 A 
ATOM     12  C   UNL     1       1.816   8.973  17.821  0.00  0.00    +0.000 A 
ENDBRANCH   1  10
BRANCH   5  13
ATOM     13  C   UNL     1       2.758   3.833  18.975  0.00  0.00    +0.000 A 
ATOM     14  C   UNL     1       1.680   3.426  18.179  0.00  0.00    +0.000 A 
ATOM     15  C   UNL     1       0.724   2.575  18.715  0.00  0.00    +0.000 A 
ATOM     16  N   UNL     1       0.718   2.176  20.002  0.00  0.00    +0.000 NA
ATOM     17  C   UNL     1       1.702   2.655  20.786  0.00  0.00    +0.000 A 
ATOM     18  C   UNL     1       2.730   3.469  20.320  0.00  0.00    +0.000 A 
ENDBRANCH   5  13
BRANCH   2  19
ATOM     19  S   UNL     1       6.052   7.685  17.299  0.00  0.00    +0.000 S 
BRANCH  19  20
ATOM     20  C   UNL     1       7.834   7.531  17.664  0.00  0.00    +0.000 C 
BRANCH  20  21
ATOM     21  C   UNL     1       8.385   8.856  18.104  0.00  0.00    +0.000 A 
ATOM     22  N   UNL     1       8.450  10.022  17.486  0.00  0.00    +0.000 NA
ATOM     23  C   UNL     1       9.121  10.821  18.403  0.00  0.00    +0.000 A 
ATOM     24  N   UNL     1       9.426  10.176  19.543  0.00  0.00    +0.000 NA
ATOM     25  O   UNL     1       8.941   8.888  19.348  0.00  0.00    +0.000 OA
BRANCH  23  26
ATOM     26  C   UNL     1       9.492  12.221  18.152  0.00  0.00    +0.000 A 
ATOM     27  C   UNL     1       8.713  13.280  18.639  0.00  0.00    +0.000 A 
ATOM     28  C   UNL     1       9.066  14.612  18.376  0.00  0.00    +0.000 A 
ATOM     29  C   UNL     1      10.208  14.901  17.623  0.00  0.00    +0.000 A 
ATOM     30  C   UNL     1      10.993  13.865  17.136  0.00  0.00    +0.000 A 
ATOM     31  C   UNL     1      10.641  12.535  17.400  0.00  0.00    +0.000 A 
ENDBRANCH  23  26
ENDBRANCH  20  21
ENDBRANCH  19  20
ENDBRANCH   2  19
TORSDOF 6
ENDMDL
MODEL 7
REMARK VINA RESULT:      -8.0      4.145      7.779
REMARK  Name = 
REMARK  7 active torsions:
REMARK  status: ('A' for Active; 'I' for Inactive)
REMARK    1  A    between atoms: C_1  and  C_2
REMARK    2  A    between atoms: C_5  and  N_6
REMARK    3  A    between atoms: C_7  and  S_8
REMARK    4  A    between atoms: S_8  and  C_9
REMARK    5  A    between atoms: C_9  and  C_10
REMARK    6  A    between atoms: C_12  and  C_13
REMARK    7  A    between atoms: C_23  and  C_24
REMARK                            x       y       z     vdW  Elec       q    Type
REMARK                         _______ _______ _______ _____ _____    ______ ____
ROOT
ATOM      1  N   UNL     1      -0.849  11.507  20.541  0.00  0.00    +0.000 N 
ATOM      2  C   UNL     1      -0.338  10.565  21.452  0.00  0.00    +0.000 A 
ATOM      3  N   UNL     1       0.113  11.169  22.522  0.00  0.00    +0.000 NA
ATOM      4  N   UNL     1      -0.076  12.515  22.360  0.00  0.00    +0.000 NA
ATOM      5  C   UNL     1      -0.624  12.747  21.177  0.00  0.00    +0.000 A 
ENDROOT
BRANCH   1  10
ATOM      6  C   UNL     1      -3.489  10.211  15.604  0.00  0.00    +0.000 C 
ATOM      7  C   UNL     1      -2.767  10.591  16.862  0.00  0.00    +0.000 A 
ATOM      8  C   UNL     1      -1.502  10.078  17.149  0.00  0.00    +0.000 A 
ATOM      9  C   UNL     1      -0.836  10.452  18.320  0.00  0.00    +0.000 A 
ATOM     10  C   UNL     1      -1.454  11.282  19.265  0.00  0.00    +0.000 A 
ATOM     11  C   UNL     1      -2.711  11.816  18.963  0.00  0.00    +0.000 A 
ATOM     12  C   UNL     1      -3.352  11.488  17.764  0.00  0.00    +0.000 A 
ENDBRANCH   1  10
BRANCH   5  13
ATOM     13  C   UNL     1      -0.913  14.114  20.674  0.00  0.00    +0.000 A 
ATOM     14  C   UNL     1      -0.143  14.766  19.703  0.00  0.00    +0.000 A 
ATOM     15  C   UNL     1      -0.585  15.976  19.187  0.00  0.00    +0.000 A 
ATOM     16  N   UNL     1      -1.683  16.620  19.631  0.00  0.00    +0.000 NA
ATOM     17  C   UNL     1      -2.360  16.034  20.635  0.00  0.00    +0.000 A 
ATOM     18  C   UNL     1      -2.020  14.797  21.175  0.00  0.00    +0.000 A 
ENDBRANCH   5  13
BRANCH   2  19
ATOM     19  S   UNL     1      -0.462   8.829  21.277  0.00  0.00    +0.000 S 
BRANCH  19  20
ATOM     20  C   UNL     1       1.242   8.217  21.506  0.00  0.00    +0.000 C 
BRANCH  20  21
ATOM     21  C   UNL     1       1.833   7.832  20.180  0.00  0.00    +0.000 A 
ATOM     22  N   UNL     1       2.515   6.764  19.808  0.00  0.00    +0.000 NA
ATOM     23  C   UNL     1       2.820   7.041  18.480  0.00  0.00    +0.000 A 
ATOM     24  N   UNL     1       2.320   8.214  18.056  0.00  0.00    +0.000 NA
ATOM     25  O   UNL     1       1.669   8.732  19.170  0.00  0.00    +0.000 OA
BRANCH  23  26
ATOM     26  C   UNL     1       3.632   6.161  17.627  0.00  0.00    +0.000 A 
ATOM     27  C   UNL     1       4.613   6.681  16.770  0.00  0.00    +0.000 A 
ATOM     28  C   UNL     1       5.369   5.833  15.946  0.00  0.00    +0.000 A 
ATOM     29  C   UNL     1       5.153   4.452  15.971  0.00  0.00    +0.000 A 
ATOM     30  C   UNL     1       4.188   3.921  16.816  0.00  0.00    +0.000 A 
ATOM     31  C   UNL     1       3.435   4.766  17.640  0.00  0.00    +0.000 A 
ENDBRANCH  23  26
ENDBRANCH  20  21
ENDBRANCH  19  20
ENDBRANCH   2  19
TORSDOF 6
ENDMDL
MODEL 8
REMARK VINA RESULT:      -7.9      2.627      7.432
REMARK  Name = 
REMARK  7 active torsions:
REMARK  status: ('A' for Active; 'I' for Inactive)
REMARK    1  A    between atoms: C_1  and  C_2
REMARK    2  A    between atoms: C_5  and  N_6
REMARK    3  A    between atoms: C_7  and  S_8
REMARK    4  A    between atoms: S_8  and  C_9
REMARK    5  A    between atoms: C_9  and  C_10
REMARK    6  A    between atoms: C_12  and  C_13
REMARK    7  A    between atoms: C_23  and  C_24
REMARK                            x       y       z     vdW  Elec       q    Type
REMARK                         _______ _______ _______ _____ _____    ______ ____
ROOT
ATOM      1  N   UNL     1       5.300   4.644  17.354  0.00  0.00    +0.000 N 
ATOM      2  C   UNL     1       4.420   3.947  18.202  0.00  0.00    +0.000 A 
ATOM      3  N   UNL     1       3.939   2.896  17.589  0.00  0.00    +0.000 NA
ATOM      4  N   UNL     1       4.472   2.859  16.329  0.00  0.00    +0.000 NA
ATOM      5  C   UNL     1       5.267   3.903  16.152  0.00  0.00    +0.000 A 
ENDROOT
BRANCH   1  10
ATOM      6  C   UNL     1       8.597   9.301  18.038  0.00  0.00    +0.000 C 
ATOM      7  C   UNL     1       7.714   8.094  17.916  0.00  0.00    +0.000 A 
ATOM      8  C   UNL     1       8.097   6.866  18.454  0.00  0.00    +0.000 A 
ATOM      9  C   UNL     1       7.257   5.753  18.345  0.00  0.00    +0.000 A 
ATOM     10  C   UNL     1       6.058   5.826  17.624  0.00  0.00    +0.000 A 
ATOM     11  C   UNL     1       5.664   7.064  17.107  0.00  0.00    +0.000 A 
ATOM     12  C   UNL     1       6.478   8.191  17.269  0.00  0.00    +0.000 A 
ENDBRANCH   1  10
BRANCH   5  13
ATOM     13  C   UNL     1       5.964   4.181  14.871  0.00  0.00    +0.000 A 
ATOM     14  C   UNL     1       7.104   4.987  14.762  0.00  0.00    +0.000 A 
ATOM     15  C   UNL     1       7.771   5.059  13.548  0.00  0.00    +0.000 A 
ATOM     16  N   UNL     1       7.335   4.462  12.421  0.00  0.00    +0.000 NA
ATOM     17  C   UNL     1       6.183   3.773  12.511  0.00  0.00    +0.000 A 
ATOM     18  C   UNL     1       5.477   3.604  13.699  0.00  0.00    +0.000 A 
ENDBRANCH   5  13
BRANCH   2  19
ATOM     19  S   UNL     1       4.153   4.313  19.891  0.00  0.00    +0.000 S 
BRANCH  19  20
ATOM     20  C   UNL     1       2.349   4.547  20.035  0.00  0.00    +0.000 C 
BRANCH  20  21
ATOM     21  C   UNL     1       2.027   6.008  20.160  0.00  0.00    +0.000 A 
ATOM     22  N   UNL     1       1.348   6.675  21.075  0.00  0.00    +0.000 NA
ATOM     23  C   UNL     1       1.364   7.975  20.584  0.00  0.00    +0.000 A 
ATOM     24  N   UNL     1       2.050   8.098  19.434  0.00  0.00    +0.000 NA
ATOM     25  O   UNL     1       2.487   6.808  19.157  0.00  0.00    +0.000 OA
BRANCH  23  26
ATOM     26  C   UNL     1       0.680   9.103  21.232  0.00  0.00    +0.000 A 
ATOM     27  C   UNL     1       0.077   8.964  22.491  0.00  0.00    +0.000 A 
ATOM     28  C   UNL     1      -0.590  10.042  23.092  0.00  0.00    +0.000 A 
ATOM     29  C   UNL     1      -0.662  11.277  22.439  0.00  0.00    +0.000 A 
ATOM     30  C   UNL     1      -0.067  11.433  21.194  0.00  0.00    +0.000 A 
ATOM     31  C   UNL     1       0.601  10.357  20.595  0.00  0.00    +0.000 A 
ENDBRANCH  23  26
ENDBRANCH  20  21
ENDBRANCH  19  20
ENDBRANCH   2  19
TORSDOF 6
ENDMDL
MODEL 9
REMARK VINA RESULT:      -7.9      2.197      4.495
REMARK  Name = 
REMARK  7 active torsions:
REMARK  status: ('A' for Active; 'I' for Inactive)
REMARK    1  A    between atoms: C_1  and  C_2
REMARK    2  A    between atoms: C_5  and  N_6
REMARK    3  A    between atoms: C_7  and  S_8
REMARK    4  A    between atoms: S_8  and  C_9
REMARK    5  A    between atoms: C_9  and  C_10
REMARK    6  A    between atoms: C_12  and  C_13
REMARK    7  A    between atoms: C_23  and  C_24
REMARK                            x       y       z     vdW  Elec       q    Type
REMARK                         _______ _______ _______ _____ _____    ______ ____
ROOT
ATOM      1  N   UNL     1       4.251   5.715  18.220  0.00  0.00    +0.000 N 
ATOM      2  C   UNL     1       5.559   5.713  17.703  0.00  0.00    +0.000 A 
ATOM      3  N   UNL     1       5.995   4.484  17.579  0.00  0.00    +0.000 NA
ATOM      4  N   UNL     1       5.005   3.640  18.007  0.00  0.00    +0.000 NA
ATOM      5  C   UNL     1       3.965   4.347  18.418  0.00  0.00    +0.000 A 
ENDROOT
BRANCH   1  10
ATOM      6  C   UNL     1       0.450   9.927  19.135  0.00  0.00    +0.000 C 
ATOM      7  C   UNL     1       1.487   8.868  18.908  0.00  0.00    +0.000 A 
ATOM      8  C   UNL     1       2.148   8.758  17.685  0.00  0.00    +0.000 A 
ATOM      9  C   UNL     1       3.122   7.774  17.492  0.00  0.00    +0.000 A 
ATOM     10  C   UNL     1       3.397   6.829  18.490  0.00  0.00    +0.000 A 
ATOM     11  C   UNL     1       2.751   6.956  19.724  0.00  0.00    +0.000 A 
ATOM     12  C   UNL     1       1.820   7.979  19.936  0.00  0.00    +0.000 A 
ENDBRANCH   1  10
BRANCH   5  13
ATOM     13  C   UNL     1       2.741   3.728  18.989  0.00  0.00    +0.000 A 
ATOM     14  C   UNL     1       1.635   3.338  18.224  0.00  0.00    +0.000 A 
ATOM     15  C   UNL     1       0.609   2.628  18.829  0.00  0.00    +0.000 A 
ATOM     16  N   UNL     1       0.563   2.360  20.149  0.00  0.00    +0.000 NA
ATOM     17  C   UNL     1       1.582   2.828  20.894  0.00  0.00    +0.000 A 
ATOM     18  C   UNL     1       2.678   3.502  20.363  0.00  0.00    +0.000 A 
ENDBRANCH   5  13
BRANCH   2  19
ATOM     19  S   UNL     1       6.414   7.125  17.125  0.00  0.00    +0.000 S 
BRANCH  19  20
ATOM     20  C   UNL     1       7.835   7.303  18.256  0.00  0.00    +0.000 C 
BRANCH  20  21
ATOM     21  C   UNL     1       8.305   8.729  18.270  0.00  0.00    +0.000 A 
ATOM     22  N   UNL     1       9.252   9.326  18.971  0.00  0.00    +0.000 NA
ATOM     23  C   UNL     1       9.146  10.651  18.565  0.00  0.00    +0.000 A 
ATOM     24  N   UNL     1       8.194  10.846  17.636  0.00  0.00    +0.000 NA
ATOM     25  O   UNL     1       7.644   9.584  17.440  0.00  0.00    +0.000 OA
BRANCH  23  26
ATOM     26  C   UNL     1       9.966  11.742  19.111  0.00  0.00    +0.000 A 
ATOM     27  C   UNL     1       9.389  12.956  19.512  0.00  0.00    +0.000 A 
ATOM     28  C   UNL     1      10.183  13.998  20.015  0.00  0.00    +0.000 A 
ATOM     29  C   UNL     1      11.568  13.837  20.124  0.00  0.00    +0.000 A 
ATOM     30  C   UNL     1      12.155  12.640  19.734  0.00  0.00    +0.000 A 
ATOM     31  C   UNL     1      11.362  11.600  19.235  0.00  0.00    +0.000 A 
ENDBRANCH  23  26
ENDBRANCH  20  21
ENDBRANCH  19  20
ENDBRANCH   2  19
TORSDOF 6
ENDMDL
