MODEL 1
REMARK VINA RESULT:      -7.5      0.000      0.000
REMARK  Name = 
REMARK  6 active torsions:
REMARK  status: ('A' for Active; 'I' for Inactive)
REMARK    1  A    between atoms: C_1  and  N_2
REMARK    2  A    between atoms: N_2  and  C_3
REMARK    3  A    between atoms: N_2  and  S_15
REMARK    4  A    between atoms: C_3  and  C_4
REMARK    5  A    between atoms: C_13  and  O_14
REMARK    6  A    between atoms: S_15  and  C_18
REMARK                            x       y       z     vdW  Elec       q    Type
REMARK                         _______ _______ _______ _____ _____    ______ ____
ROOT
ATOM      1  C   UNL     1       3.251   5.448  19.768  0.00  0.00    +0.000 C 
ENDROOT
BRANCH   1   2
ATOM      2  C   UNL     1       2.619   6.795  19.515  0.00  0.00    +0.000 A 
ATOM      3  C   UNL     1       1.791   7.400  20.462  0.00  0.00    +0.000 A 
ATOM      4  C   UNL     1       1.162   8.619  20.175  0.00  0.00    +0.000 A 
ATOM      5  C   UNL     1       0.287   9.226  21.093  0.00  0.00    +0.000 A 
ATOM      6  C   UNL     1      -0.401  10.385  20.745  0.00  0.00    +0.000 A 
ATOM      7  C   UNL     1      -0.190  10.961  19.497  0.00  0.00    +0.000 A 
ATOM      8  C   UNL     1       0.725  10.386  18.609  0.00  0.00    +0.000 A 
ATOM      9  C   UNL     1       1.403   9.213  18.917  0.00  0.00    +0.000 A 
ATOM     10  N   UNL     1       2.238   8.668  18.014  0.00  0.00    +0.000 NA
ATOM     11  C   UNL     1       2.801   7.490  18.333  0.00  0.00    +0.000 A 
BRANCH  11  12
ATOM     12  O   UNL     1       3.612   7.014  17.356  0.00  0.00    +0.000 OA
ATOM     13  H   UNL     1       2.963   6.899  16.638  0.00  0.00    +0.000 HD
ENDBRANCH  11  12
ENDBRANCH   1   2
BRANCH   1  15
ATOM     14  C   UNL     1       1.529   3.778  19.206  0.00  0.00    +0.000 C 
ATOM     15  N   UNL     1       2.821   4.386  18.797  0.00  0.00    +0.000 NA
BRANCH  15  16
ATOM     16  S   UNL     1       4.039   3.196  18.536  0.00  0.00    +0.000 S 
ATOM     17  O   UNL     1       4.748   2.988  19.778  0.00  0.00    +0.000 OA
ATOM     18  O   UNL     1       3.411   2.085  17.836  0.00  0.00    +0.000 OA
BRANCH  16  19
ATOM     19  C   UNL     1       5.171   3.981  17.406  0.00  0.00    +0.000 A 
ATOM     20  C   UNL     1       4.854   4.020  16.044  0.00  0.00    +0.000 A 
ATOM     21  C   UNL     1       5.740   4.619  15.148  0.00  0.00    +0.000 A 
ATOM     22  C   UNL     1       6.933   5.183  15.609  0.00  0.00    +0.000 A 
ATOM     23  C   UNL     1       7.235   5.165  16.972  0.00  0.00    +0.000 A 
ATOM     24  C   UNL     1       6.353   4.569  17.876  0.00  0.00    +0.000 A 
ENDBRANCH  16  19
ENDBRANCH  15  16
ENDBRANCH   1  15
TORSDOF 5
ENDMDL
MODEL 2
REMARK VINA RESULT:      -7.5      0.043      1.012
REMARK  Name = 
REMARK  6 active torsions:
REMARK  status: ('A' for Active; 'I' for Inactive)
REMARK    1  A    between atoms: C_1  and  N_2
REMARK    2  A    between atoms: N_2  and  C_3
REMARK    3  A    between atoms: N_2  and  S_15
REMARK    4  A    between atoms: C_3  and  C_4
REMARK    5  A    between atoms: C_13  and  O_14
REMARK    6  A    between atoms: S_15  and  C_18
REMARK                            x       y       z     vdW  Elec       q    Type
REMARK                         _______ _______ _______ _____ _____    ______ ____
ROOT
ATOM      1  C   UNL     1       3.296   5.495  19.745  0.00  0.00    +0.000 C 
ENDROOT
BRANCH   1   2
ATOM      2  C   UNL     1       2.646   6.833  19.489  0.00  0.00    +0.000 A 
ATOM      3  C   UNL     1       1.811   7.430  20.435  0.00  0.00    +0.000 A 
ATOM      4  C   UNL     1       1.167   8.641  20.145  0.00  0.00    +0.000 A 
ATOM      5  C   UNL     1       0.285   9.239  21.061  0.00  0.00    +0.000 A 
ATOM      6  C   UNL     1      -0.418  10.388  20.710  0.00  0.00    +0.000 A 
ATOM      7  C   UNL     1      -0.215  10.963  19.461  0.00  0.00    +0.000 A 
ATOM      8  C   UNL     1       0.707  10.397  18.574  0.00  0.00    +0.000 A 
ATOM      9  C   UNL     1       1.400   9.234  18.885  0.00  0.00    +0.000 A 
ATOM     10  N   UNL     1       2.241   8.697  17.983  0.00  0.00    +0.000 NA
ATOM     11  C   UNL     1       2.819   7.526  18.305  0.00  0.00    +0.000 A 
BRANCH  11  12
ATOM     12  O   UNL     1       3.636   7.059  17.329  0.00  0.00    +0.000 OA
ATOM     13  H   UNL     1       4.495   7.376  17.662  0.00  0.00    +0.000 HD
ENDBRANCH  11  12
ENDBRANCH   1   2
BRANCH   1  15
ATOM     14  C   UNL     1       1.559   3.816  19.257  0.00  0.00    +0.000 C 
ATOM     15  N   UNL     1       2.843   4.413  18.807  0.00  0.00    +0.000 NA
BRANCH  15  16
ATOM     16  S   UNL     1       4.054   3.216  18.545  0.00  0.00    +0.000 S 
ATOM     17  O   UNL     1       4.774   3.016  19.782  0.00  0.00    +0.000 OA
ATOM     18  O   UNL     1       3.414   2.100  17.862  0.00  0.00    +0.000 OA
BRANCH  16  19
ATOM     19  C   UNL     1       5.176   3.986  17.396  0.00  0.00    +0.000 A 
ATOM     20  C   UNL     1       6.374   4.526  17.874  0.00  0.00    +0.000 A 
ATOM     21  C   UNL     1       7.254   5.144  16.986  0.00  0.00    +0.000 A 
ATOM     22  C   UNL     1       6.944   5.218  15.625  0.00  0.00    +0.000 A 
ATOM     23  C   UNL     1       5.758   4.656  15.146  0.00  0.00    +0.000 A 
ATOM     24  C   UNL     1       4.873   4.034  16.028  0.00  0.00    +0.000 A 
ENDBRANCH  16  19
ENDBRANCH  15  16
ENDBRANCH   1  15
TORSDOF 5
ENDMDL
MODEL 3
REMARK VINA RESULT:      -7.5      4.244      5.436
REMARK  Name = 
REMARK  6 active torsions:
REMARK  status: ('A' for Active; 'I' for Inactive)
REMARK    1  A    between atoms: C_1  and  N_2
REMARK    2  A    between atoms: N_2  and  C_3
REMARK    3  A    between atoms: N_2  and  S_15
REMARK    4  A    between atoms: C_3  and  C_4
REMARK    5  A    between atoms: C_13  and  O_14
REMARK    6  A    between atoms: S_15  and  C_18
REMARK                            x       y       z     vdW  Elec       q    Type
REMARK                         _______ _______ _______ _____ _____    ______ ____
ROOT
ATOM      1  C   UNL     1       4.847   4.248  16.408  0.00  0.00    +0.000 C 
ENDROOT
BRANCH   1   2
ATOM      2  C   UNL     1       4.217   3.819  17.711  0.00  0.00    +0.000 A 
ATOM      3  C   UNL     1       2.851   3.546  17.805  0.00  0.00    +0.000 A 
ATOM      4  C   UNL     1       2.279   3.216  19.041  0.00  0.00    +0.000 A 
ATOM      5  C   UNL     1       0.900   2.982  19.171  0.00  0.00    +0.000 A 
ATOM      6  C   UNL     1       0.342   2.753  20.426  0.00  0.00    +0.000 A 
ATOM      7  C   UNL     1       1.163   2.721  21.547  0.00  0.00    +0.000 A 
ATOM      8  C   UNL     1       2.544   2.897  21.406  0.00  0.00    +0.000 A 
ATOM      9  C   UNL     1       3.124   3.156  20.171  0.00  0.00    +0.000 A 
ATOM     10  N   UNL     1       4.450   3.367  20.088  0.00  0.00    +0.000 NA
ATOM     11  C   UNL     1       4.944   3.698  18.881  0.00  0.00    +0.000 A 
BRANCH  11  12
ATOM     12  O   UNL     1       6.284   3.904  18.901  0.00  0.00    +0.000 OA
ATOM     13  H   UNL     1       6.393   4.216  19.818  0.00  0.00    +0.000 HD
ENDBRANCH  11  12
ENDBRANCH   1   2
BRANCH   1  15
ATOM     14  C   UNL     1       4.966   6.638  15.820  0.00  0.00    +0.000 C 
ATOM     15  N   UNL     1       5.648   5.514  16.511  0.00  0.00    +0.000 NA
BRANCH  15  16
ATOM     16  S   UNL     1       7.272   5.314  15.970  0.00  0.00    +0.000 S 
ATOM     17  O   UNL     1       7.915   6.608  15.968  0.00  0.00    +0.000 OA
ATOM     18  O   UNL     1       7.837   4.197  16.712  0.00  0.00    +0.000 OA
BRANCH  16  19
ATOM     19  C   UNL     1       7.098   4.807  14.271  0.00  0.00    +0.000 A 
ATOM     20  C   UNL     1       7.848   5.458  13.287  0.00  0.00    +0.000 A 
ATOM     21  C   UNL     1       7.709   5.079  11.952  0.00  0.00    +0.000 A 
ATOM     22  C   UNL     1       6.830   4.050  11.600  0.00  0.00    +0.000 A 
ATOM     23  C   UNL     1       6.100   3.385  12.588  0.00  0.00    +0.000 A 
ATOM     24  C   UNL     1       6.234   3.757  13.927  0.00  0.00    +0.000 A 
ENDBRANCH  16  19
ENDBRANCH  15  16
ENDBRANCH   1  15
TORSDOF 5
ENDMDL
MODEL 4
REMARK VINA RESULT:      -7.5      4.238      5.400
REMARK  Name = 
REMARK  6 active torsions:
REMARK  status: ('A' for Active; 'I' for Inactive)
REMARK    1  A    between atoms: C_1  and  N_2
REMARK    2  A    between atoms: N_2  and  C_3
REMARK    3  A    between atoms: N_2  and  S_15
REMARK    4  A    between atoms: C_3  and  C_4
REMARK    5  A    between atoms: C_13  and  O_14
REMARK    6  A    between atoms: S_15  and  C_18
REMARK                            x       y       z     vdW  Elec       q    Type
REMARK                         _______ _______ _______ _____ _____    ______ ____
ROOT
ATOM      1  C   UNL     1       4.848   4.266  16.398  0.00  0.00    +0.000 C 
ENDROOT
BRANCH   1   2
ATOM      2  C   UNL     1       4.217   3.833  17.699  0.00  0.00    +0.000 A 
ATOM      3  C   UNL     1       2.850   3.564  17.792  0.00  0.00    +0.000 A 
ATOM      4  C   UNL     1       2.278   3.230  19.027  0.00  0.00    +0.000 A 
ATOM      5  C   UNL     1       0.897   2.999  19.157  0.00  0.00    +0.000 A 
ATOM      6  C   UNL     1       0.340   2.766  20.410  0.00  0.00    +0.000 A 
ATOM      7  C   UNL     1       1.161   2.726  21.531  0.00  0.00    +0.000 A 
ATOM      8  C   UNL     1       2.542   2.899  21.390  0.00  0.00    +0.000 A 
ATOM      9  C   UNL     1       3.123   3.162  20.156  0.00  0.00    +0.000 A 
ATOM     10  N   UNL     1       4.449   3.369  20.074  0.00  0.00    +0.000 NA
ATOM     11  C   UNL     1       4.944   3.704  18.869  0.00  0.00    +0.000 A 
BRANCH  11  12
ATOM     12  O   UNL     1       6.284   3.906  18.889  0.00  0.00    +0.000 OA
ATOM     13  H   UNL     1       6.416   4.257  17.990  0.00  0.00    +0.000 HD
ENDBRANCH  11  12
ENDBRANCH   1   2
BRANCH   1  15
ATOM     14  C   UNL     1       4.974   6.658  15.822  0.00  0.00    +0.000 C 
ATOM     15  N   UNL     1       5.653   5.529  16.507  0.00  0.00    +0.000 NA
BRANCH  15  16
ATOM     16  S   UNL     1       7.275   5.326  15.962  0.00  0.00    +0.000 S 
ATOM     17  O   UNL     1       7.921   6.619  15.961  0.00  0.00    +0.000 OA
ATOM     18  O   UNL     1       7.841   4.208  16.703  0.00  0.00    +0.000 OA
BRANCH  16  19
ATOM     19  C   UNL     1       7.098   4.820  14.264  0.00  0.00    +0.000 A 
ATOM     20  C   UNL     1       6.209   3.787  13.952  0.00  0.00    +0.000 A 
ATOM     21  C   UNL     1       6.072   3.372  12.627  0.00  0.00    +0.000 A 
ATOM     22  C   UNL     1       6.815   3.989  11.616  0.00  0.00    +0.000 A 
ATOM     23  C   UNL     1       7.685   5.037  11.928  0.00  0.00    +0.000 A 
ATOM     24  C   UNL     1       7.826   5.460  13.251  0.00  0.00    +0.000 A 
ENDBRANCH  16  19
ENDBRANCH  15  16
ENDBRANCH   1  15
TORSDOF 5
ENDMDL
MODEL 5
REMARK VINA RESULT:      -7.4      1.387      1.913
REMARK  Name = 
REMARK  6 active torsions:
REMARK  status: ('A' for Active; 'I' for Inactive)
REMARK    1  A    between atoms: C_1  and  N_2
REMARK    2  A    between atoms: N_2  and  C_3
REMARK    3  A    between atoms: N_2  and  S_15
REMARK    4  A    between atoms: C_3  and  C_4
REMARK    5  A    between atoms: C_13  and  O_14
REMARK    6  A    between atoms: S_15  and  C_18
REMARK                            x       y       z     vdW  Elec       q    Type
REMARK                         _______ _______ _______ _____ _____    ______ ____
ROOT
ATOM      1  C   UNL     1       3.029   5.826  19.581  0.00  0.00    +0.000 C 
ENDROOT
BRANCH   1   2
ATOM      2  C   UNL     1       2.303   7.143  19.711  0.00  0.00    +0.000 A 
ATOM      3  C   UNL     1       1.618   7.485  20.879  0.00  0.00    +0.000 A 
ATOM      4  C   UNL     1       0.896   8.683  20.949  0.00  0.00    +0.000 A 
ATOM      5  C   UNL     1       0.160   9.029  22.096  0.00  0.00    +0.000 A 
ATOM      6  C   UNL     1      -0.628  10.177  22.104  0.00  0.00    +0.000 A 
ATOM      7  C   UNL     1      -0.654  11.000  20.984  0.00  0.00    +0.000 A 
ATOM      8  C   UNL     1       0.125  10.683  19.866  0.00  0.00    +0.000 A 
ATOM      9  C   UNL     1       0.897   9.529  19.818  0.00  0.00    +0.000 A 
ATOM     10  N   UNL     1       1.593   9.238  18.705  0.00  0.00    +0.000 NA
ATOM     11  C   UNL     1       2.254   8.067  18.683  0.00  0.00    +0.000 A 
BRANCH  11  12
ATOM     12  O   UNL     1       2.912   7.857  17.516  0.00  0.00    +0.000 OA
ATOM     13  H   UNL     1       2.185   8.003  16.884  0.00  0.00    +0.000 HD
ENDBRANCH  11  12
ENDBRANCH   1   2
BRANCH   1  15
ATOM     14  C   UNL     1       1.725   4.570  17.909  0.00  0.00    +0.000 C 
ATOM     15  N   UNL     1       3.010   5.260  18.189  0.00  0.00    +0.000 NA
BRANCH  15  16
ATOM     16  S   UNL     1       4.368   4.249  17.869  0.00  0.00    +0.000 S 
ATOM     17  O   UNL     1       4.467   3.268  18.925  0.00  0.00    +0.000 OA
ATOM     18  O   UNL     1       4.281   3.842  16.474  0.00  0.00    +0.000 OA
BRANCH  16  19
ATOM     19  C   UNL     1       5.765   5.344  18.029  0.00  0.00    +0.000 A 
ATOM     20  C   UNL     1       6.688   5.122  19.056  0.00  0.00    +0.000 A 
ATOM     21  C   UNL     1       7.777   5.981  19.201  0.00  0.00    +0.000 A 
ATOM     22  C   UNL     1       7.949   7.054  18.321  0.00  0.00    +0.000 A 
ATOM     23  C   UNL     1       7.039   7.259  17.281  0.00  0.00    +0.000 A 
ATOM     24  C   UNL     1       5.947   6.402  17.128  0.00  0.00    +0.000 A 
ENDBRANCH  16  19
ENDBRANCH  15  16
ENDBRANCH   1  15
TORSDOF 5
ENDMDL
MODEL 6
REMARK VINA RESULT:      -7.4      2.991      7.140
REMARK  Name = 
REMARK  6 active torsions:
REMARK  status: ('A' for Active; 'I' for Inactive)
REMARK    1  A    between atoms: C_1  and  N_2
REMARK    2  A    between atoms: N_2  and  C_3
REMARK    3  A    between atoms: N_2  and  S_15
REMARK    4  A    between atoms: C_3  and  C_4
REMARK    5  A    between atoms: C_13  and  O_14
REMARK    6  A    between atoms: S_15  and  C_18
REMARK                            x       y       z     vdW  Elec       q    Type
REMARK                         _______ _______ _______ _____ _____    ______ ____
ROOT
ATOM      1  C   UNL     1       4.696   4.674  17.635  0.00  0.00    +0.000 C 
ENDROOT
BRANCH   1   2
ATOM      2  C   UNL     1       5.470   4.761  16.342  0.00  0.00    +0.000 A 
ATOM      3  C   UNL     1       5.043   4.096  15.191  0.00  0.00    +0.000 A 
ATOM      4  C   UNL     1       5.816   4.138  14.023  0.00  0.00    +0.000 A 
ATOM      5  C   UNL     1       5.432   3.439  12.865  0.00  0.00    +0.000 A 
ATOM      6  C   UNL     1       6.266   3.416  11.751  0.00  0.00    +0.000 A 
ATOM      7  C   UNL     1       7.466   4.118  11.776  0.00  0.00    +0.000 A 
ATOM      8  C   UNL     1       7.817   4.860  12.909  0.00  0.00    +0.000 A 
ATOM      9  C   UNL     1       7.019   4.877  14.046  0.00  0.00    +0.000 A 
ATOM     10  N   UNL     1       7.419   5.564  15.131  0.00  0.00    +0.000 NA
ATOM     11  C   UNL     1       6.649   5.476  16.230  0.00  0.00    +0.000 A 
BRANCH  11  12
ATOM     12  O   UNL     1       7.140   6.189  17.274  0.00  0.00    +0.000 OA
ATOM     13  H   UNL     1       7.356   5.463  17.887  0.00  0.00    +0.000 HD
ENDBRANCH  11  12
ENDBRANCH   1   2
BRANCH   1  15
ATOM     14  C   UNL     1       3.024   6.243  18.537  0.00  0.00    +0.000 C 
ATOM     15  N   UNL     1       3.286   5.183  17.530  0.00  0.00    +0.000 NA
BRANCH  15  16
ATOM     16  S   UNL     1       2.120   3.918  17.607  0.00  0.00    +0.000 S 
ATOM     17  O   UNL     1       0.806   4.496  17.435  0.00  0.00    +0.000 OA
ATOM     18  O   UNL     1       2.588   2.849  16.736  0.00  0.00    +0.000 OA
BRANCH  16  19
ATOM     19  C   UNL     1       2.228   3.336  19.288  0.00  0.00    +0.000 A 
ATOM     20  C   UNL     1       3.394   2.691  19.710  0.00  0.00    +0.000 A 
ATOM     21  C   UNL     1       3.483   2.218  21.020  0.00  0.00    +0.000 A 
ATOM     22  C   UNL     1       2.417   2.394  21.906  0.00  0.00    +0.000 A 
ATOM     23  C   UNL     1       1.263   3.062  21.489  0.00  0.00    +0.000 A 
ATOM     24  C   UNL     1       1.165   3.539  20.180  0.00  0.00    +0.000 A 
ENDBRANCH  16  19
ENDBRANCH  15  16
ENDBRANCH   1  15
TORSDOF 5
ENDMDL
MODEL 7
REMARK VINA RESULT:      -7.4      2.221      3.637
REMARK  Name = 
REMARK  6 active torsions:
REMARK  status: ('A' for Active; 'I' for Inactive)
REMARK    1  A    between atoms: C_1  and  N_2
REMARK    2  A    between atoms: N_2  and  C_3
REMARK    3  A    between atoms: N_2  and  S_15
REMARK    4  A    between atoms: C_3  and  C_4
REMARK    5  A    between atoms: C_13  and  O_14
REMARK    6  A    between atoms: S_15  and  C_18
REMARK                            x       y       z     vdW  Elec       q    Type
REMARK                         _______ _______ _______ _____ _____    ______ ____
ROOT
ATOM      1  C   UNL     1       2.538   6.818  18.130  0.00  0.00    +0.000 C 
ENDROOT
BRANCH   1   2
ATOM      2  C   UNL     1       1.960   7.952  18.942  0.00  0.00    +0.000 A 
ATOM      3  C   UNL     1       1.615   7.785  20.284  0.00  0.00    +0.000 A 
ATOM      4  C   UNL     1       1.017   8.834  20.996  0.00  0.00    +0.000 A 
ATOM      5  C   UNL     1       0.619   8.677  22.335  0.00  0.00    +0.000 A 
ATOM      6  C   UNL     1      -0.061   9.701  22.989  0.00  0.00    +0.000 A 
ATOM      7  C   UNL     1      -0.312  10.895  22.322  0.00  0.00    +0.000 A 
ATOM      8  C   UNL     1       0.138  11.068  21.009  0.00  0.00    +0.000 A 
ATOM      9  C   UNL     1       0.793  10.054  20.321  0.00  0.00    +0.000 A 
ATOM     10  N   UNL     1       1.165  10.247  19.043  0.00  0.00    +0.000 NA
ATOM     11  C   UNL     1       1.718   9.202  18.402  0.00  0.00    +0.000 A 
BRANCH  11  12
ATOM     12  O   UNL     1       2.045   9.489  17.117  0.00  0.00    +0.000 OA
ATOM     13  H   UNL     1       2.911   9.915  17.255  0.00  0.00    +0.000 HD
ENDBRANCH  11  12
ENDBRANCH   1   2
BRANCH   1  15
ATOM     14  C   UNL     1       4.681   7.216  16.981  0.00  0.00    +0.000 C 
ATOM     15  N   UNL     1       4.033   6.712  18.219  0.00  0.00    +0.000 NA
BRANCH  15  16
ATOM     16  S   UNL     1       4.559   5.121  18.620  0.00  0.00    +0.000 S 
ATOM     17  O   UNL     1       4.967   4.454  17.404  0.00  0.00    +0.000 OA
ATOM     18  O   UNL     1       5.471   5.242  19.749  0.00  0.00    +0.000 OA
BRANCH  16  19
ATOM     19  C   UNL     1       3.081   4.313  19.198  0.00  0.00    +0.000 A 
ATOM     20  C   UNL     1       2.316   3.569  18.296  0.00  0.00    +0.000 A 
ATOM     21  C   UNL     1       1.148   2.944  18.734  0.00  0.00    +0.000 A 
ATOM     22  C   UNL     1       0.748   3.056  20.069  0.00  0.00    +0.000 A 
ATOM     23  C   UNL     1       1.528   3.779  20.974  0.00  0.00    +0.000 A 
ATOM     24  C   UNL     1       2.699   4.406  20.544  0.00  0.00    +0.000 A 
ENDBRANCH  16  19
ENDBRANCH  15  16
ENDBRANCH   1  15
TORSDOF 5
ENDMDL
MODEL 8
REMARK VINA RESULT:      -7.3      2.231      3.768
REMARK  Name = 
REMARK  6 active torsions:
REMARK  status: ('A' for Active; 'I' for Inactive)
REMARK    1  A    between atoms: C_1  and  N_2
REMARK    2  A    between atoms: N_2  and  C_3
REMARK    3  A    between atoms: N_2  and  S_15
REMARK    4  A    between atoms: C_3  and  C_4
REMARK    5  A    between atoms: C_13  and  O_14
REMARK    6  A    between atoms: S_15  and  C_18
REMARK                            x       y       z     vdW  Elec       q    Type
REMARK                         _______ _______ _______ _____ _____    ______ ____
ROOT
ATOM      1  C   UNL     1       2.547   6.856  18.127  0.00  0.00    +0.000 C 
ENDROOT
BRANCH   1   2
ATOM      2  C   UNL     1       1.959   7.984  18.939  0.00  0.00    +0.000 A 
ATOM      3  C   UNL     1       1.617   7.815  20.281  0.00  0.00    +0.000 A 
ATOM      4  C   UNL     1       1.010   8.858  20.993  0.00  0.00    +0.000 A 
ATOM      5  C   UNL     1       0.613   8.698  22.332  0.00  0.00    +0.000 A 
ATOM      6  C   UNL     1      -0.076   9.715  22.986  0.00  0.00    +0.000 A 
ATOM      7  C   UNL     1      -0.337  10.906  22.320  0.00  0.00    +0.000 A 
ATOM      8  C   UNL     1       0.111  11.084  21.006  0.00  0.00    +0.000 A 
ATOM      9  C   UNL     1       0.774  10.076  20.319  0.00  0.00    +0.000 A 
ATOM     10  N   UNL     1       1.144  10.272  19.040  0.00  0.00    +0.000 NA
ATOM     11  C   UNL     1       1.706   9.232  18.399  0.00  0.00    +0.000 A 
BRANCH  11  12
ATOM     12  O   UNL     1       2.031   9.522  17.114  0.00  0.00    +0.000 OA
ATOM     13  H   UNL     1       1.548  10.361  17.003  0.00  0.00    +0.000 HD
ENDBRANCH  11  12
ENDBRANCH   1   2
BRANCH   1  15
ATOM     14  C   UNL     1       4.722   7.273  17.046  0.00  0.00    +0.000 C 
ATOM     15  N   UNL     1       4.039   6.735  18.250  0.00  0.00    +0.000 NA
BRANCH  15  16
ATOM     16  S   UNL     1       4.544   5.128  18.613  0.00  0.00    +0.000 S 
ATOM     17  O   UNL     1       4.944   4.485  17.382  0.00  0.00    +0.000 OA
ATOM     18  O   UNL     1       5.457   5.210  19.745  0.00  0.00    +0.000 OA
BRANCH  16  19
ATOM     19  C   UNL     1       3.055   4.326  19.172  0.00  0.00    +0.000 A 
ATOM     20  C   UNL     1       2.682   4.445  20.514  0.00  0.00    +0.000 A 
ATOM     21  C   UNL     1       1.525   3.809  20.966  0.00  0.00    +0.000 A 
ATOM     22  C   UNL     1       0.741   3.063  20.081  0.00  0.00    +0.000 A 
ATOM     23  C   UNL     1       1.104   2.966  18.736  0.00  0.00    +0.000 A 
ATOM     24  C   UNL     1       2.258   3.601  18.275  0.00  0.00    +0.000 A 
ENDBRANCH  16  19
ENDBRANCH  15  16
ENDBRANCH   1  15
TORSDOF 5
ENDMDL
MODEL 9
REMARK VINA RESULT:      -7.3      3.265      7.217
REMARK  Name = 
REMARK  6 active torsions:
REMARK  status: ('A' for Active; 'I' for Inactive)
REMARK    1  A    between atoms: C_1  and  N_2
REMARK    2  A    between atoms: N_2  and  C_3
REMARK    3  A    between atoms: N_2  and  S_15
REMARK    4  A    between atoms: C_3  and  C_4
REMARK    5  A    between atoms: C_13  and  O_14
REMARK    6  A    between atoms: S_15  and  C_18
REMARK                            x       y       z     vdW  Elec       q    Type
REMARK                         _______ _______ _______ _____ _____    ______ ____
ROOT
ATOM      1  C   UNL     1       5.414   5.301  17.630  0.00  0.00    +0.000 C 
ENDROOT
BRANCH   1   2
ATOM      2  C   UNL     1       5.918   5.117  16.219  0.00  0.00    +0.000 A 
ATOM      3  C   UNL     1       5.218   4.345  15.290  0.00  0.00    +0.000 A 
ATOM      4  C   UNL     1       5.742   4.134  14.008  0.00  0.00    +0.000 A 
ATOM      5  C   UNL     1       5.080   3.323  13.070  0.00  0.00    +0.000 A 
ATOM      6  C   UNL     1       5.669   3.051  11.839  0.00  0.00    +0.000 A 
ATOM      7  C   UNL     1       6.900   3.615  11.526  0.00  0.00    +0.000 A 
ATOM      8  C   UNL     1       7.529   4.468  12.440  0.00  0.00    +0.000 A 
ATOM      9  C   UNL     1       6.979   4.735  13.687  0.00  0.00    +0.000 A 
ATOM     10  N   UNL     1       7.641   5.523  14.553  0.00  0.00    +0.000 NA
ATOM     11  C   UNL     1       7.103   5.677  15.776  0.00  0.00    +0.000 A 
BRANCH  11  12
ATOM     12  O   UNL     1       7.848   6.474  16.581  0.00  0.00    +0.000 OA
ATOM     13  H   UNL     1       7.256   6.536  17.352  0.00  0.00    +0.000 HD
ENDBRANCH  11  12
ENDBRANCH   1   2
BRANCH   1  15
ATOM     14  C   UNL     1       4.100   7.349  17.240  0.00  0.00    +0.000 C 
ATOM     15  N   UNL     1       4.057   5.940  17.709  0.00  0.00    +0.000 NA
BRANCH  15  16
ATOM     16  S   UNL     1       3.353   5.804  19.276  0.00  0.00    +0.000 S 
ATOM     17  O   UNL     1       4.402   5.500  20.223  0.00  0.00    +0.000 OA
ATOM     18  O   UNL     1       2.489   6.961  19.461  0.00  0.00    +0.000 OA
BRANCH  16  19
ATOM     19  C   UNL     1       2.314   4.362  19.155  0.00  0.00    +0.000 A 
ATOM     20  C   UNL     1       1.322   4.157  20.119  0.00  0.00    +0.000 A 
ATOM     21  C   UNL     1       0.511   3.024  20.043  0.00  0.00    +0.000 A 
ATOM     22  C   UNL     1       0.686   2.102  19.006  0.00  0.00    +0.000 A 
ATOM     23  C   UNL     1       1.661   2.323  18.031  0.00  0.00    +0.000 A 
ATOM     24  C   UNL     1       2.475   3.455  18.098  0.00  0.00    +0.000 A 
ENDBRANCH  16  19
ENDBRANCH  15  16
ENDBRANCH   1  15
TORSDOF 5
ENDMDL
