MODEL 1
REMARK VINA RESULT:      -7.3      0.000      0.000
REMARK  Name = 
REMARK  5 active torsions:
REMARK  status: ('A' for Active; 'I' for Inactive)
REMARK    1  A    between atoms: C_2  and  O_3
REMARK    2  A    between atoms: C_2  and  C_4
REMARK    3  A    between atoms: C_4  and  C_5
REMARK    4  A    between atoms: N_8  and  C_9
REMARK    5  A    between atoms: C_9  and  C_10
REMARK                            x       y       z     vdW  Elec       q    Type
REMARK                         _______ _______ _______ _____ _____    ______ ____
ROOT
ATOM      1  C   UNL     1       3.076   5.528  17.772  0.00  0.00    +0.000 C 
ATOM      2  C   UNL     1       3.029   6.988  18.200  0.00  0.00    +0.000 C 
ATOM      3  O   UNL     1       3.674   7.816  17.545  0.00  0.00    +0.000 OA
ATOM      4  N   UNL     1       2.307   7.336  19.327  0.00  0.00    +0.000 N 
ATOM      5  C   UNL     1       1.708   6.430  20.203  0.00  0.00    +0.000 C 
ATOM      6  O   UNL     1       1.149   6.767  21.243  0.00  0.00    +0.000 OA
ATOM      7  C   UNL     1       1.752   4.993  19.856  0.00  0.00    +0.000 A 
ATOM      8  C   UNL     1       1.106   4.075  20.699  0.00  0.00    +0.000 A 
ATOM      9  C   UNL     1       1.090   2.714  20.387  0.00  0.00    +0.000 A 
ATOM     10  C   UNL     1       1.721   2.270  19.231  0.00  0.00    +0.000 A 
ATOM     11  C   UNL     1       2.374   3.178  18.396  0.00  0.00    +0.000 A 
ATOM     12  C   UNL     1       2.412   4.551  18.704  0.00  0.00    +0.000 A 
ENDROOT
BRANCH   1  13
ATOM     13  C   UNL     1       4.528   5.182  17.389  0.00  0.00    +0.000 C 
BRANCH  13  15
ATOM     14  O   UNL     1       5.585   5.592  19.512  0.00  0.00    +0.000 OA
ATOM     15  C   UNL     1       5.383   4.831  18.579  0.00  0.00    +0.000 C 
BRANCH  15  16
ATOM     16  O   UNL     1       5.916   3.591  18.525  0.00  0.00    +0.000 OA
ATOM     17  H   UNL     1       5.267   2.854  18.565  0.00  0.00    +0.000 HD
ENDBRANCH  15  16
ENDBRANCH  13  15
ENDBRANCH   1  13
BRANCH   4  18
ATOM     18  C   UNL     1       2.263   8.752  19.712  0.00  0.00    +0.000 C 
BRANCH  18  19
ATOM     19  C   UNL     1       0.977   9.420  19.281  0.00  0.00    +0.000 A 
ATOM     20  C   UNL     1       0.547   9.380  17.946  0.00  0.00    +0.000 A 
ATOM     21  C   UNL     1      -0.687   9.930  17.586  0.00  0.00    +0.000 A 
ATOM     22  C   UNL     1      -1.494  10.524  18.555  0.00  0.00    +0.000 A 
ATOM     23 BR   UNL     1      -3.197  11.191  18.081  0.00  0.00    +0.000 Br
ATOM     24  C   UNL     1      -1.060  10.617  19.873  0.00  0.00    +0.000 A 
ATOM     25  C   UNL     1       0.173  10.074  20.221  0.00  0.00    +0.000 A 
ATOM     26  F   UNL     1       0.586  10.196  21.489  0.00  0.00    +0.000 F 
ENDBRANCH  18  19
ENDBRANCH   4  18
TORSDOF 5
ENDMDL
MODEL 2
REMARK VINA RESULT:      -7.2      1.208      1.581
REMARK  Name = 
REMARK  5 active torsions:
REMARK  status: ('A' for Active; 'I' for Inactive)
REMARK    1  A    between atoms: C_2  and  O_3
REMARK    2  A    between atoms: C_2  and  C_4
REMARK    3  A    between atoms: C_4  and  C_5
REMARK    4  A    between atoms: N_8  and  C_9
REMARK    5  A    between atoms: C_9  and  C_10
REMARK                            x       y       z     vdW  Elec       q    Type
REMARK                         _______ _______ _______ _____ _____    ______ ____
ROOT
ATOM      1  C   UNL     1       3.408   5.438  17.451  0.00  0.00    +0.000 C 
ATOM      2  C   UNL     1       3.326   6.786  18.155  0.00  0.00    +0.000 C 
ATOM      3  O   UNL     1       4.025   7.715  17.732  0.00  0.00    +0.000 OA
ATOM      4  N   UNL     1       2.512   6.916  19.265  0.00  0.00    +0.000 N 
ATOM      5  C   UNL     1       1.841   5.867  19.892  0.00  0.00    +0.000 C 
ATOM      6  O   UNL     1       1.197   6.001  20.928  0.00  0.00    +0.000 OA
ATOM      7  C   UNL     1       1.914   4.526  19.272  0.00  0.00    +0.000 A 
ATOM      8  C   UNL     1       1.198   3.471  19.861  0.00  0.00    +0.000 A 
ATOM      9  C   UNL     1       1.207   2.199  19.285  0.00  0.00    +0.000 A 
ATOM     10  C   UNL     1       1.933   1.980  18.120  0.00  0.00    +0.000 A 
ATOM     11  C   UNL     1       2.654   3.024  17.538  0.00  0.00    +0.000 A 
ATOM     12  C   UNL     1       2.668   4.308  18.114  0.00  0.00    +0.000 A 
ENDROOT
BRANCH   1  13
ATOM     13  C   UNL     1       4.886   5.149  17.128  0.00  0.00    +0.000 C 
BRANCH  13  15
ATOM     14  O   UNL     1       5.347   4.372  14.897  0.00  0.00    +0.000 OA
ATOM     15  C   UNL     1       5.213   5.311  15.666  0.00  0.00    +0.000 C 
BRANCH  15  16
ATOM     16  O   UNL     1       5.348   6.596  15.272  0.00  0.00    +0.000 OA
ATOM     17  H   UNL     1       4.809   6.854  14.491  0.00  0.00    +0.000 HD
ENDBRANCH  15  16
ENDBRANCH  13  15
ENDBRANCH   1  13
BRANCH   4  18
ATOM     18  C   UNL     1       2.438   8.229  19.918  0.00  0.00    +0.000 C 
BRANCH  18  19
ATOM     19  C   UNL     1       1.228   9.019  19.472  0.00  0.00    +0.000 A 
ATOM     20  C   UNL     1       0.986   9.277  18.115  0.00  0.00    +0.000 A 
ATOM     21  C   UNL     1      -0.183   9.934  17.719  0.00  0.00    +0.000 A 
ATOM     22  C   UNL     1      -1.111  10.340  18.676  0.00  0.00    +0.000 A 
ATOM     23 BR   UNL     1      -2.729  11.153  18.133  0.00  0.00    +0.000 Br
ATOM     24  C   UNL     1      -0.863  10.138  20.030  0.00  0.00    +0.000 A 
ATOM     25  C   UNL     1       0.307   9.490  20.414  0.00  0.00    +0.000 A 
ATOM     26  F   UNL     1       0.542   9.327  21.723  0.00  0.00    +0.000 F 
ENDBRANCH  18  19
ENDBRANCH   4  18
TORSDOF 5
ENDMDL
MODEL 3
REMARK VINA RESULT:      -7.1      2.747      4.772
REMARK  Name = 
REMARK  5 active torsions:
REMARK  status: ('A' for Active; 'I' for Inactive)
REMARK    1  A    between atoms: C_2  and  O_3
REMARK    2  A    between atoms: C_2  and  C_4
REMARK    3  A    between atoms: C_4  and  C_5
REMARK    4  A    between atoms: N_8  and  C_9
REMARK    5  A    between atoms: C_9  and  C_10
REMARK                            x       y       z     vdW  Elec       q    Type
REMARK                         _______ _______ _______ _____ _____    ______ ____
ROOT
ATOM      1  C   UNL     1       6.466   5.436  17.520  0.00  0.00    +0.000 C 
ATOM      2  C   UNL     1       5.268   5.310  18.450  0.00  0.00    +0.000 C 
ATOM      3  O   UNL     1       5.402   5.644  19.635  0.00  0.00    +0.000 OA
ATOM      4  N   UNL     1       4.086   4.787  17.957  0.00  0.00    +0.000 N 
ATOM      5  C   UNL     1       3.926   4.232  16.688  0.00  0.00    +0.000 C 
ATOM      6  O   UNL     1       2.888   3.696  16.312  0.00  0.00    +0.000 OA
ATOM      7  C   UNL     1       5.070   4.295  15.752  0.00  0.00    +0.000 A 
ATOM      8  C   UNL     1       4.906   3.790  14.452  0.00  0.00    +0.000 A 
ATOM      9  C   UNL     1       5.948   3.866  13.525  0.00  0.00    +0.000 A 
ATOM     10  C   UNL     1       7.155   4.446  13.897  0.00  0.00    +0.000 A 
ATOM     11  C   UNL     1       7.324   4.940  15.192  0.00  0.00    +0.000 A 
ATOM     12  C   UNL     1       6.290   4.857  16.143  0.00  0.00    +0.000 A 
ENDROOT
BRANCH   1  13
ATOM     13  C   UNL     1       7.719   4.953  18.276  0.00  0.00    +0.000 C 
BRANCH  13  15
ATOM     14  O   UNL     1       8.514   7.093  19.041  0.00  0.00    +0.000 OA
ATOM     15  C   UNL     1       8.205   5.942  19.305  0.00  0.00    +0.000 C 
BRANCH  15  16
ATOM     16  O   UNL     1       8.272   5.442  20.558  0.00  0.00    +0.000 OA
ATOM     17  H   UNL     1       8.630   4.529  20.627  0.00  0.00    +0.000 HD
ENDBRANCH  15  16
ENDBRANCH  13  15
ENDBRANCH   1  13
BRANCH   4  18
ATOM     18  C   UNL     1       2.939   4.689  18.869  0.00  0.00    +0.000 C 
BRANCH  18  19
ATOM     19  C   UNL     1       2.426   6.048  19.287  0.00  0.00    +0.000 A 
ATOM     20  C   UNL     1       2.431   7.134  18.399  0.00  0.00    +0.000 A 
ATOM     21  C   UNL     1       1.872   8.358  18.778  0.00  0.00    +0.000 A 
ATOM     22  C   UNL     1       1.311   8.504  20.045  0.00  0.00    +0.000 A 
ATOM     23 BR   UNL     1       0.482  10.134  20.525  0.00  0.00    +0.000 Br
ATOM     24  C   UNL     1       1.343   7.454  20.956  0.00  0.00    +0.000 A 
ATOM     25  C   UNL     1       1.908   6.241  20.572  0.00  0.00    +0.000 A 
ATOM     26  F   UNL     1       1.954   5.248  21.470  0.00  0.00    +0.000 F 
ENDBRANCH  18  19
ENDBRANCH   4  18
TORSDOF 5
ENDMDL
MODEL 4
REMARK VINA RESULT:      -7.0      1.048      1.411
REMARK  Name = 
REMARK  5 active torsions:
REMARK  status: ('A' for Active; 'I' for Inactive)
REMARK    1  A    between atoms: C_2  and  O_3
REMARK    2  A    between atoms: C_2  and  C_4
REMARK    3  A    between atoms: C_4  and  C_5
REMARK    4  A    between atoms: N_8  and  C_9
REMARK    5  A    between atoms: C_9  and  C_10
REMARK                            x       y       z     vdW  Elec       q    Type
REMARK                         _______ _______ _______ _____ _____    ______ ____
ROOT
ATOM      1  C   UNL     1       3.195   5.185  17.690  0.00  0.00    +0.000 C 
ATOM      2  C   UNL     1       3.225   6.628  18.174  0.00  0.00    +0.000 C 
ATOM      3  O   UNL     1       3.930   7.441  17.563  0.00  0.00    +0.000 OA
ATOM      4  N   UNL     1       2.503   6.974  19.301  0.00  0.00    +0.000 N 
ATOM      5  C   UNL     1       1.835   6.073  20.130  0.00  0.00    +0.000 C 
ATOM      6  O   UNL     1       1.277   6.402  21.173  0.00  0.00    +0.000 OA
ATOM      7  C   UNL     1       1.803   4.650  19.728  0.00  0.00    +0.000 A 
ATOM      8  C   UNL     1       1.088   3.740  20.523  0.00  0.00    +0.000 A 
ATOM      9  C   UNL     1       0.999   2.395  20.158  0.00  0.00    +0.000 A 
ATOM     10  C   UNL     1       1.626   1.959  18.996  0.00  0.00    +0.000 A 
ATOM     11  C   UNL     1       2.346   2.859  18.209  0.00  0.00    +0.000 A 
ATOM     12  C   UNL     1       2.458   4.214  18.571  0.00  0.00    +0.000 A 
ENDROOT
BRANCH   1  13
ATOM     13  C   UNL     1       4.632   4.769  17.318  0.00  0.00    +0.000 C 
BRANCH  13  15
ATOM     14  O   UNL     1       6.174   5.489  19.021  0.00  0.00    +0.000 OA
ATOM     15  C   UNL     1       5.522   4.586  18.521  0.00  0.00    +0.000 C 
BRANCH  15  16
ATOM     16  O   UNL     1       5.540   3.324  19.003  0.00  0.00    +0.000 OA
ATOM     17  H   UNL     1       5.976   2.660  18.424  0.00  0.00    +0.000 HD
ENDBRANCH  15  16
ENDBRANCH  13  15
ENDBRANCH   1  13
BRANCH   4  18
ATOM     18  C   UNL     1       2.534   8.375  19.741  0.00  0.00    +0.000 C 
BRANCH  18  19
ATOM     19  C   UNL     1       1.228   9.086  19.470  0.00  0.00    +0.000 A 
ATOM     20  C   UNL     1       0.359   9.436  20.514  0.00  0.00    +0.000 A 
ATOM     21  C   UNL     1      -0.802  10.170  20.250  0.00  0.00    +0.000 A 
ATOM     22  C   UNL     1      -1.101  10.552  18.944  0.00  0.00    +0.000 A 
ATOM     23 BR   UNL     1      -2.626  11.614  18.601  0.00  0.00    +0.000 Br
ATOM     24  C   UNL     1      -0.277  10.170  17.891  0.00  0.00    +0.000 A 
ATOM     25  C   UNL     1       0.872   9.434  18.162  0.00  0.00    +0.000 A 
ATOM     26  F   UNL     1       1.640   9.052  17.134  0.00  0.00    +0.000 F 
ENDBRANCH  18  19
ENDBRANCH   4  18
TORSDOF 5
ENDMDL
MODEL 5
REMARK VINA RESULT:      -6.9      4.002      6.644
REMARK  Name = 
REMARK  5 active torsions:
REMARK  status: ('A' for Active; 'I' for Inactive)
REMARK    1  A    between atoms: C_2  and  O_3
REMARK    2  A    between atoms: C_2  and  C_4
REMARK    3  A    between atoms: C_4  and  C_5
REMARK    4  A    between atoms: N_8  and  C_9
REMARK    5  A    between atoms: C_9  and  C_10
REMARK                            x       y       z     vdW  Elec       q    Type
REMARK                         _______ _______ _______ _____ _____    ______ ____
ROOT
ATOM      1  C   UNL     1       3.255   6.240  18.989  0.00  0.00    +0.000 C 
ATOM      2  C   UNL     1       4.629   6.039  18.367  0.00  0.00    +0.000 C 
ATOM      3  O   UNL     1       5.077   6.924  17.626  0.00  0.00    +0.000 OA
ATOM      4  N   UNL     1       5.312   4.862  18.612  0.00  0.00    +0.000 N 
ATOM      5  C   UNL     1       4.789   3.760  19.289  0.00  0.00    +0.000 C 
ATOM      6  O   UNL     1       5.389   2.697  19.412  0.00  0.00    +0.000 OA
ATOM      7  C   UNL     1       3.441   3.886  19.885  0.00  0.00    +0.000 A 
ATOM      8  C   UNL     1       2.924   2.805  20.617  0.00  0.00    +0.000 A 
ATOM      9  C   UNL     1       1.673   2.897  21.230  0.00  0.00    +0.000 A 
ATOM     10  C   UNL     1       0.937   4.070  21.111  0.00  0.00    +0.000 A 
ATOM     11  C   UNL     1       1.443   5.143  20.375  0.00  0.00    +0.000 A 
ATOM     12  C   UNL     1       2.696   5.061  19.738  0.00  0.00    +0.000 A 
ENDROOT
BRANCH   1  13
ATOM     13  C   UNL     1       2.320   6.835  17.918  0.00  0.00    +0.000 C 
BRANCH  13  15
ATOM     14  O   UNL     1       2.204   9.146  17.253  0.00  0.00    +0.000 OA
ATOM     15  C   UNL     1       2.047   8.303  18.123  0.00  0.00    +0.000 C 
BRANCH  15  16
ATOM     16  O   UNL     1       1.612   8.613  19.364  0.00  0.00    +0.000 OA
ATOM     17  H   UNL     1       1.546   7.855  19.986  0.00  0.00    +0.000 HD
ENDBRANCH  15  16
ENDBRANCH  13  15
ENDBRANCH   1  13
BRANCH   4  18
ATOM     18  C   UNL     1       6.643   4.696  18.013  0.00  0.00    +0.000 C 
BRANCH  18  19
ATOM     19  C   UNL     1       6.578   4.557  16.509  0.00  0.00    +0.000 A 
ATOM     20  C   UNL     1       7.477   5.238  15.675  0.00  0.00    +0.000 A 
ATOM     21  C   UNL     1       7.454   5.027  14.293  0.00  0.00    +0.000 A 
ATOM     22  C   UNL     1       6.532   4.140  13.739  0.00  0.00    +0.000 A 
ATOM     23 BR   UNL     1       6.559   3.795  11.881  0.00  0.00    +0.000 Br
ATOM     24  C   UNL     1       5.600   3.497  14.546  0.00  0.00    +0.000 A 
ATOM     25  C   UNL     1       5.626   3.718  15.919  0.00  0.00    +0.000 A 
ATOM     26  F   UNL     1       4.705   3.110  16.678  0.00  0.00    +0.000 F 
ENDBRANCH  18  19
ENDBRANCH   4  18
TORSDOF 5
ENDMDL
MODEL 6
REMARK VINA RESULT:      -6.9      3.963      6.617
REMARK  Name = 
REMARK  5 active torsions:
REMARK  status: ('A' for Active; 'I' for Inactive)
REMARK    1  A    between atoms: C_2  and  O_3
REMARK    2  A    between atoms: C_2  and  C_4
REMARK    3  A    between atoms: C_4  and  C_5
REMARK    4  A    between atoms: N_8  and  C_9
REMARK    5  A    between atoms: C_9  and  C_10
REMARK                            x       y       z     vdW  Elec       q    Type
REMARK                         _______ _______ _______ _____ _____    ______ ____
ROOT
ATOM      1  C   UNL     1       3.142   6.260  19.070  0.00  0.00    +0.000 C 
ATOM      2  C   UNL     1       4.531   6.127  18.463  0.00  0.00    +0.000 C 
ATOM      3  O   UNL     1       4.961   7.054  17.764  0.00  0.00    +0.000 OA
ATOM      4  N   UNL     1       5.248   4.963  18.672  0.00  0.00    +0.000 N 
ATOM      5  C   UNL     1       4.751   3.820  19.298  0.00  0.00    +0.000 C 
ATOM      6  O   UNL     1       5.383   2.772  19.390  0.00  0.00    +0.000 OA
ATOM      7  C   UNL     1       3.391   3.879  19.877  0.00  0.00    +0.000 A 
ATOM      8  C   UNL     1       2.898   2.755  20.558  0.00  0.00    +0.000 A 
ATOM      9  C   UNL     1       1.635   2.783  21.153  0.00  0.00    +0.000 A 
ATOM     10  C   UNL     1       0.864   3.936  21.068  0.00  0.00    +0.000 A 
ATOM     11  C   UNL     1       1.346   5.052  20.383  0.00  0.00    +0.000 A 
ATOM     12  C   UNL     1       2.611   5.035  19.764  0.00  0.00    +0.000 A 
ENDROOT
BRANCH   1  13
ATOM     13  C   UNL     1       2.205   6.866  18.007  0.00  0.00    +0.000 C 
BRANCH  13  15
ATOM     14  O   UNL     1       2.078   9.174  17.333  0.00  0.00    +0.000 OA
ATOM     15  C   UNL     1       1.953   8.338  18.214  0.00  0.00    +0.000 C 
BRANCH  15  16
ATOM     16  O   UNL     1       1.574   8.659  19.471  0.00  0.00    +0.000 OA
ATOM     17  H   UNL     1       1.546   9.622  19.667  0.00  0.00    +0.000 HD
ENDBRANCH  15  16
ENDBRANCH  13  15
ENDBRANCH   1  13
BRANCH   4  18
ATOM     18  C   UNL     1       6.592   4.863  18.090  0.00  0.00    +0.000 C 
BRANCH  18  19
ATOM     19  C   UNL     1       6.551   4.525  16.617  0.00  0.00    +0.000 A 
ATOM     20  C   UNL     1       5.862   3.397  16.147  0.00  0.00    +0.000 A 
ATOM     21  C   UNL     1       5.764   3.151  14.774  0.00  0.00    +0.000 A 
ATOM     22  C   UNL     1       6.356   4.028  13.866  0.00  0.00    +0.000 A 
ATOM     23 BR   UNL     1       6.151   3.739  12.010  0.00  0.00    +0.000 Br
ATOM     24  C   UNL     1       7.086   5.122  14.317  0.00  0.00    +0.000 A 
ATOM     25  C   UNL     1       7.184   5.355  15.685  0.00  0.00    +0.000 A 
ATOM     26  F   UNL     1       7.912   6.399  16.102  0.00  0.00    +0.000 F 
ENDBRANCH  18  19
ENDBRANCH   4  18
TORSDOF 5
ENDMDL
MODEL 7
REMARK VINA RESULT:      -6.9      1.561      2.062
REMARK  Name = 
REMARK  5 active torsions:
REMARK  status: ('A' for Active; 'I' for Inactive)
REMARK    1  A    between atoms: C_2  and  O_3
REMARK    2  A    between atoms: C_2  and  C_4
REMARK    3  A    between atoms: C_4  and  C_5
REMARK    4  A    between atoms: N_8  and  C_9
REMARK    5  A    between atoms: C_9  and  C_10
REMARK                            x       y       z     vdW  Elec       q    Type
REMARK                         _______ _______ _______ _____ _____    ______ ____
ROOT
ATOM      1  C   UNL     1       3.497   5.245  17.449  0.00  0.00    +0.000 C 
ATOM      2  C   UNL     1       3.469   6.619  18.103  0.00  0.00    +0.000 C 
ATOM      3  O   UNL     1       4.216   7.500  17.658  0.00  0.00    +0.000 OA
ATOM      4  N   UNL     1       2.648   6.827  19.196  0.00  0.00    +0.000 N 
ATOM      5  C   UNL     1       1.921   5.832  19.850  0.00  0.00    +0.000 C 
ATOM      6  O   UNL     1       1.270   6.033  20.871  0.00  0.00    +0.000 OA
ATOM      7  C   UNL     1       1.939   4.468  19.278  0.00  0.00    +0.000 A 
ATOM      8  C   UNL     1       1.167   3.469  19.893  0.00  0.00    +0.000 A 
ATOM      9  C   UNL     1       1.124   2.178  19.363  0.00  0.00    +0.000 A 
ATOM     10  C   UNL     1       1.854   1.885  18.216  0.00  0.00    +0.000 A 
ATOM     11  C   UNL     1       2.630   2.873  17.608  0.00  0.00    +0.000 A 
ATOM     12  C   UNL     1       2.696   4.175  18.139  0.00  0.00    +0.000 A 
ENDROOT
BRANCH   1  13
ATOM     13  C   UNL     1       4.965   4.877  17.157  0.00  0.00    +0.000 C 
BRANCH  13  15
ATOM     14  O   UNL     1       5.492   4.049  14.959  0.00  0.00    +0.000 OA
ATOM     15  C   UNL     1       5.326   5.006  15.700  0.00  0.00    +0.000 C 
BRANCH  15  16
ATOM     16  O   UNL     1       5.456   6.282  15.277  0.00  0.00    +0.000 OA
ATOM     17  H   UNL     1       5.120   6.459  14.370  0.00  0.00    +0.000 HD
ENDBRANCH  15  16
ENDBRANCH  13  15
ENDBRANCH   1  13
BRANCH   4  18
ATOM     18  C   UNL     1       2.627   8.164  19.802  0.00  0.00    +0.000 C 
BRANCH  18  19
ATOM     19  C   UNL     1       1.342   8.903  19.505  0.00  0.00    +0.000 A 
ATOM     20  C   UNL     1       0.431   9.220  20.524  0.00  0.00    +0.000 A 
ATOM     21  C   UNL     1      -0.709   9.979  20.241  0.00  0.00    +0.000 A 
ATOM     22  C   UNL     1      -0.945  10.420  18.940  0.00  0.00    +0.000 A 
ATOM     23 BR   UNL     1      -2.442  11.515  18.576  0.00  0.00    +0.000 Br
ATOM     24  C   UNL     1      -0.080  10.072  17.909  0.00  0.00    +0.000 A 
ATOM     25  C   UNL     1       1.048   9.310  18.199  0.00  0.00    +0.000 A 
ATOM     26  F   UNL     1       1.857   8.962  17.189  0.00  0.00    +0.000 F 
ENDBRANCH  18  19
ENDBRANCH   4  18
TORSDOF 5
ENDMDL
MODEL 8
REMARK VINA RESULT:      -6.8      1.575      1.865
REMARK  Name = 
REMARK  5 active torsions:
REMARK  status: ('A' for Active; 'I' for Inactive)
REMARK    1  A    between atoms: C_2  and  O_3
REMARK    2  A    between atoms: C_2  and  C_4
REMARK    3  A    between atoms: C_4  and  C_5
REMARK    4  A    between atoms: N_8  and  C_9
REMARK    5  A    between atoms: C_9  and  C_10
REMARK                            x       y       z     vdW  Elec       q    Type
REMARK                         _______ _______ _______ _____ _____    ______ ____
ROOT
ATOM      1  C   UNL     1       3.084   6.918  17.876  0.00  0.00    +0.000 C 
ATOM      2  C   UNL     1       2.656   8.358  18.126  0.00  0.00    +0.000 C 
ATOM      3  O   UNL     1       3.080   9.239  17.368  0.00  0.00    +0.000 OA
ATOM      4  N   UNL     1       1.849   8.640  19.212  0.00  0.00    +0.000 N 
ATOM      5  C   UNL     1       1.486   7.722  20.198  0.00  0.00    +0.000 C 
ATOM      6  O   UNL     1       0.840   8.025  21.197  0.00  0.00    +0.000 OA
ATOM      7  C   UNL     1       1.904   6.314  20.026  0.00  0.00    +0.000 A 
ATOM      8  C   UNL     1       1.500   5.368  20.981  0.00  0.00    +0.000 A 
ATOM      9  C   UNL     1       1.839   4.022  20.835  0.00  0.00    +0.000 A 
ATOM     10  C   UNL     1       2.585   3.620  19.733  0.00  0.00    +0.000 A 
ATOM     11  C   UNL     1       2.998   4.559  18.787  0.00  0.00    +0.000 A 
ATOM     12  C   UNL     1       2.677   5.922  18.927  0.00  0.00    +0.000 A 
ENDROOT
BRANCH   1  13
ATOM     13  C   UNL     1       4.583   6.914  17.519  0.00  0.00    +0.000 C 
BRANCH  13  15
ATOM     14  O   UNL     1       4.995   7.057  15.151  0.00  0.00    +0.000 OA
ATOM     15  C   UNL     1       4.860   6.360  16.145  0.00  0.00    +0.000 C 
BRANCH  15  16
ATOM     16  O   UNL     1       4.945   5.013  16.102  0.00  0.00    +0.000 OA
ATOM     17  H   UNL     1       5.743   4.629  16.531  0.00  0.00    +0.000 HD
ENDBRANCH  15  16
ENDBRANCH  13  15
ENDBRANCH   1  13
BRANCH   4  18
ATOM     18  C   UNL     1       1.436  10.033  19.425  0.00  0.00    +0.000 C 
BRANCH  18  19
ATOM     19  C   UNL     1       0.064  10.313  18.856  0.00  0.00    +0.000 A 
ATOM     20  C   UNL     1      -0.401   9.647  17.711  0.00  0.00    +0.000 A 
ATOM     21  C   UNL     1      -1.705   9.858  17.253  0.00  0.00    +0.000 A 
ATOM     22  C   UNL     1      -2.547  10.737  17.932  0.00  0.00    +0.000 A 
ATOM     23 BR   UNL     1      -4.335  10.957  17.358  0.00  0.00    +0.000 Br
ATOM     24  C   UNL     1      -2.087  11.444  19.037  0.00  0.00    +0.000 A 
ATOM     25  C   UNL     1      -0.785  11.233  19.482  0.00  0.00    +0.000 A 
ATOM     26  F   UNL     1      -0.350  11.941  20.532  0.00  0.00    +0.000 F 
ENDBRANCH  18  19
ENDBRANCH   4  18
TORSDOF 5
ENDMDL
MODEL 9
REMARK VINA RESULT:      -6.7      2.813      4.930
REMARK  Name = 
REMARK  5 active torsions:
REMARK  status: ('A' for Active; 'I' for Inactive)
REMARK    1  A    between atoms: C_2  and  O_3
REMARK    2  A    between atoms: C_2  and  C_4
REMARK    3  A    between atoms: C_4  and  C_5
REMARK    4  A    between atoms: N_8  and  C_9
REMARK    5  A    between atoms: C_9  and  C_10
REMARK                            x       y       z     vdW  Elec       q    Type
REMARK                         _______ _______ _______ _____ _____    ______ ____
ROOT
ATOM      1  C   UNL     1       6.410   5.396  17.610  0.00  0.00    +0.000 C 
ATOM      2  C   UNL     1       5.236   5.193  18.556  0.00  0.00    +0.000 C 
ATOM      3  O   UNL     1       5.378   5.500  19.747  0.00  0.00    +0.000 OA
ATOM      4  N   UNL     1       4.068   4.633  18.070  0.00  0.00    +0.000 N 
ATOM      5  C   UNL     1       3.908   4.107  16.788  0.00  0.00    +0.000 C 
ATOM      6  O   UNL     1       2.887   3.537  16.415  0.00  0.00    +0.000 OA
ATOM      7  C   UNL     1       5.031   4.244  15.834  0.00  0.00    +0.000 A 
ATOM      8  C   UNL     1       4.864   3.768  14.524  0.00  0.00    +0.000 A 
ATOM      9  C   UNL     1       5.884   3.914  13.581  0.00  0.00    +0.000 A 
ATOM     10  C   UNL     1       7.072   4.536  13.949  0.00  0.00    +0.000 A 
ATOM     11  C   UNL     1       7.245   5.001  15.253  0.00  0.00    +0.000 A 
ATOM     12  C   UNL     1       6.233   4.847  16.220  0.00  0.00    +0.000 A 
ENDROOT
BRANCH   1  13
ATOM     13  C   UNL     1       7.696   4.946  18.329  0.00  0.00    +0.000 C 
BRANCH  13  15
ATOM     14  O   UNL     1       8.512   7.092  19.054  0.00  0.00    +0.000 OA
ATOM     15  C   UNL     1       8.188   5.950  19.340  0.00  0.00    +0.000 C 
BRANCH  15  16
ATOM     16  O   UNL     1       8.242   5.476  20.604  0.00  0.00    +0.000 OA
ATOM     17  H   UNL     1       7.465   4.942  20.885  0.00  0.00    +0.000 HD
ENDBRANCH  15  16
ENDBRANCH  13  15
ENDBRANCH   1  13
BRANCH   4  18
ATOM     18  C   UNL     1       2.944   4.461  18.998  0.00  0.00    +0.000 C 
BRANCH  18  19
ATOM     19  C   UNL     1       2.353   5.784  19.429  0.00  0.00    +0.000 A 
ATOM     20  C   UNL     1       1.797   5.953  20.705  0.00  0.00    +0.000 A 
ATOM     21  C   UNL     1       1.335   7.208  21.113  0.00  0.00    +0.000 A 
ATOM     22  C   UNL     1       1.422   8.297  20.247  0.00  0.00    +0.000 A 
ATOM     23 BR   UNL     1       0.873  10.009  20.831  0.00  0.00    +0.000 Br
ATOM     24  C   UNL     1       1.923   8.136  18.960  0.00  0.00    +0.000 A 
ATOM     25  C   UNL     1       2.374   6.882  18.561  0.00  0.00    +0.000 A 
ATOM     26  F   UNL     1       2.829   6.739  17.309  0.00  0.00    +0.000 F 
ENDBRANCH  18  19
ENDBRANCH   4  18
TORSDOF 5
ENDMDL
