MODEL 1
REMARK VINA RESULT:      -7.7      0.000      0.000
REMARK  Name = 
REMARK  1 active torsions:
REMARK  status: ('A' for Active; 'I' for Inactive)
REMARK    1  A    between atoms: C_2  and  C_3
REMARK                            x       y       z     vdW  Elec       q    Type
REMARK                         _______ _______ _______ _____ _____    ______ ____
ROOT
ATOM      1  O   UNL     1       1.677   9.344  17.297  0.00  0.00    +0.000 OA
ATOM      2  C   UNL     1       1.666   8.962  18.469  0.00  0.00    +0.000 C 
ATOM      3  N   UNL     1       2.401   7.852  18.879  0.00  0.00    +0.000 N 
ATOM      4  C   UNL     1       2.308   7.202  20.196  0.00  0.00    +0.000 C 
ATOM      5  C   UNL     1       2.103   5.685  20.069  0.00  0.00    +0.000 C 
ATOM      6  N   UNL     1       3.121   5.118  19.186  0.00  0.00    +0.000 N 
ATOM      7  C   UNL     1       3.631   3.897  19.424  0.00  0.00    +0.000 A 
ATOM      8  N   UNL     1       3.259   3.210  20.552  0.00  0.00    +0.000 NA
ATOM      9  C   UNL     1       3.970   2.113  20.504  0.00  0.00    +0.000 A 
ATOM     10  N   UNL     1       4.745   2.138  19.394  0.00  0.00    +0.000 N 
ATOM     11  N   UNL     1       4.530   3.247  18.677  0.00  0.00    +0.000 NA
ATOM     12  C   UNL     1       3.182   5.715  17.850  0.00  0.00    +0.000 C 
ATOM     13  C   UNL     1       3.369   7.240  17.963  0.00  0.00    +0.000 C 
ATOM     14  H   UNL     1       5.425   1.461  19.070  0.00  0.00    +0.000 HD
ENDROOT
BRANCH   2  15
ATOM     15  C   UNL     1       0.839   9.653  19.467  0.00  0.00    +0.000 A 
ATOM     16  C   UNL     1       0.024  10.743  19.227  0.00  0.00    +0.000 A 
ATOM     17  N   UNL     1      -0.571  11.024  20.423  0.00  0.00    +0.000 N 
ATOM     18  C   UNL     1      -0.077  10.167  21.358  0.00  0.00    +0.000 A 
ATOM     19  N   UNL     1       0.783   9.334  20.815  0.00  0.00    +0.000 NA
ATOM     20  C   UNL     1      -0.461  10.204  22.784  0.00  0.00    +0.000 C 
ATOM     21  C   UNL     1      -1.530  11.223  23.155  0.00  0.00    +0.000 C 
ATOM     22  C   UNL     1      -2.086  12.155  22.077  0.00  0.00    +0.000 C 
ATOM     23  C   UNL     1      -1.549  12.050  20.654  0.00  0.00    +0.000 C 
ENDBRANCH   2  15
TORSDOF 1
ENDMDL
MODEL 2
REMARK VINA RESULT:      -7.4      0.574      1.303
REMARK  Name = 
REMARK  1 active torsions:
REMARK  status: ('A' for Active; 'I' for Inactive)
REMARK    1  A    between atoms: C_2  and  C_3
REMARK                            x       y       z     vdW  Elec       q    Type
REMARK                         _______ _______ _______ _____ _____    ______ ____
ROOT
ATOM      1  O   UNL     1       1.687   9.464  17.321  0.00  0.00    +0.000 OA
ATOM      2  C   UNL     1       1.631   9.056  18.483  0.00  0.00    +0.000 C 
ATOM      3  N   UNL     1       2.364   7.947  18.901  0.00  0.00    +0.000 N 
ATOM      4  C   UNL     1       2.223   7.268  20.199  0.00  0.00    +0.000 C 
ATOM      5  C   UNL     1       2.043   5.751  20.030  0.00  0.00    +0.000 C 
ATOM      6  N   UNL     1       3.106   5.216  19.181  0.00  0.00    +0.000 N 
ATOM      7  C   UNL     1       3.622   3.997  19.415  0.00  0.00    +0.000 A 
ATOM      8  N   UNL     1       3.211   3.281  20.511  0.00  0.00    +0.000 NA
ATOM      9  C   UNL     1       3.939   2.194  20.471  0.00  0.00    +0.000 A 
ATOM     10  N   UNL     1       4.760   2.253  19.396  0.00  0.00    +0.000 N 
ATOM     11  N   UNL     1       4.561   3.375  18.694  0.00  0.00    +0.000 NA
ATOM     12  C   UNL     1       3.217   5.843  17.862  0.00  0.00    +0.000 C 
ATOM     13  C   UNL     1       3.378   7.367  18.015  0.00  0.00    +0.000 C 
ATOM     14  H   UNL     1       5.463   1.592  19.088  0.00  0.00    +0.000 HD
ENDROOT
BRANCH   2  15
ATOM     15  C   UNL     1       0.753   9.715  19.459  0.00  0.00    +0.000 A 
ATOM     16  C   UNL     1       0.682   9.425  20.808  0.00  0.00    +0.000 A 
ATOM     17  N   UNL     1      -0.233  10.298  21.321  0.00  0.00    +0.000 N 
ATOM     18  C   UNL     1      -0.737  11.041  20.298  0.00  0.00    +0.000 A 
ATOM     19  N   UNL     1      -0.169  10.707  19.160  0.00  0.00    +0.000 NA
ATOM     20  C   UNL     1      -1.788  12.063  20.471  0.00  0.00    +0.000 C 
ATOM     21  C   UNL     1      -2.238  12.313  21.904  0.00  0.00    +0.000 C 
ATOM     22  C   UNL     1      -1.634  11.482  23.038  0.00  0.00    +0.000 C 
ATOM     23  C   UNL     1      -0.601  10.411  22.705  0.00  0.00    +0.000 C 
ENDBRANCH   2  15
TORSDOF 1
ENDMDL
MODEL 3
REMARK VINA RESULT:      -7.3      3.779      8.780
REMARK  Name = 
REMARK  1 active torsions:
REMARK  status: ('A' for Active; 'I' for Inactive)
REMARK    1  A    between atoms: C_2  and  C_3
REMARK                            x       y       z     vdW  Elec       q    Type
REMARK                         _______ _______ _______ _____ _____    ______ ____
ROOT
ATOM      1  O   UNL     1       4.600   3.261  18.329  0.00  0.00    +0.000 OA
ATOM      2  C   UNL     1       4.720   4.347  17.759  0.00  0.00    +0.000 C 
ATOM      3  N   UNL     1       4.236   5.525  18.327  0.00  0.00    +0.000 N 
ATOM      4  C   UNL     1       4.156   6.830  17.652  0.00  0.00    +0.000 C 
ATOM      5  C   UNL     1       2.756   7.451  17.782  0.00  0.00    +0.000 C 
ATOM      6  N   UNL     1       2.349   7.470  19.186  0.00  0.00    +0.000 N 
ATOM      7  C   UNL     1       1.619   8.488  19.674  0.00  0.00    +0.000 A 
ATOM      8  N   UNL     1       1.325   9.563  18.872  0.00  0.00    +0.000 NA
ATOM      9  C   UNL     1       0.669  10.376  19.660  0.00  0.00    +0.000 A 
ATOM     10  N   UNL     1       0.575   9.818  20.890  0.00  0.00    +0.000 N 
ATOM     11  N   UNL     1       1.147   8.608  20.919  0.00  0.00    +0.000 NA
ATOM     12  C   UNL     1       2.367   6.166  19.851  0.00  0.00    +0.000 C 
ATOM     13  C   UNL     1       3.759   5.523  19.714  0.00  0.00    +0.000 C 
ATOM     14  H   UNL     1       0.154  10.189  21.733  0.00  0.00    +0.000 HD
ENDROOT
BRANCH   2  15
ATOM     15  C   UNL     1       5.350   4.424  16.435  0.00  0.00    +0.000 A 
ATOM     16  C   UNL     1       6.442   5.205  16.103  0.00  0.00    +0.000 A 
ATOM     17  N   UNL     1       6.698   4.934  14.790  0.00  0.00    +0.000 N 
ATOM     18  C   UNL     1       5.750   4.068  14.338  0.00  0.00    +0.000 A 
ATOM     19  N   UNL     1       4.917   3.748  15.305  0.00  0.00    +0.000 NA
ATOM     20  C   UNL     1       5.682   3.583  12.945  0.00  0.00    +0.000 C 
ATOM     21  C   UNL     1       6.805   4.049  12.028  0.00  0.00    +0.000 C 
ATOM     22  C   UNL     1       7.873   5.001  12.570  0.00  0.00    +0.000 C 
ATOM     23  C   UNL     1       7.781   5.473  14.017  0.00  0.00    +0.000 C 
ENDBRANCH   2  15
TORSDOF 1
ENDMDL
MODEL 4
REMARK VINA RESULT:      -7.2      3.798      8.799
REMARK  Name = 
REMARK  1 active torsions:
REMARK  status: ('A' for Active; 'I' for Inactive)
REMARK    1  A    between atoms: C_2  and  C_3
REMARK                            x       y       z     vdW  Elec       q    Type
REMARK                         _______ _______ _______ _____ _____    ______ ____
ROOT
ATOM      1  O   UNL     1       4.634   3.260  18.371  0.00  0.00    +0.000 OA
ATOM      2  C   UNL     1       4.764   4.331  17.776  0.00  0.00    +0.000 C 
ATOM      3  N   UNL     1       4.275   5.523  18.307  0.00  0.00    +0.000 N 
ATOM      4  C   UNL     1       4.206   6.811  17.599  0.00  0.00    +0.000 C 
ATOM      5  C   UNL     1       2.806   7.437  17.692  0.00  0.00    +0.000 C 
ATOM      6  N   UNL     1       2.379   7.492  19.090  0.00  0.00    +0.000 N 
ATOM      7  C   UNL     1       1.643   8.523  19.541  0.00  0.00    +0.000 A 
ATOM      8  N   UNL     1       1.363   9.577  18.708  0.00  0.00    +0.000 NA
ATOM      9  C   UNL     1       0.697  10.411  19.466  0.00  0.00    +0.000 A 
ATOM     10  N   UNL     1       0.585   9.884  20.708  0.00  0.00    +0.000 N 
ATOM     11  N   UNL     1       1.153   8.675  20.776  0.00  0.00    +0.000 NA
ATOM     12  C   UNL     1       2.384   6.205  19.788  0.00  0.00    +0.000 C 
ATOM     13  C   UNL     1       3.777   5.557  19.686  0.00  0.00    +0.000 C 
ATOM     14  H   UNL     1       0.152  10.277  21.536  0.00  0.00    +0.000 HD
ENDROOT
BRANCH   2  15
ATOM     15  C   UNL     1       5.414   4.374  16.459  0.00  0.00    +0.000 A 
ATOM     16  C   UNL     1       5.063   3.614  15.360  0.00  0.00    +0.000 A 
ATOM     17  N   UNL     1       5.906   4.007  14.361  0.00  0.00    +0.000 N 
ATOM     18  C   UNL     1       6.772   4.926  14.868  0.00  0.00    +0.000 A 
ATOM     19  N   UNL     1       6.507   5.162  16.135  0.00  0.00    +0.000 NA
ATOM     20  C   UNL     1       7.860   5.544  14.085  0.00  0.00    +0.000 C 
ATOM     21  C   UNL     1       7.919   5.154  12.614  0.00  0.00    +0.000 C 
ATOM     22  C   UNL     1       6.915   4.139  12.064  0.00  0.00    +0.000 C 
ATOM     23  C   UNL     1       5.883   3.530  13.006  0.00  0.00    +0.000 C 
ENDBRANCH   2  15
TORSDOF 1
ENDMDL
MODEL 5
REMARK VINA RESULT:      -7.1      2.557      3.617
REMARK  Name = 
REMARK  1 active torsions:
REMARK  status: ('A' for Active; 'I' for Inactive)
REMARK    1  A    between atoms: C_2  and  C_3
REMARK                            x       y       z     vdW  Elec       q    Type
REMARK                         _______ _______ _______ _____ _____    ______ ____
ROOT
ATOM      1  O   UNL     1       2.016   5.174  21.121  0.00  0.00    +0.000 OA
ATOM      2  C   UNL     1       2.090   5.990  20.200  0.00  0.00    +0.000 C 
ATOM      3  N   UNL     1       2.653   5.652  18.971  0.00  0.00    +0.000 N 
ATOM      4  C   UNL     1       2.963   6.593  17.883  0.00  0.00    +0.000 C 
ATOM      5  C   UNL     1       4.408   6.431  17.385  0.00  0.00    +0.000 C 
ATOM      6  N   UNL     1       4.667   5.028  17.063  0.00  0.00    +0.000 N 
ATOM      7  C   UNL     1       5.463   4.699  16.030  0.00  0.00    +0.000 A 
ATOM      8  N   UNL     1       5.968   5.682  15.217  0.00  0.00    +0.000 NA
ATOM      9  C   UNL     1       6.634   5.025  14.302  0.00  0.00    +0.000 A 
ATOM     10  N   UNL     1       6.531   3.698  14.550  0.00  0.00    +0.000 N 
ATOM     11  N   UNL     1       5.815   3.464  15.656  0.00  0.00    +0.000 NA
ATOM     12  C   UNL     1       4.421   4.088  18.158  0.00  0.00    +0.000 C 
ATOM     13  C   UNL     1       2.982   4.253  18.680  0.00  0.00    +0.000 C 
ATOM     14  H   UNL     1       6.906   2.916  14.026  0.00  0.00    +0.000 HD
ENDROOT
BRANCH   2  15
ATOM     15  C   UNL     1       1.614   7.367  20.389  0.00  0.00    +0.000 A 
ATOM     16  C   UNL     1       1.715   8.391  19.467  0.00  0.00    +0.000 A 
ATOM     17  N   UNL     1       1.115   9.469  20.051  0.00  0.00    +0.000 N 
ATOM     18  C   UNL     1       0.726   9.114  21.307  0.00  0.00    +0.000 A 
ATOM     19  N   UNL     1       1.021   7.854  21.544  0.00  0.00    +0.000 NA
ATOM     20  C   UNL     1       0.080  10.042  22.255  0.00  0.00    +0.000 C 
ATOM     21  C   UNL     1      -0.216  11.436  21.718  0.00  0.00    +0.000 C 
ATOM     22  C   UNL     1       0.208  11.799  20.294  0.00  0.00    +0.000 C 
ATOM     23  C   UNL     1       0.930  10.758  19.445  0.00  0.00    +0.000 C 
ENDBRANCH   2  15
TORSDOF 1
ENDMDL
MODEL 6
REMARK VINA RESULT:      -7.1      2.563      3.784
REMARK  Name = 
REMARK  1 active torsions:
REMARK  status: ('A' for Active; 'I' for Inactive)
REMARK    1  A    between atoms: C_2  and  C_3
REMARK                            x       y       z     vdW  Elec       q    Type
REMARK                         _______ _______ _______ _____ _____    ______ ____
ROOT
ATOM      1  O   UNL     1       2.043   5.489  21.024  0.00  0.00    +0.000 OA
ATOM      2  C   UNL     1       2.126   6.258  20.065  0.00  0.00    +0.000 C 
ATOM      3  N   UNL     1       2.695   5.856  18.858  0.00  0.00    +0.000 N 
ATOM      4  C   UNL     1       3.016   6.741  17.727  0.00  0.00    +0.000 C 
ATOM      5  C   UNL     1       4.462   6.546  17.245  0.00  0.00    +0.000 C 
ATOM      6  N   UNL     1       4.715   5.128  16.994  0.00  0.00    +0.000 N 
ATOM      7  C   UNL     1       5.515   4.743  15.984  0.00  0.00    +0.000 A 
ATOM      8  N   UNL     1       6.030   5.682  15.126  0.00  0.00    +0.000 NA
ATOM      9  C   UNL     1       6.697   4.977  14.249  0.00  0.00    +0.000 A 
ATOM     10  N   UNL     1       6.586   3.664  14.561  0.00  0.00    +0.000 N 
ATOM     11  N   UNL     1       5.862   3.490  15.673  0.00  0.00    +0.000 NA
ATOM     12  C   UNL     1       4.457   4.244  18.133  0.00  0.00    +0.000 C 
ATOM     13  C   UNL     1       3.016   4.442  18.638  0.00  0.00    +0.000 C 
ATOM     14  H   UNL     1       6.959   2.855  14.078  0.00  0.00    +0.000 HD
ENDROOT
BRANCH   2  15
ATOM     15  C   UNL     1       1.657   7.645  20.183  0.00  0.00    +0.000 A 
ATOM     16  C   UNL     1       1.097   8.216  21.310  0.00  0.00    +0.000 A 
ATOM     17  N   UNL     1       0.848   9.515  20.974  0.00  0.00    +0.000 N 
ATOM     18  C   UNL     1       1.190   9.694  19.669  0.00  0.00    +0.000 A 
ATOM     19  N   UNL     1       1.673   8.581  19.161  0.00  0.00    +0.000 NA
ATOM     20  C   UNL     1       1.015  10.969  18.946  0.00  0.00    +0.000 C 
ATOM     21  C   UNL     1       0.495  12.135  19.776  0.00  0.00    +0.000 C 
ATOM     22  C   UNL     1       0.144  11.911  21.249  0.00  0.00    +0.000 C 
ATOM     23  C   UNL     1       0.313  10.520  21.850  0.00  0.00    +0.000 C 
ENDBRANCH   2  15
TORSDOF 1
ENDMDL
MODEL 7
REMARK VINA RESULT:      -7.1      2.390      8.134
REMARK  Name = 
REMARK  1 active torsions:
REMARK  status: ('A' for Active; 'I' for Inactive)
REMARK    1  A    between atoms: C_2  and  C_3
REMARK                            x       y       z     vdW  Elec       q    Type
REMARK                         _______ _______ _______ _____ _____    ______ ____
ROOT
ATOM      1  O   UNL     1       1.702   5.252  20.848  0.00  0.00    +0.000 OA
ATOM      2  C   UNL     1       2.271   6.066  20.117  0.00  0.00    +0.000 C 
ATOM      3  N   UNL     1       1.938   7.419  20.138  0.00  0.00    +0.000 N 
ATOM      4  C   UNL     1       2.413   8.431  19.181  0.00  0.00    +0.000 C 
ATOM      5  C   UNL     1       1.251   9.249  18.595  0.00  0.00    +0.000 C 
ATOM      6  N   UNL     1       0.422   9.780  19.677  0.00  0.00    +0.000 N 
ATOM      7  C   UNL     1      -0.149  10.993  19.570  0.00  0.00    +0.000 A 
ATOM      8  N   UNL     1       0.116  11.777  18.475  0.00  0.00    +0.000 NA
ATOM      9  C   UNL     1      -0.537  12.886  18.715  0.00  0.00    +0.000 A 
ATOM     10  N   UNL     1      -1.167  12.777  19.908  0.00  0.00    +0.000 N 
ATOM     11  N   UNL     1      -0.959  11.576  20.460  0.00  0.00    +0.000 NA
ATOM     12  C   UNL     1      -0.107   8.774  20.600  0.00  0.00    +0.000 C 
ATOM     13  C   UNL     1       1.046   7.935  21.181  0.00  0.00    +0.000 C 
ATOM     14  H   UNL     1      -1.736  13.457  20.399  0.00  0.00    +0.000 HD
ENDROOT
BRANCH   2  15
ATOM     15  C   UNL     1       3.300   5.619  19.170  0.00  0.00    +0.000 A 
ATOM     16  C   UNL     1       3.069   5.107  17.907  0.00  0.00    +0.000 A 
ATOM     17  N   UNL     1       4.305   4.863  17.381  0.00  0.00    +0.000 N 
ATOM     18  C   UNL     1       5.239   5.161  18.325  0.00  0.00    +0.000 A 
ATOM     19  N   UNL     1       4.664   5.611  19.419  0.00  0.00    +0.000 NA
ATOM     20  C   UNL     1       6.690   4.977  18.126  0.00  0.00    +0.000 C 
ATOM     21  C   UNL     1       7.113   4.502  16.742  0.00  0.00    +0.000 C 
ATOM     22  C   UNL     1       6.042   4.201  15.691  0.00  0.00    +0.000 C 
ATOM     23  C   UNL     1       4.572   4.373  16.058  0.00  0.00    +0.000 C 
ENDBRANCH   2  15
TORSDOF 1
ENDMDL
MODEL 8
REMARK VINA RESULT:      -7.1      1.314      1.399
REMARK  Name = 
REMARK  1 active torsions:
REMARK  status: ('A' for Active; 'I' for Inactive)
REMARK    1  A    between atoms: C_2  and  C_3
REMARK                            x       y       z     vdW  Elec       q    Type
REMARK                         _______ _______ _______ _____ _____    ______ ____
ROOT
ATOM      1  O   UNL     1       1.209   9.735  17.636  0.00  0.00    +0.000 OA
ATOM      2  C   UNL     1       1.307   9.482  18.838  0.00  0.00    +0.000 C 
ATOM      3  N   UNL     1       1.909   8.309  19.288  0.00  0.00    +0.000 N 
ATOM      4  C   UNL     1       1.905   7.824  20.678  0.00  0.00    +0.000 C 
ATOM      5  C   UNL     1       1.447   6.360  20.767  0.00  0.00    +0.000 C 
ATOM      6  N   UNL     1       2.226   5.538  19.842  0.00  0.00    +0.000 N 
ATOM      7  C   UNL     1       2.566   4.278  20.165  0.00  0.00    +0.000 A 
ATOM      8  N   UNL     1       2.256   3.785  21.408  0.00  0.00    +0.000 NA
ATOM      9  C   UNL     1       2.771   2.582  21.409  0.00  0.00    +0.000 A 
ATOM     10  N   UNL     1       3.373   2.359  20.217  0.00  0.00    +0.000 N 
ATOM     11  N   UNL     1       3.235   3.410  19.399  0.00  0.00    +0.000 NA
ATOM     12  C   UNL     1       2.188   5.976  18.445  0.00  0.00    +0.000 C 
ATOM     13  C   UNL     1       2.627   7.449  18.343  0.00  0.00    +0.000 C 
ATOM     14  H   UNL     1       3.884   1.545  19.898  0.00  0.00    +0.000 HD
ENDROOT
BRANCH   2  15
ATOM     15  C   UNL     1       0.751  10.404  19.837  0.00  0.00    +0.000 A 
ATOM     16  C   UNL     1       1.123  11.723  20.016  0.00  0.00    +0.000 A 
ATOM     17  N   UNL     1       0.328  12.193  21.020  0.00  0.00    +0.000 N 
ATOM     18  C   UNL     1      -0.449  11.169  21.468  0.00  0.00    +0.000 A 
ATOM     19  N   UNL     1      -0.210  10.073  20.780  0.00  0.00    +0.000 NA
ATOM     20  C   UNL     1      -1.406  11.295  22.584  0.00  0.00    +0.000 C 
ATOM     21  C   UNL     1      -1.549  12.691  23.177  0.00  0.00    +0.000 C 
ATOM     22  C   UNL     1      -0.682  13.830  22.637  0.00  0.00    +0.000 C 
ATOM     23  C   UNL     1       0.315  13.539  21.521  0.00  0.00    +0.000 C 
ENDBRANCH   2  15
TORSDOF 1
ENDMDL
MODEL 9
REMARK VINA RESULT:      -7.1      2.248      8.197
REMARK  Name = 
REMARK  1 active torsions:
REMARK  status: ('A' for Active; 'I' for Inactive)
REMARK    1  A    between atoms: C_2  and  C_3
REMARK                            x       y       z     vdW  Elec       q    Type
REMARK                         _______ _______ _______ _____ _____    ______ ____
ROOT
ATOM      1  O   UNL     1       1.822   5.690  20.831  0.00  0.00    +0.000 OA
ATOM      2  C   UNL     1       2.218   6.491  19.982  0.00  0.00    +0.000 C 
ATOM      3  N   UNL     1       1.852   7.835  20.024  0.00  0.00    +0.000 N 
ATOM      4  C   UNL     1       2.107   8.825  18.964  0.00  0.00    +0.000 C 
ATOM      5  C   UNL     1       0.831   9.592  18.584  0.00  0.00    +0.000 C 
ATOM      6  N   UNL     1       0.204  10.141  19.785  0.00  0.00    +0.000 N 
ATOM      7  C   UNL     1      -0.415  11.334  19.751  0.00  0.00    +0.000 A 
ATOM      8  N   UNL     1      -0.384  12.085  18.602  0.00  0.00    +0.000 NA
ATOM      9  C   UNL     1      -1.016  13.185  18.927  0.00  0.00    +0.000 A 
ATOM     10  N   UNL     1      -1.407  13.103  20.220  0.00  0.00    +0.000 N 
ATOM     11  N   UNL     1      -1.062  11.928  20.759  0.00  0.00    +0.000 NA
ATOM     12  C   UNL     1      -0.111   9.155  20.822  0.00  0.00    +0.000 C 
ATOM     13  C   UNL     1       1.156   8.366  21.200  0.00  0.00    +0.000 C 
ATOM     14  H   UNL     1      -1.895  13.786  20.788  0.00  0.00    +0.000 HD
ENDROOT
BRANCH   2  15
ATOM     15  C   UNL     1       3.065   6.037  18.872  0.00  0.00    +0.000 A 
ATOM     16  C   UNL     1       3.408   4.726  18.600  0.00  0.00    +0.000 A 
ATOM     17  N   UNL     1       4.169   4.775  17.469  0.00  0.00    +0.000 N 
ATOM     18  C   UNL     1       4.327   6.080  17.114  0.00  0.00    +0.000 A 
ATOM     19  N   UNL     1       3.679   6.867  17.947  0.00  0.00    +0.000 NA
ATOM     20  C   UNL     1       5.132   6.523  15.959  0.00  0.00    +0.000 C 
ATOM     21  C   UNL     1       5.731   5.411  15.107  0.00  0.00    +0.000 C 
ATOM     22  C   UNL     1       5.515   3.953  15.513  0.00  0.00    +0.000 C 
ATOM     23  C   UNL     1       4.713   3.643  16.773  0.00  0.00    +0.000 C 
ENDBRANCH   2  15
TORSDOF 1
ENDMDL
