MODEL 1
REMARK VINA RESULT:      -7.9      0.000      0.000
REMARK  Name = 
REMARK  5 active torsions:
REMARK  status: ('A' for Active; 'I' for Inactive)
REMARK    1  A    between atoms: C_4  and  C_5
REMARK    2  A    between atoms: C_5  and  N_6
REMARK    3  A    between atoms: C_9  and  C_10
REMARK    4  A    between atoms: C_10  and  O_11
REMARK    5  A    between atoms: O_11  and  C_12
REMARK                            x       y       z     vdW  Elec       q    Type
REMARK                         _______ _______ _______ _____ _____    ______ ____
ROOT
ATOM      1  N   UNL     1       4.086   6.061  18.260  0.00  0.00    +0.000 NA
ATOM      2  C   UNL     1       4.815   4.875  18.729  0.00  0.00    +0.000 C 
ATOM      3  C   UNL     1       6.287   5.098  19.046  0.00  0.00    +0.000 C 
ATOM      4  C   UNL     1       7.020   5.728  17.872  0.00  0.00    +0.000 C 
ATOM      5  C   UNL     1       6.286   7.018  17.499  0.00  0.00    +0.000 C 
ATOM      6  C   UNL     1       4.796   6.794  17.204  0.00  0.00    +0.000 C 
ENDROOT
BRANCH   1   7
ATOM      7  C   UNL     1       2.697   5.728  17.824  0.00  0.00    +0.000 C 
BRANCH   7  11
ATOM      8  C   UNL     1       1.270   2.747  20.558  0.00  0.00    +0.000 A 
ATOM      9  C   UNL     1       1.515   4.039  21.021  0.00  0.00    +0.000 A 
ATOM     10  C   UNL     1       1.886   5.044  20.128  0.00  0.00    +0.000 A 
ATOM     11  C   UNL     1       1.990   4.763  18.762  0.00  0.00    +0.000 A 
ATOM     12  C   UNL     1       1.505   3.530  18.306  0.00  0.00    +0.000 A 
ATOM     13  C   UNL     1       1.221   2.499  19.196  0.00  0.00    +0.000 A 
ENDBRANCH   7  11
ENDBRANCH   1   7
BRANCH   4  14
ATOM     14  C   UNL     1       7.154   4.768  16.676  0.00  0.00    +0.000 C 
BRANCH  14  15
ATOM     15  O   UNL     1       7.457   5.517  15.498  0.00  0.00    +0.000 OA
BRANCH  15  16
ATOM     16  C   UNL     1       7.135   4.938  14.299  0.00  0.00    +0.000 A 
ATOM     17  C   UNL     1       7.800   5.135  13.093  0.00  0.00    +0.000 A 
ATOM     18  C   UNL     1       7.374   4.456  11.951  0.00  0.00    +0.000 A 
ATOM     19  C   UNL     1       6.286   3.605  12.054  0.00  0.00    +0.000 A 
ATOM     20  N   UNL     1       5.605   3.399  13.199  0.00  0.00    +0.000 NA
ATOM     21  C   UNL     1       6.045   4.072  14.292  0.00  0.00    +0.000 A 
ENDBRANCH  15  16
ENDBRANCH  14  15
ENDBRANCH   4  14
TORSDOF 5
ENDMDL
MODEL 2
REMARK VINA RESULT:      -7.9      0.408      1.115
REMARK  Name = 
REMARK  5 active torsions:
REMARK  status: ('A' for Active; 'I' for Inactive)
REMARK    1  A    between atoms: C_4  and  C_5
REMARK    2  A    between atoms: C_5  and  N_6
REMARK    3  A    between atoms: C_9  and  C_10
REMARK    4  A    between atoms: C_10  and  O_11
REMARK    5  A    between atoms: O_11  and  C_12
REMARK                            x       y       z     vdW  Elec       q    Type
REMARK                         _______ _______ _______ _____ _____    ______ ____
ROOT
ATOM      1  N   UNL     1       4.337   6.358  18.221  0.00  0.00    +0.000 NA
ATOM      2  C   UNL     1       5.039   5.172  18.730  0.00  0.00    +0.000 C 
ATOM      3  C   UNL     1       6.526   5.359  18.997  0.00  0.00    +0.000 C 
ATOM      4  C   UNL     1       7.247   5.906  17.775  0.00  0.00    +0.000 C 
ATOM      5  C   UNL     1       6.546   7.200  17.358  0.00  0.00    +0.000 C 
ATOM      6  C   UNL     1       5.042   7.014  17.112  0.00  0.00    +0.000 C 
ENDROOT
BRANCH   1   7
ATOM      7  C   UNL     1       2.927   6.052  17.838  0.00  0.00    +0.000 C 
BRANCH   7  11
ATOM      8  C   UNL     1       0.712   2.964  19.829  0.00  0.00    +0.000 A 
ATOM      9  C   UNL     1       1.242   2.720  18.563  0.00  0.00    +0.000 A 
ATOM     10  C   UNL     1       2.046   3.676  17.943  0.00  0.00    +0.000 A 
ATOM     11  C   UNL     1       2.341   4.874  18.600  0.00  0.00    +0.000 A 
ATOM     12  C   UNL     1       1.997   4.983  19.954  0.00  0.00    +0.000 A 
ATOM     13  C   UNL     1       1.124   4.076  20.546  0.00  0.00    +0.000 A 
ENDBRANCH   7  11
ENDBRANCH   1   7
BRANCH   4  14
ATOM     14  C   UNL     1       7.316   4.885  16.625  0.00  0.00    +0.000 C 
BRANCH  14  15
ATOM     15  O   UNL     1       7.521   5.574  15.391  0.00  0.00    +0.000 OA
BRANCH  15  16
ATOM     16  C   UNL     1       7.125   4.927  14.250  0.00  0.00    +0.000 A 
ATOM     17  C   UNL     1       7.742   5.015  13.006  0.00  0.00    +0.000 A 
ATOM     18  C   UNL     1       7.242   4.276  11.934  0.00  0.00    +0.000 A 
ATOM     19  C   UNL     1       6.130   3.476  12.142  0.00  0.00    +0.000 A 
ATOM     20  N   UNL     1       5.495   3.376  13.326  0.00  0.00    +0.000 NA
ATOM     21  C   UNL     1       6.006   4.105  14.350  0.00  0.00    +0.000 A 
ENDBRANCH  15  16
ENDBRANCH  14  15
ENDBRANCH   4  14
TORSDOF 5
ENDMDL
MODEL 3
REMARK VINA RESULT:      -7.3      3.303      5.451
REMARK  Name = 
REMARK  5 active torsions:
REMARK  status: ('A' for Active; 'I' for Inactive)
REMARK    1  A    between atoms: C_4  and  C_5
REMARK    2  A    between atoms: C_5  and  N_6
REMARK    3  A    between atoms: C_9  and  C_10
REMARK    4  A    between atoms: C_10  and  O_11
REMARK    5  A    between atoms: O_11  and  C_12
REMARK                            x       y       z     vdW  Elec       q    Type
REMARK                         _______ _______ _______ _____ _____    ______ ____
ROOT
ATOM      1  N   UNL     1       5.168   5.294  18.611  0.00  0.00    +0.000 NA
ATOM      2  C   UNL     1       4.962   6.136  17.425  0.00  0.00    +0.000 C 
ATOM      3  C   UNL     1       6.145   6.217  16.470  0.00  0.00    +0.000 C 
ATOM      4  C   UNL     1       7.416   6.638  17.192  0.00  0.00    +0.000 C 
ATOM      5  C   UNL     1       7.645   5.659  18.346  0.00  0.00    +0.000 C 
ATOM      6  C   UNL     1       6.441   5.560  19.294  0.00  0.00    +0.000 C 
ENDROOT
BRANCH   1   7
ATOM      7  C   UNL     1       4.028   5.389  19.570  0.00  0.00    +0.000 C 
BRANCH   7  11
ATOM      8  C   UNL     1       0.957   2.482  18.851  0.00  0.00    +0.000 A 
ATOM      9  C   UNL     1       2.173   2.375  18.178  0.00  0.00    +0.000 A 
ATOM     10  C   UNL     1       3.216   3.253  18.470  0.00  0.00    +0.000 A 
ATOM     11  C   UNL     1       3.052   4.229  19.458  0.00  0.00    +0.000 A 
ATOM     12  C   UNL     1       1.917   4.153  20.275  0.00  0.00    +0.000 A 
ATOM     13  C   UNL     1       0.841   3.341  19.932  0.00  0.00    +0.000 A 
ENDBRANCH   7  11
ENDBRANCH   1   7
BRANCH   4  14
ATOM     14  C   UNL     1       7.366   8.100  17.670  0.00  0.00    +0.000 C 
BRANCH  14  15
ATOM     15  O   UNL     1       8.505   8.371  18.488  0.00  0.00    +0.000 OA
BRANCH  15  16
ATOM     16  C   UNL     1       8.821   9.688  18.692  0.00  0.00    +0.000 A 
ATOM     17  C   UNL     1       9.511  10.203  19.784  0.00  0.00    +0.000 A 
ATOM     18  C   UNL     1       9.785  11.570  19.847  0.00  0.00    +0.000 A 
ATOM     19  C   UNL     1       9.348  12.380  18.811  0.00  0.00    +0.000 A 
ATOM     20  N   UNL     1       8.663  11.923  17.744  0.00  0.00    +0.000 NA
ATOM     21  C   UNL     1       8.414  10.589  17.712  0.00  0.00    +0.000 A 
ENDBRANCH  15  16
ENDBRANCH  14  15
ENDBRANCH   4  14
TORSDOF 5
ENDMDL
MODEL 4
REMARK VINA RESULT:      -7.3      3.248      5.351
REMARK  Name = 
REMARK  5 active torsions:
REMARK  status: ('A' for Active; 'I' for Inactive)
REMARK    1  A    between atoms: C_4  and  C_5
REMARK    2  A    between atoms: C_5  and  N_6
REMARK    3  A    between atoms: C_9  and  C_10
REMARK    4  A    between atoms: C_10  and  O_11
REMARK    5  A    between atoms: O_11  and  C_12
REMARK                            x       y       z     vdW  Elec       q    Type
REMARK                         _______ _______ _______ _____ _____    ______ ____
ROOT
ATOM      1  N   UNL     1       4.963   5.404  18.446  0.00  0.00    +0.000 NA
ATOM      2  C   UNL     1       4.974   6.671  17.703  0.00  0.00    +0.000 C 
ATOM      3  C   UNL     1       6.058   6.794  16.641  0.00  0.00    +0.000 C 
ATOM      4  C   UNL     1       7.437   6.517  17.218  0.00  0.00    +0.000 C 
ATOM      5  C   UNL     1       7.401   5.138  17.878  0.00  0.00    +0.000 C 
ATOM      6  C   UNL     1       6.291   5.008  18.932  0.00  0.00    +0.000 C 
ENDROOT
BRANCH   1   7
ATOM      7  C   UNL     1       3.978   5.422  19.568  0.00  0.00    +0.000 C 
BRANCH   7  11
ATOM      8  C   UNL     1       0.819   2.553  19.121  0.00  0.00    +0.000 A 
ATOM      9  C   UNL     1       0.734   3.515  20.126  0.00  0.00    +0.000 A 
ATOM     10  C   UNL     1       1.702   4.513  20.225  0.00  0.00    +0.000 A 
ATOM     11  C   UNL     1       2.750   4.567  19.300  0.00  0.00    +0.000 A 
ATOM     12  C   UNL     1       2.671   3.741  18.171  0.00  0.00    +0.000 A 
ATOM     13  C   UNL     1       1.762   2.690  18.114  0.00  0.00    +0.000 A 
ENDBRANCH   7  11
ENDBRANCH   1   7
BRANCH   4  14
ATOM     14  C   UNL     1       7.900   7.617  18.190  0.00  0.00    +0.000 C 
BRANCH  14  15
ATOM     15  O   UNL     1       7.855   8.883  17.531  0.00  0.00    +0.000 OA
BRANCH  15  16
ATOM     16  C   UNL     1       8.464   9.932  18.167  0.00  0.00    +0.000 A 
ATOM     17  C   UNL     1       9.242   9.849  19.318  0.00  0.00    +0.000 A 
ATOM     18  C   UNL     1       9.824  11.004  19.842  0.00  0.00    +0.000 A 
ATOM     19  C   UNL     1       9.600  12.209  19.198  0.00  0.00    +0.000 A 
ATOM     20  N   UNL     1       8.841  12.334  18.092  0.00  0.00    +0.000 NA
ATOM     21  C   UNL     1       8.290  11.194  17.605  0.00  0.00    +0.000 A 
ENDBRANCH  15  16
ENDBRANCH  14  15
ENDBRANCH   4  14
TORSDOF 5
ENDMDL
MODEL 5
REMARK VINA RESULT:      -7.2      3.113      6.503
REMARK  Name = 
REMARK  5 active torsions:
REMARK  status: ('A' for Active; 'I' for Inactive)
REMARK    1  A    between atoms: C_4  and  C_5
REMARK    2  A    between atoms: C_5  and  N_6
REMARK    3  A    between atoms: C_9  and  C_10
REMARK    4  A    between atoms: C_10  and  O_11
REMARK    5  A    between atoms: O_11  and  C_12
REMARK                            x       y       z     vdW  Elec       q    Type
REMARK                         _______ _______ _______ _____ _____    ______ ____
ROOT
ATOM      1  N   UNL     1       2.958   2.503  18.801  0.00  0.00    +0.000 NA
ATOM      2  C   UNL     1       3.557   2.603  20.139  0.00  0.00    +0.000 C 
ATOM      3  C   UNL     1       2.569   2.782  21.284  0.00  0.00    +0.000 C 
ATOM      4  C   UNL     1       1.641   3.962  21.040  0.00  0.00    +0.000 C 
ATOM      5  C   UNL     1       0.958   3.749  19.688  0.00  0.00    +0.000 C 
ATOM      6  C   UNL     1       1.956   3.545  18.538  0.00  0.00    +0.000 C 
ENDROOT
BRANCH   1   7
ATOM      7  C   UNL     1       3.992   2.488  17.725  0.00  0.00    +0.000 C 
BRANCH   7  11
ATOM      8  C   UNL     1       6.270   6.012  16.834  0.00  0.00    +0.000 A 
ATOM      9  C   UNL     1       5.328   5.555  15.914  0.00  0.00    +0.000 A 
ATOM     10  C   UNL     1       4.511   4.469  16.228  0.00  0.00    +0.000 A 
ATOM     11  C   UNL     1       4.619   3.850  17.477  0.00  0.00    +0.000 A 
ATOM     12  C   UNL     1       5.397   4.481  18.457  0.00  0.00    +0.000 A 
ATOM     13  C   UNL     1       6.277   5.506  18.124  0.00  0.00    +0.000 A 
ENDBRANCH   7  11
ENDBRANCH   1   7
BRANCH   4  14
ATOM     14  C   UNL     1       2.374   5.313  21.116  0.00  0.00    +0.000 C 
BRANCH  14  15
ATOM     15  O   UNL     1       1.452   6.369  20.839  0.00  0.00    +0.000 OA
BRANCH  15  16
ATOM     16  C   UNL     1       1.795   7.242  19.841  0.00  0.00    +0.000 A 
ATOM     17  C   UNL     1       2.622   6.961  18.758  0.00  0.00    +0.000 A 
ATOM     18  C   UNL     1       2.864   7.946  17.800  0.00  0.00    +0.000 A 
ATOM     19  C   UNL     1       2.274   9.188  17.964  0.00  0.00    +0.000 A 
ATOM     20  N   UNL     1       1.480   9.505  19.006  0.00  0.00    +0.000 NA
ATOM     21  C   UNL     1       1.262   8.526  19.919  0.00  0.00    +0.000 A 
ENDBRANCH  15  16
ENDBRANCH  14  15
ENDBRANCH   4  14
TORSDOF 5
ENDMDL
MODEL 6
REMARK VINA RESULT:      -7.2      3.418      5.485
REMARK  Name = 
REMARK  5 active torsions:
REMARK  status: ('A' for Active; 'I' for Inactive)
REMARK    1  A    between atoms: C_4  and  C_5
REMARK    2  A    between atoms: C_5  and  N_6
REMARK    3  A    between atoms: C_9  and  C_10
REMARK    4  A    between atoms: C_10  and  O_11
REMARK    5  A    between atoms: O_11  and  C_12
REMARK                            x       y       z     vdW  Elec       q    Type
REMARK                         _______ _______ _______ _____ _____    ______ ____
ROOT
ATOM      1  N   UNL     1       5.228   5.349  18.580  0.00  0.00    +0.000 NA
ATOM      2  C   UNL     1       5.039   6.210  17.405  0.00  0.00    +0.000 C 
ATOM      3  C   UNL     1       6.249   6.340  16.490  0.00  0.00    +0.000 C 
ATOM      4  C   UNL     1       7.486   6.775  17.259  0.00  0.00    +0.000 C 
ATOM      5  C   UNL     1       7.702   5.778  18.400  0.00  0.00    +0.000 C 
ATOM      6  C   UNL     1       6.472   5.631  19.308  0.00  0.00    +0.000 C 
ENDROOT
BRANCH   1   7
ATOM      7  C   UNL     1       4.057   5.398  19.504  0.00  0.00    +0.000 C 
BRANCH   7  11
ATOM      8  C   UNL     1       1.319   2.118  19.120  0.00  0.00    +0.000 A 
ATOM      9  C   UNL     1       0.900   3.290  19.748  0.00  0.00    +0.000 A 
ATOM     10  C   UNL     1       1.744   4.399  19.796  0.00  0.00    +0.000 A 
ATOM     11  C   UNL     1       3.004   4.347  19.193  0.00  0.00    +0.000 A 
ATOM     12  C   UNL     1       3.293   3.250  18.370  0.00  0.00    +0.000 A 
ATOM     13  C   UNL     1       2.498   2.109  18.391  0.00  0.00    +0.000 A 
ENDBRANCH   7  11
ENDBRANCH   1   7
BRANCH   4  14
ATOM     14  C   UNL     1       7.387   8.225  17.765  0.00  0.00    +0.000 C 
BRANCH  14  15
ATOM     15  O   UNL     1       8.574   8.559  18.484  0.00  0.00    +0.000 OA
BRANCH  15  16
ATOM     16  C   UNL     1       8.857   9.892  18.625  0.00  0.00    +0.000 A 
ATOM     17  C   UNL     1       8.578  10.889  17.695  0.00  0.00    +0.000 A 
ATOM     18  C   UNL     1       8.901  12.214  17.985  0.00  0.00    +0.000 A 
ATOM     19  C   UNL     1       9.503  12.498  19.199  0.00  0.00    +0.000 A 
ATOM     20  N   UNL     1       9.805  11.560  20.120  0.00  0.00    +0.000 NA
ATOM     21  C   UNL     1       9.476  10.281  19.809  0.00  0.00    +0.000 A 
ENDBRANCH  15  16
ENDBRANCH  14  15
ENDBRANCH   4  14
TORSDOF 5
ENDMDL
MODEL 7
REMARK VINA RESULT:      -7.2      3.364      5.548
REMARK  Name = 
REMARK  5 active torsions:
REMARK  status: ('A' for Active; 'I' for Inactive)
REMARK    1  A    between atoms: C_4  and  C_5
REMARK    2  A    between atoms: C_5  and  N_6
REMARK    3  A    between atoms: C_9  and  C_10
REMARK    4  A    between atoms: C_10  and  O_11
REMARK    5  A    between atoms: O_11  and  C_12
REMARK                            x       y       z     vdW  Elec       q    Type
REMARK                         _______ _______ _______ _____ _____    ______ ____
ROOT
ATOM      1  N   UNL     1       5.051   5.459  18.504  0.00  0.00    +0.000 NA
ATOM      2  C   UNL     1       4.952   6.304  17.307  0.00  0.00    +0.000 C 
ATOM      3  C   UNL     1       6.202   6.358  16.441  0.00  0.00    +0.000 C 
ATOM      4  C   UNL     1       7.427   6.749  17.254  0.00  0.00    +0.000 C 
ATOM      5  C   UNL     1       7.548   5.766  18.420  0.00  0.00    +0.000 C 
ATOM      6  C   UNL     1       6.276   5.696  19.278  0.00  0.00    +0.000 C 
ENDROOT
BRANCH   1   7
ATOM      7  C   UNL     1       3.847   5.581  19.378  0.00  0.00    +0.000 C 
BRANCH   7  11
ATOM      8  C   UNL     1       0.898   2.499  18.924  0.00  0.00    +0.000 A 
ATOM      9  C   UNL     1       1.991   2.534  18.060  0.00  0.00    +0.000 A 
ATOM     10  C   UNL     1       3.008   3.468  18.253  0.00  0.00    +0.000 A 
ATOM     11  C   UNL     1       2.945   4.359  19.329  0.00  0.00    +0.000 A 
ATOM     12  C   UNL     1       1.966   4.138  20.308  0.00  0.00    +0.000 A 
ATOM     13  C   UNL     1       0.904   3.270  20.075  0.00  0.00    +0.000 A 
ENDBRANCH   7  11
ENDBRANCH   1   7
BRANCH   4  14
ATOM     14  C   UNL     1       7.376   8.213  17.729  0.00  0.00    +0.000 C 
BRANCH  14  15
ATOM     15  O   UNL     1       8.577   8.523  18.437  0.00  0.00    +0.000 OA
BRANCH  15  16
ATOM     16  C   UNL     1       8.836   9.849  18.662  0.00  0.00    +0.000 A 
ATOM     17  C   UNL     1       8.691  10.878  17.737  0.00  0.00    +0.000 A 
ATOM     18  C   UNL     1       8.969  12.191  18.116  0.00  0.00    +0.000 A 
ATOM     19  C   UNL     1       9.394  12.431  19.412  0.00  0.00    +0.000 A 
ATOM     20  N   UNL     1       9.563  11.461  20.332  0.00  0.00    +0.000 NA
ATOM     21  C   UNL     1       9.282  10.195  19.934  0.00  0.00    +0.000 A 
ENDBRANCH  15  16
ENDBRANCH  14  15
ENDBRANCH   4  14
TORSDOF 5
ENDMDL
MODEL 8
REMARK VINA RESULT:      -7.2      2.080      7.326
REMARK  Name = 
REMARK  5 active torsions:
REMARK  status: ('A' for Active; 'I' for Inactive)
REMARK    1  A    between atoms: C_4  and  C_5
REMARK    2  A    between atoms: C_5  and  N_6
REMARK    3  A    between atoms: C_9  and  C_10
REMARK    4  A    between atoms: C_10  and  O_11
REMARK    5  A    between atoms: O_11  and  C_12
REMARK                            x       y       z     vdW  Elec       q    Type
REMARK                         _______ _______ _______ _____ _____    ______ ____
ROOT
ATOM      1  N   UNL     1       5.853   4.858  16.676  0.00  0.00    +0.000 NA
ATOM      2  C   UNL     1       5.020   5.936  16.125  0.00  0.00    +0.000 C 
ATOM      3  C   UNL     1       4.738   7.092  17.075  0.00  0.00    +0.000 C 
ATOM      4  C   UNL     1       4.152   6.602  18.390  0.00  0.00    +0.000 C 
ATOM      5  C   UNL     1       5.116   5.568  18.976  0.00  0.00    +0.000 C 
ATOM      6  C   UNL     1       5.418   4.415  18.007  0.00  0.00    +0.000 C 
ENDROOT
BRANCH   1   7
ATOM      7  C   UNL     1       5.954   3.696  15.744  0.00  0.00    +0.000 C 
BRANCH   7  11
ATOM      8  C   UNL     1       7.357   4.372  11.747  0.00  0.00    +0.000 A 
ATOM      9  C   UNL     1       6.191   3.637  11.948  0.00  0.00    +0.000 A 
ATOM     10  C   UNL     1       5.667   3.489  13.232  0.00  0.00    +0.000 A 
ATOM     11  C   UNL     1       6.300   4.100  14.319  0.00  0.00    +0.000 A 
ATOM     12  C   UNL     1       7.320   5.022  14.053  0.00  0.00    +0.000 A 
ATOM     13  C   UNL     1       7.900   5.103  12.791  0.00  0.00    +0.000 A 
ENDBRANCH   7  11
ENDBRANCH   1   7
BRANCH   4  14
ATOM     14  C   UNL     1       2.727   6.044  18.229  0.00  0.00    +0.000 C 
BRANCH  14  15
ATOM     15  O   UNL     1       2.082   6.014  19.503  0.00  0.00    +0.000 OA
BRANCH  15  16
ATOM     16  C   UNL     1       1.851   4.780  20.050  0.00  0.00    +0.000 A 
ATOM     17  C   UNL     1       1.197   3.721  19.429  0.00  0.00    +0.000 A 
ATOM     18  C   UNL     1       1.056   2.507  20.101  0.00  0.00    +0.000 A 
ATOM     19  C   UNL     1       1.571   2.396  21.382  0.00  0.00    +0.000 A 
ATOM     20  N   UNL     1       2.197   3.402  22.025  0.00  0.00    +0.000 NA
ATOM     21  C   UNL     1       2.319   4.569  21.344  0.00  0.00    +0.000 A 
ENDBRANCH  15  16
ENDBRANCH  14  15
ENDBRANCH   4  14
TORSDOF 5
ENDMDL
MODEL 9
REMARK VINA RESULT:      -7.0      1.185      1.545
REMARK  Name = 
REMARK  5 active torsions:
REMARK  status: ('A' for Active; 'I' for Inactive)
REMARK    1  A    between atoms: C_4  and  C_5
REMARK    2  A    between atoms: C_5  and  N_6
REMARK    3  A    between atoms: C_9  and  C_10
REMARK    4  A    between atoms: C_10  and  O_11
REMARK    5  A    between atoms: O_11  and  C_12
REMARK                            x       y       z     vdW  Elec       q    Type
REMARK                         _______ _______ _______ _____ _____    ______ ____
ROOT
ATOM      1  N   UNL     1       3.573   6.528  19.134  0.00  0.00    +0.000 NA
ATOM      2  C   UNL     1       4.372   5.325  19.404  0.00  0.00    +0.000 C 
ATOM      3  C   UNL     1       5.795   5.352  18.863  0.00  0.00    +0.000 C 
ATOM      4  C   UNL     1       5.820   5.669  17.376  0.00  0.00    +0.000 C 
ATOM      5  C   UNL     1       5.074   6.989  17.166  0.00  0.00    +0.000 C 
ATOM      6  C   UNL     1       3.647   6.967  17.734  0.00  0.00    +0.000 C 
ENDROOT
BRANCH   1   7
ATOM      7  C   UNL     1       2.151   6.362  19.556  0.00  0.00    +0.000 C 
BRANCH   7  11
ATOM      8  C   UNL     1       1.408   2.138  19.479  0.00  0.00    +0.000 A 
ATOM      9  C   UNL     1       1.168   2.854  20.651  0.00  0.00    +0.000 A 
ATOM     10  C   UNL     1       1.311   4.241  20.666  0.00  0.00    +0.000 A 
ATOM     11  C   UNL     1       1.673   4.920  19.498  0.00  0.00    +0.000 A 
ATOM     12  C   UNL     1       1.668   4.204  18.294  0.00  0.00    +0.000 A 
ATOM     13  C   UNL     1       1.615   2.814  18.288  0.00  0.00    +0.000 A 
ENDBRANCH   7  11
ENDBRANCH   1   7
BRANCH   4  14
ATOM     14  C   UNL     1       5.238   4.529  16.521  0.00  0.00    +0.000 C 
BRANCH  14  15
ATOM     15  O   UNL     1       6.305   3.794  15.921  0.00  0.00    +0.000 OA
BRANCH  15  16
ATOM     16  C   UNL     1       6.574   4.060  14.604  0.00  0.00    +0.000 A 
ATOM     17  C   UNL     1       5.977   3.444  13.508  0.00  0.00    +0.000 A 
ATOM     18  C   UNL     1       6.333   3.835  12.217  0.00  0.00    +0.000 A 
ATOM     19  C   UNL     1       7.285   4.830  12.066  0.00  0.00    +0.000 A 
ATOM     20  N   UNL     1       7.897   5.440  13.100  0.00  0.00    +0.000 NA
ATOM     21  C   UNL     1       7.529   5.038  14.343  0.00  0.00    +0.000 A 
ENDBRANCH  15  16
ENDBRANCH  14  15
ENDBRANCH   4  14
TORSDOF 5
ENDMDL
