MODEL 1
REMARK VINA RESULT:      -7.8      0.000      0.000
REMARK  Name = 
REMARK  10 active torsions:
REMARK  status: ('A' for Active; 'I' for Inactive)
REMARK    1  A    between atoms: C_1  and  O_2
REMARK    2  A    between atoms: O_2  and  C_3
REMARK    3  A    between atoms: C_8  and  C_9
REMARK    4  A    between atoms: C_13  and  C_14
REMARK    5  A    between atoms: C_14  and  O_15
REMARK    6  A    between atoms: O_15  and  C_16
REMARK    7  A    between atoms: C_19  and  S_20
REMARK    8  A    between atoms: S_20  and  C_23
REMARK    9  A    between atoms: C_23  and  C_24
REMARK   10  A    between atoms: C_24  and  O_26
REMARK                            x       y       z     vdW  Elec       q    Type
REMARK                         _______ _______ _______ _____ _____    ______ ____
ROOT
ATOM      1  C   UNL     1       7.740   9.367  17.544  0.00  0.00    +0.000 C 
ENDROOT
BRANCH   1   6
ATOM      2  C   UNL     1       9.654  12.583  18.460  0.00  0.00    +0.000 A 
ATOM      3  C   UNL     1      10.231  12.155  19.674  0.00  0.00    +0.000 A 
ATOM      4  C   UNL     1      10.011  10.876  20.190  0.00  0.00    +0.000 A 
ATOM      5  C   UNL     1       9.216   9.974  19.494  0.00  0.00    +0.000 A 
ATOM      6  C   UNL     1       8.631  10.346  18.275  0.00  0.00    +0.000 A 
ATOM      7  C   UNL     1       8.853  11.645  17.776  0.00  0.00    +0.000 A 
BRANCH   2  13
ATOM      8  C   UNL     1       8.916  15.032  18.135  0.00  0.00    +0.000 A 
ATOM      9  C   UNL     1       9.212  16.327  17.667  0.00  0.00    +0.000 A 
ATOM     10  C   UNL     1      10.395  16.591  16.983  0.00  0.00    +0.000 A 
ATOM     11  C   UNL     1      11.314  15.574  16.787  0.00  0.00    +0.000 A 
ATOM     12  C   UNL     1      11.053  14.299  17.294  0.00  0.00    +0.000 A 
ATOM     13  C   UNL     1       9.854  13.982  17.976  0.00  0.00    +0.000 A 
BRANCH   8  15
ATOM     14  C   UNL     1       6.577  14.706  17.940  0.00  0.00    +0.000 C 
ATOM     15  O   UNL     1       7.730  14.761  18.778  0.00  0.00    +0.000 OA
ENDBRANCH   8  15
ENDBRANCH   2  13
ENDBRANCH   1   6
BRANCH   1  16
ATOM     16  O   UNL     1       8.221   8.044  17.788  0.00  0.00    +0.000 OA
BRANCH  16  17
ATOM     17  C   UNL     1       7.275   7.071  17.960  0.00  0.00    +0.000 A 
ATOM     18  C   UNL     1       7.522   6.202  19.024  0.00  0.00    +0.000 A 
ATOM     19  C   UNL     1       6.627   5.175  19.327  0.00  0.00    +0.000 A 
ATOM     20  C   UNL     1       5.457   5.044  18.577  0.00  0.00    +0.000 A 
ATOM     21  C   UNL     1       5.192   5.912  17.514  0.00  0.00    +0.000 A 
ATOM     22  C   UNL     1       6.107   6.928  17.206  0.00  0.00    +0.000 A 
BRANCH  20  23
ATOM     23  S   UNL     1       4.323   3.749  18.987  0.00  0.00    +0.000 S 
ATOM     24  O   UNL     1       3.553   3.398  17.801  0.00  0.00    +0.000 OA
ATOM     25  O   UNL     1       5.083   2.731  19.688  0.00  0.00    +0.000 OA
BRANCH  23  26
ATOM     26  C   UNL     1       3.183   4.444  20.120  0.00  0.00    +0.000 C 
BRANCH  26  27
ATOM     27  C   UNL     1       2.442   3.369  20.835  0.00  0.00    +0.000 C 
ATOM     28  O   UNL     1       2.209   3.417  22.036  0.00  0.00    +0.000 OA
BRANCH  27  29
ATOM     29  O   UNL     1       2.105   2.296  20.089  0.00  0.00    +0.000 OA
ATOM     30  H   UNL     1       2.341   1.417  20.467  0.00  0.00    +0.000 HD
ENDBRANCH  27  29
ENDBRANCH  26  27
ENDBRANCH  23  26
ENDBRANCH  20  23
ENDBRANCH  16  17
ENDBRANCH   1  16
TORSDOF 9
ENDMDL
MODEL 2
REMARK VINA RESULT:      -7.8      6.390      9.766
REMARK  Name = 
REMARK  10 active torsions:
REMARK  status: ('A' for Active; 'I' for Inactive)
REMARK    1  A    between atoms: C_1  and  O_2
REMARK    2  A    between atoms: O_2  and  C_3
REMARK    3  A    between atoms: C_8  and  C_9
REMARK    4  A    between atoms: C_13  and  C_14
REMARK    5  A    between atoms: C_14  and  O_15
REMARK    6  A    between atoms: O_15  and  C_16
REMARK    7  A    between atoms: C_19  and  S_20
REMARK    8  A    between atoms: S_20  and  C_23
REMARK    9  A    between atoms: C_23  and  C_24
REMARK   10  A    between atoms: C_24  and  O_26
REMARK                            x       y       z     vdW  Elec       q    Type
REMARK                         _______ _______ _______ _____ _____    ______ ____
ROOT
ATOM      1  C   UNL     1       1.586   5.305  20.446  0.00  0.00    +0.000 C 
ENDROOT
BRANCH   1   6
ATOM      2  C   UNL     1       3.925   3.738  17.817  0.00  0.00    +0.000 A 
ATOM      3  C   UNL     1       3.510   2.394  17.928  0.00  0.00    +0.000 A 
ATOM      4  C   UNL     1       2.514   1.997  18.822  0.00  0.00    +0.000 A 
ATOM      5  C   UNL     1       1.886   2.942  19.625  0.00  0.00    +0.000 A 
ATOM      6  C   UNL     1       2.252   4.292  19.543  0.00  0.00    +0.000 A 
ATOM      7  C   UNL     1       3.269   4.673  18.644  0.00  0.00    +0.000 A 
BRANCH   2  13
ATOM      8  C   UNL     1       6.369   4.394  17.319  0.00  0.00    +0.000 A 
ATOM      9  C   UNL     1       7.361   4.712  16.371  0.00  0.00    +0.000 A 
ATOM     10  C   UNL     1       7.054   4.823  15.018  0.00  0.00    +0.000 A 
ATOM     11  C   UNL     1       5.760   4.584  14.589  0.00  0.00    +0.000 A 
ATOM     12  C   UNL     1       4.781   4.216  15.514  0.00  0.00    +0.000 A 
ATOM     13  C   UNL     1       5.044   4.113  16.901  0.00  0.00    +0.000 A 
BRANCH   8  15
ATOM     14  C   UNL     1       6.981   5.564  19.286  0.00  0.00    +0.000 C 
ATOM     15  O   UNL     1       6.663   4.322  18.661  0.00  0.00    +0.000 OA
ENDBRANCH   8  15
ENDBRANCH   2  13
ENDBRANCH   1   6
BRANCH   1  16
ATOM     16  O   UNL     1       2.388   6.487  20.475  0.00  0.00    +0.000 OA
BRANCH  16  17
ATOM     17  C   UNL     1       1.753   7.665  20.197  0.00  0.00    +0.000 A 
ATOM     18  C   UNL     1       0.965   8.161  21.238  0.00  0.00    +0.000 A 
ATOM     19  C   UNL     1       0.278   9.367  21.098  0.00  0.00    +0.000 A 
ATOM     20  C   UNL     1       0.413  10.098  19.916  0.00  0.00    +0.000 A 
ATOM     21  C   UNL     1       1.204   9.620  18.869  0.00  0.00    +0.000 A 
ATOM     22  C   UNL     1       1.875   8.397  19.012  0.00  0.00    +0.000 A 
BRANCH  20  23
ATOM     23  S   UNL     1      -0.450  11.636  19.764  0.00  0.00    +0.000 S 
ATOM     24  O   UNL     1      -1.514  11.684  20.758  0.00  0.00    +0.000 OA
ATOM     25  O   UNL     1       0.555  12.681  19.723  0.00  0.00    +0.000 OA
BRANCH  23  26
ATOM     26  C   UNL     1      -1.244  11.593  18.203  0.00  0.00    +0.000 C 
BRANCH  26  27
ATOM     27  C   UNL     1      -2.720  11.514  18.375  0.00  0.00    +0.000 C 
ATOM     28  O   UNL     1      -3.369  10.530  18.044  0.00  0.00    +0.000 OA
BRANCH  27  29
ATOM     29  O   UNL     1      -3.314  12.628  18.852  0.00  0.00    +0.000 OA
ATOM     30  H   UNL     1      -4.296  12.592  18.931  0.00  0.00    +0.000 HD
ENDBRANCH  27  29
ENDBRANCH  26  27
ENDBRANCH  23  26
ENDBRANCH  20  23
ENDBRANCH  16  17
ENDBRANCH   1  16
TORSDOF 9
ENDMDL
MODEL 3
REMARK VINA RESULT:      -7.7      7.962     11.473
REMARK  Name = 
REMARK  10 active torsions:
REMARK  status: ('A' for Active; 'I' for Inactive)
REMARK    1  A    between atoms: C_1  and  O_2
REMARK    2  A    between atoms: O_2  and  C_3
REMARK    3  A    between atoms: C_8  and  C_9
REMARK    4  A    between atoms: C_13  and  C_14
REMARK    5  A    between atoms: C_14  and  O_15
REMARK    6  A    between atoms: O_15  and  C_16
REMARK    7  A    between atoms: C_19  and  S_20
REMARK    8  A    between atoms: S_20  and  C_23
REMARK    9  A    between atoms: C_23  and  C_24
REMARK   10  A    between atoms: C_24  and  O_26
REMARK                            x       y       z     vdW  Elec       q    Type
REMARK                         _______ _______ _______ _____ _____    ______ ____
ROOT
ATOM      1  C   UNL     1       0.793   8.956  21.498  0.00  0.00    +0.000 C 
ENDROOT
BRANCH   1   6
ATOM      2  C   UNL     1       2.408   6.785  18.756  0.00  0.00    +0.000 A 
ATOM      3  C   UNL     1       2.488   7.751  17.731  0.00  0.00    +0.000 A 
ATOM      4  C   UNL     1       2.033   9.060  17.908  0.00  0.00    +0.000 A 
ATOM      5  C   UNL     1       1.498   9.449  19.129  0.00  0.00    +0.000 A 
ATOM      6  C   UNL     1       1.409   8.530  20.185  0.00  0.00    +0.000 A 
ATOM      7  C   UNL     1       1.860   7.210  19.984  0.00  0.00    +0.000 A 
BRANCH   2  13
ATOM      8  C   UNL     1       4.099   4.841  18.870  0.00  0.00    +0.000 A 
ATOM      9  C   UNL     1       4.398   3.489  18.614  0.00  0.00    +0.000 A 
ATOM     10  C   UNL     1       3.497   2.667  17.942  0.00  0.00    +0.000 A 
ATOM     11  C   UNL     1       2.271   3.177  17.548  0.00  0.00    +0.000 A 
ATOM     12  C   UNL     1       1.944   4.501  17.844  0.00  0.00    +0.000 A 
ATOM     13  C   UNL     1       2.838   5.376  18.505  0.00  0.00    +0.000 A 
BRANCH   8  15
ATOM     14  C   UNL     1       6.375   5.411  19.200  0.00  0.00    +0.000 C 
ATOM     15  O   UNL     1       5.004   5.664  19.499  0.00  0.00    +0.000 OA
ENDBRANCH   8  15
ENDBRANCH   2  13
ENDBRANCH   1   6
BRANCH   1  16
ATOM     16  O   UNL     1       0.931  10.373  21.626  0.00  0.00    +0.000 OA
BRANCH  16  17
ATOM     17  C   UNL     1      -0.224  11.088  21.785  0.00  0.00    +0.000 A 
ATOM     18  C   UNL     1      -0.874  10.879  23.004  0.00  0.00    +0.000 A 
ATOM     19  C   UNL     1      -2.051  11.562  23.308  0.00  0.00    +0.000 A 
ATOM     20  C   UNL     1      -2.561  12.488  22.396  0.00  0.00    +0.000 A 
ATOM     21  C   UNL     1      -1.917  12.714  21.177  0.00  0.00    +0.000 A 
ATOM     22  C   UNL     1      -0.744  12.009  20.872  0.00  0.00    +0.000 A 
BRANCH  20  23
ATOM     23  S   UNL     1      -4.045  13.360  22.806  0.00  0.00    +0.000 S 
ATOM     24  O   UNL     1      -3.696  14.674  23.328  0.00  0.00    +0.000 OA
ATOM     25  O   UNL     1      -4.932  13.242  21.663  0.00  0.00    +0.000 OA
BRANCH  23  26
ATOM     26  C   UNL     1      -4.768  12.483  24.139  0.00  0.00    +0.000 C 
BRANCH  26  27
ATOM     27  C   UNL     1      -6.235  12.732  24.187  0.00  0.00    +0.000 C 
ATOM     28  O   UNL     1      -7.057  11.826  24.143  0.00  0.00    +0.000 OA
BRANCH  27  29
ATOM     29  O   UNL     1      -6.609  14.028  24.207  0.00  0.00    +0.000 OA
ATOM     30  H   UNL     1      -5.885  14.683  24.347  0.00  0.00    +0.000 HD
ENDBRANCH  27  29
ENDBRANCH  26  27
ENDBRANCH  23  26
ENDBRANCH  20  23
ENDBRANCH  16  17
ENDBRANCH   1  16
TORSDOF 9
ENDMDL
MODEL 4
REMARK VINA RESULT:      -7.7      6.325      9.900
REMARK  Name = 
REMARK  10 active torsions:
REMARK  status: ('A' for Active; 'I' for Inactive)
REMARK    1  A    between atoms: C_1  and  O_2
REMARK    2  A    between atoms: O_2  and  C_3
REMARK    3  A    between atoms: C_8  and  C_9
REMARK    4  A    between atoms: C_13  and  C_14
REMARK    5  A    between atoms: C_14  and  O_15
REMARK    6  A    between atoms: O_15  and  C_16
REMARK    7  A    between atoms: C_19  and  S_20
REMARK    8  A    between atoms: S_20  and  C_23
REMARK    9  A    between atoms: C_23  and  C_24
REMARK   10  A    between atoms: C_24  and  O_26
REMARK                            x       y       z     vdW  Elec       q    Type
REMARK                         _______ _______ _______ _____ _____    ______ ____
ROOT
ATOM      1  C   UNL     1       1.455   5.326  20.399  0.00  0.00    +0.000 C 
ENDROOT
BRANCH   1   6
ATOM      2  C   UNL     1       3.803   3.755  17.779  0.00  0.00    +0.000 A 
ATOM      3  C   UNL     1       3.287   2.441  17.784  0.00  0.00    +0.000 A 
ATOM      4  C   UNL     1       2.223   2.065  18.606  0.00  0.00    +0.000 A 
ATOM      5  C   UNL     1       1.626   3.002  19.440  0.00  0.00    +0.000 A 
ATOM      6  C   UNL     1       2.091   4.325  19.462  0.00  0.00    +0.000 A 
ATOM      7  C   UNL     1       3.176   4.683  18.636  0.00  0.00    +0.000 A 
BRANCH   2  13
ATOM      8  C   UNL     1       6.267   4.440  17.450  0.00  0.00    +0.000 A 
ATOM      9  C   UNL     1       7.331   4.724  16.572  0.00  0.00    +0.000 A 
ATOM     10  C   UNL     1       7.140   4.744  15.193  0.00  0.00    +0.000 A 
ATOM     11  C   UNL     1       5.892   4.447  14.672  0.00  0.00    +0.000 A 
ATOM     12  C   UNL     1       4.844   4.112  15.532  0.00  0.00    +0.000 A 
ATOM     13  C   UNL     1       4.989   4.101  16.940  0.00  0.00    +0.000 A 
BRANCH   8  15
ATOM     14  C   UNL     1       7.169   5.576  19.324  0.00  0.00    +0.000 C 
ATOM     15  O   UNL     1       6.445   4.458  18.815  0.00  0.00    +0.000 OA
ENDBRANCH   8  15
ENDBRANCH   2  13
ENDBRANCH   1   6
BRANCH   1  16
ATOM     16  O   UNL     1       2.317   6.462  20.503  0.00  0.00    +0.000 OA
BRANCH  16  17
ATOM     17  C   UNL     1       1.748   7.685  20.279  0.00  0.00    +0.000 A 
ATOM     18  C   UNL     1       1.925   8.180  18.985  0.00  0.00    +0.000 A 
ATOM     19  C   UNL     1       1.378   9.407  18.611  0.00  0.00    +0.000 A 
ATOM     20  C   UNL     1       0.616  10.126  19.534  0.00  0.00    +0.000 A 
ATOM     21  C   UNL     1       0.422   9.640  20.830  0.00  0.00    +0.000 A 
ATOM     22  C   UNL     1       0.992   8.414  21.201  0.00  0.00    +0.000 A 
BRANCH  20  23
ATOM     23  S   UNL     1      -0.088  11.672  19.038  0.00  0.00    +0.000 S 
ATOM     24  O   UNL     1       0.983  12.572  18.632  0.00  0.00    +0.000 OA
ATOM     25  O   UNL     1      -1.169  11.367  18.119  0.00  0.00    +0.000 OA
BRANCH  23  26
ATOM     26  C   UNL     1      -0.791  12.370  20.481  0.00  0.00    +0.000 C 
BRANCH  26  27
ATOM     27  C   UNL     1      -1.706  13.488  20.123  0.00  0.00    +0.000 C 
ATOM     28  O   UNL     1      -1.398  14.664  20.272  0.00  0.00    +0.000 OA
BRANCH  27  29
ATOM     29  O   UNL     1      -2.932  13.125  19.692  0.00  0.00    +0.000 OA
ATOM     30  H   UNL     1      -2.963  12.346  19.089  0.00  0.00    +0.000 HD
ENDBRANCH  27  29
ENDBRANCH  26  27
ENDBRANCH  23  26
ENDBRANCH  20  23
ENDBRANCH  16  17
ENDBRANCH   1  16
TORSDOF 9
ENDMDL
MODEL 5
REMARK VINA RESULT:      -7.6      6.610      8.888
REMARK  Name = 
REMARK  10 active torsions:
REMARK  status: ('A' for Active; 'I' for Inactive)
REMARK    1  A    between atoms: C_1  and  O_2
REMARK    2  A    between atoms: O_2  and  C_3
REMARK    3  A    between atoms: C_8  and  C_9
REMARK    4  A    between atoms: C_13  and  C_14
REMARK    5  A    between atoms: C_14  and  O_15
REMARK    6  A    between atoms: O_15  and  C_16
REMARK    7  A    between atoms: C_19  and  S_20
REMARK    8  A    between atoms: S_20  and  C_23
REMARK    9  A    between atoms: C_23  and  C_24
REMARK   10  A    between atoms: C_24  and  O_26
REMARK                            x       y       z     vdW  Elec       q    Type
REMARK                         _______ _______ _______ _____ _____    ______ ____
ROOT
ATOM      1  C   UNL     1       1.062   8.972  21.626  0.00  0.00    +0.000 C 
ENDROOT
BRANCH   1   6
ATOM      2  C   UNL     1      -0.841  11.000  18.961  0.00  0.00    +0.000 A 
ATOM      3  C   UNL     1      -0.139  12.219  19.071  0.00  0.00    +0.000 A 
ATOM      4  C   UNL     1       0.910  12.391  19.976  0.00  0.00    +0.000 A 
ATOM      5  C   UNL     1       1.304  11.337  20.791  0.00  0.00    +0.000 A 
ATOM      6  C   UNL     1       0.647  10.100  20.710  0.00  0.00    +0.000 A 
ATOM      7  C   UNL     1      -0.419   9.949  19.800  0.00  0.00    +0.000 A 
BRANCH   2  13
ATOM      8  C   UNL     1      -3.284  11.443  18.262  0.00  0.00    +0.000 A 
ATOM      9  C   UNL     1      -4.310  11.292  17.310  0.00  0.00    +0.000 A 
ATOM     10  C   UNL     1      -4.117  10.533  16.158  0.00  0.00    +0.000 A 
ATOM     11  C   UNL     1      -2.886   9.944  15.927  0.00  0.00    +0.000 A 
ATOM     12  C   UNL     1      -1.846  10.131  16.840  0.00  0.00    +0.000 A 
ATOM     13  C   UNL     1      -2.005  10.876  18.032  0.00  0.00    +0.000 A 
BRANCH   8  15
ATOM     14  C   UNL     1      -4.831  12.568  19.661  0.00  0.00    +0.000 C 
ATOM     15  O   UNL     1      -3.486  12.161  19.419  0.00  0.00    +0.000 OA
ENDBRANCH   8  15
ENDBRANCH   2  13
ENDBRANCH   1   6
BRANCH   1  16
ATOM     16  O   UNL     1       0.631   7.737  21.050  0.00  0.00    +0.000 OA
BRANCH  16  17
ATOM     17  C   UNL     1       1.587   6.987  20.422  0.00  0.00    +0.000 A 
ATOM     18  C   UNL     1       1.723   5.687  20.914  0.00  0.00    +0.000 A 
ATOM     19  C   UNL     1       2.646   4.806  20.350  0.00  0.00    +0.000 A 
ATOM     20  C   UNL     1       3.413   5.223  19.261  0.00  0.00    +0.000 A 
ATOM     21  C   UNL     1       3.283   6.518  18.753  0.00  0.00    +0.000 A 
ATOM     22  C   UNL     1       2.366   7.402  19.338  0.00  0.00    +0.000 A 
BRANCH  20  23
ATOM     23  S   UNL     1       4.565   4.086  18.546  0.00  0.00    +0.000 S 
ATOM     24  O   UNL     1       5.445   4.810  17.637  0.00  0.00    +0.000 OA
ATOM     25  O   UNL     1       5.125   3.312  19.638  0.00  0.00    +0.000 OA
BRANCH  23  26
ATOM     26  C   UNL     1       3.619   3.002  17.548  0.00  0.00    +0.000 C 
BRANCH  26  27
ATOM     27  C   UNL     1       3.268   1.772  18.310  0.00  0.00    +0.000 C 
ATOM     28  O   UNL     1       2.190   1.633  18.873  0.00  0.00    +0.000 OA
BRANCH  27  29
ATOM     29  O   UNL     1       4.243   0.844  18.405  0.00  0.00    +0.000 OA
ATOM     30  H   UNL     1       4.147   0.057  17.818  0.00  0.00    +0.000 HD
ENDBRANCH  27  29
ENDBRANCH  26  27
ENDBRANCH  23  26
ENDBRANCH  20  23
ENDBRANCH  16  17
ENDBRANCH   1  16
TORSDOF 9
ENDMDL
MODEL 6
REMARK VINA RESULT:      -7.6      6.349     10.032
REMARK  Name = 
REMARK  10 active torsions:
REMARK  status: ('A' for Active; 'I' for Inactive)
REMARK    1  A    between atoms: C_1  and  O_2
REMARK    2  A    between atoms: O_2  and  C_3
REMARK    3  A    between atoms: C_8  and  C_9
REMARK    4  A    between atoms: C_13  and  C_14
REMARK    5  A    between atoms: C_14  and  O_15
REMARK    6  A    between atoms: O_15  and  C_16
REMARK    7  A    between atoms: C_19  and  S_20
REMARK    8  A    between atoms: S_20  and  C_23
REMARK    9  A    between atoms: C_23  and  C_24
REMARK   10  A    between atoms: C_24  and  O_26
REMARK                            x       y       z     vdW  Elec       q    Type
REMARK                         _______ _______ _______ _____ _____    ______ ____
ROOT
ATOM      1  C   UNL     1       1.448   6.301  20.748  0.00  0.00    +0.000 C 
ENDROOT
BRANCH   1   6
ATOM      2  C   UNL     1       4.034   4.168  18.849  0.00  0.00    +0.000 A 
ATOM      3  C   UNL     1       3.900   2.965  19.575  0.00  0.00    +0.000 A 
ATOM      4  C   UNL     1       3.012   2.840  20.646  0.00  0.00    +0.000 A 
ATOM      5  C   UNL     1       2.213   3.915  21.014  0.00  0.00    +0.000 A 
ATOM      6  C   UNL     1       2.298   5.128  20.316  0.00  0.00    +0.000 A 
ATOM      7  C   UNL     1       3.209   5.240  19.247  0.00  0.00    +0.000 A 
BRANCH   2  13
ATOM      8  C   UNL     1       6.416   4.591  17.956  0.00  0.00    +0.000 A 
ATOM      9  C   UNL     1       7.296   4.652  16.859  0.00  0.00    +0.000 A 
ATOM     10  C   UNL     1       6.836   4.482  15.556  0.00  0.00    +0.000 A 
ATOM     11  C   UNL     1       5.496   4.214  15.334  0.00  0.00    +0.000 A 
ATOM     12  C   UNL     1       4.625   4.099  16.419  0.00  0.00    +0.000 A 
ATOM     13  C   UNL     1       5.045   4.286  17.757  0.00  0.00    +0.000 A 
BRANCH   8  15
ATOM     14  C   UNL     1       7.876   5.789  19.385  0.00  0.00    +0.000 C 
ATOM     15  O   UNL     1       6.862   4.798  19.241  0.00  0.00    +0.000 OA
ENDBRANCH   8  15
ENDBRANCH   2  13
ENDBRANCH   1   6
BRANCH   1  16
ATOM     16  O   UNL     1       1.941   7.480  20.109  0.00  0.00    +0.000 OA
BRANCH  16  17
ATOM     17  C   UNL     1       1.292   8.649  20.396  0.00  0.00    +0.000 A 
ATOM     18  C   UNL     1       1.003   8.836  21.750  0.00  0.00    +0.000 A 
ATOM     19  C   UNL     1       0.363   9.996  22.187  0.00  0.00    +0.000 A 
ATOM     20  C   UNL     1       0.043  10.992  21.261  0.00  0.00    +0.000 A 
ATOM     21  C   UNL     1       0.334  10.823  19.906  0.00  0.00    +0.000 A 
ATOM     22  C   UNL     1       0.961   9.645  19.474  0.00  0.00    +0.000 A 
BRANCH  20  23
ATOM     23  S   UNL     1      -0.751  12.465  21.836  0.00  0.00    +0.000 S 
ATOM     24  O   UNL     1      -0.665  12.514  23.290  0.00  0.00    +0.000 OA
ATOM     25  O   UNL     1      -0.232  13.561  21.039  0.00  0.00    +0.000 OA
BRANCH  23  26
ATOM     26  C   UNL     1      -2.449  12.279  21.454  0.00  0.00    +0.000 C 
BRANCH  26  27
ATOM     27  C   UNL     1      -2.736  12.815  20.095  0.00  0.00    +0.000 C 
ATOM     28  O   UNL     1      -2.958  12.088  19.135  0.00  0.00    +0.000 OA
BRANCH  27  29
ATOM     29  O   UNL     1      -2.663  14.156  19.968  0.00  0.00    +0.000 OA
ATOM     30  H   UNL     1      -3.464  14.659  20.247  0.00  0.00    +0.000 HD
ENDBRANCH  27  29
ENDBRANCH  26  27
ENDBRANCH  23  26
ENDBRANCH  20  23
ENDBRANCH  16  17
ENDBRANCH   1  16
TORSDOF 9
ENDMDL
MODEL 7
REMARK VINA RESULT:      -7.6      0.995      1.438
REMARK  Name = 
REMARK  10 active torsions:
REMARK  status: ('A' for Active; 'I' for Inactive)
REMARK    1  A    between atoms: C_1  and  O_2
REMARK    2  A    between atoms: O_2  and  C_3
REMARK    3  A    between atoms: C_8  and  C_9
REMARK    4  A    between atoms: C_13  and  C_14
REMARK    5  A    between atoms: C_14  and  O_15
REMARK    6  A    between atoms: O_15  and  C_16
REMARK    7  A    between atoms: C_19  and  S_20
REMARK    8  A    between atoms: S_20  and  C_23
REMARK    9  A    between atoms: C_23  and  C_24
REMARK   10  A    between atoms: C_24  and  O_26
REMARK                            x       y       z     vdW  Elec       q    Type
REMARK                         _______ _______ _______ _____ _____    ______ ____
ROOT
ATOM      1  C   UNL     1       8.192   9.536  17.701  0.00  0.00    +0.000 C 
ENDROOT
BRANCH   1   6
ATOM      2  C   UNL     1       9.765  12.923  18.647  0.00  0.00    +0.000 A 
ATOM      3  C   UNL     1      10.232  12.594  19.938  0.00  0.00    +0.000 A 
ATOM      4  C   UNL     1      10.044  11.327  20.494  0.00  0.00    +0.000 A 
ATOM      5  C   UNL     1       9.396  10.338  19.764  0.00  0.00    +0.000 A 
ATOM      6  C   UNL     1       8.926  10.610  18.472  0.00  0.00    +0.000 A 
ATOM      7  C   UNL     1       9.112  11.899  17.932  0.00  0.00    +0.000 A 
BRANCH   2  13
ATOM      8  C   UNL     1       8.929  15.320  18.193  0.00  0.00    +0.000 A 
ATOM      9  C   UNL     1       9.185  16.608  17.684  0.00  0.00    +0.000 A 
ATOM     10  C   UNL     1      10.382  16.902  17.038  0.00  0.00    +0.000 A 
ATOM     11  C   UNL     1      11.354  15.922  16.921  0.00  0.00    +0.000 A 
ATOM     12  C   UNL     1      11.131  14.657  17.470  0.00  0.00    +0.000 A 
ATOM     13  C   UNL     1       9.921  14.310  18.115  0.00  0.00    +0.000 A 
BRANCH   8  15
ATOM     14  C   UNL     1       6.644  14.760  17.911  0.00  0.00    +0.000 C 
ATOM     15  O   UNL     1       7.731  15.018  18.798  0.00  0.00    +0.000 OA
ENDBRANCH   8  15
ENDBRANCH   2  13
ENDBRANCH   1   6
BRANCH   1  16
ATOM     16  O   UNL     1       8.626   8.260  18.174  0.00  0.00    +0.000 OA
BRANCH  16  17
ATOM     17  C   UNL     1       7.685   7.267  18.209  0.00  0.00    +0.000 A 
ATOM     18  C   UNL     1       6.612   7.454  17.336  0.00  0.00    +0.000 A 
ATOM     19  C   UNL     1       5.591   6.507  17.252  0.00  0.00    +0.000 A 
ATOM     20  C   UNL     1       5.667   5.347  18.026  0.00  0.00    +0.000 A 
ATOM     21  C   UNL     1       6.740   5.143  18.898  0.00  0.00    +0.000 A 
ATOM     22  C   UNL     1       7.751   6.109  18.988  0.00  0.00    +0.000 A 
BRANCH  20  23
ATOM     23  S   UNL     1       4.373   4.147  17.893  0.00  0.00    +0.000 S 
ATOM     24  O   UNL     1       4.378   3.591  16.546  0.00  0.00    +0.000 OA
ATOM     25  O   UNL     1       4.492   3.270  19.043  0.00  0.00    +0.000 OA
BRANCH  23  26
ATOM     26  C   UNL     1       2.872   5.036  18.048  0.00  0.00    +0.000 C 
BRANCH  26  27
ATOM     27  C   UNL     1       2.350   4.932  19.438  0.00  0.00    +0.000 C 
ATOM     28  O   UNL     1       1.294   4.373  19.704  0.00  0.00    +0.000 OA
BRANCH  27  29
ATOM     29  O   UNL     1       3.078   5.559  20.385  0.00  0.00    +0.000 OA
ATOM     30  H   UNL     1       3.528   6.389  20.102  0.00  0.00    +0.000 HD
ENDBRANCH  27  29
ENDBRANCH  26  27
ENDBRANCH  23  26
ENDBRANCH  20  23
ENDBRANCH  16  17
ENDBRANCH   1  16
TORSDOF 9
ENDMDL
MODEL 8
REMARK VINA RESULT:      -7.6      6.858      9.203
REMARK  Name = 
REMARK  10 active torsions:
REMARK  status: ('A' for Active; 'I' for Inactive)
REMARK    1  A    between atoms: C_1  and  O_2
REMARK    2  A    between atoms: O_2  and  C_3
REMARK    3  A    between atoms: C_8  and  C_9
REMARK    4  A    between atoms: C_13  and  C_14
REMARK    5  A    between atoms: C_14  and  O_15
REMARK    6  A    between atoms: O_15  and  C_16
REMARK    7  A    between atoms: C_19  and  S_20
REMARK    8  A    between atoms: S_20  and  C_23
REMARK    9  A    between atoms: C_23  and  C_24
REMARK   10  A    between atoms: C_24  and  O_26
REMARK                            x       y       z     vdW  Elec       q    Type
REMARK                         _______ _______ _______ _____ _____    ______ ____
ROOT
ATOM      1  C   UNL     1       1.566   9.094  18.099  0.00  0.00    +0.000 C 
ENDROOT
BRANCH   1   6
ATOM      2  C   UNL     1      -1.530  11.297  18.734  0.00  0.00    +0.000 A 
ATOM      3  C   UNL     1      -1.042  12.050  19.823  0.00  0.00    +0.000 A 
ATOM      4  C   UNL     1       0.238  11.856  20.345  0.00  0.00    +0.000 A 
ATOM      5  C   UNL     1       1.082  10.909  19.778  0.00  0.00    +0.000 A 
ATOM      6  C   UNL     1       0.650  10.145  18.685  0.00  0.00    +0.000 A 
ATOM      7  C   UNL     1      -0.650  10.344  18.181  0.00  0.00    +0.000 A 
BRANCH   2  13
ATOM      8  C   UNL     1      -3.368  11.226  16.926  0.00  0.00    +0.000 A 
ATOM      9  C   UNL     1      -4.720  11.407  16.576  0.00  0.00    +0.000 A 
ATOM     10  C   UNL     1      -5.641  11.902  17.496  0.00  0.00    +0.000 A 
ATOM     11  C   UNL     1      -5.231  12.190  18.787  0.00  0.00    +0.000 A 
ATOM     12  C   UNL     1      -3.904  11.963  19.158  0.00  0.00    +0.000 A 
ATOM     13  C   UNL     1      -2.931  11.483  18.250  0.00  0.00    +0.000 A 
BRANCH   8  15
ATOM     14  C   UNL     1      -2.995  10.258  14.796  0.00  0.00    +0.000 C 
ATOM     15  O   UNL     1      -2.449  10.775  16.008  0.00  0.00    +0.000 OA
ENDBRANCH   8  15
ENDBRANCH   2  13
ENDBRANCH   1   6
BRANCH   1  16
ATOM     16  O   UNL     1       2.248   8.437  19.169  0.00  0.00    +0.000 OA
BRANCH  16  17
ATOM     17  C   UNL     1       2.217   7.070  19.167  0.00  0.00    +0.000 A 
ATOM     18  C   UNL     1       1.909   6.493  20.401  0.00  0.00    +0.000 A 
ATOM     19  C   UNL     1       1.822   5.107  20.537  0.00  0.00    +0.000 A 
ATOM     20  C   UNL     1       2.011   4.296  19.416  0.00  0.00    +0.000 A 
ATOM     21  C   UNL     1       2.312   4.859  18.173  0.00  0.00    +0.000 A 
ATOM     22  C   UNL     1       2.415   6.252  18.051  0.00  0.00    +0.000 A 
BRANCH  20  23
ATOM     23  S   UNL     1       1.878   2.542  19.602  0.00  0.00    +0.000 S 
ATOM     24  O   UNL     1       1.825   2.218  21.022  0.00  0.00    +0.000 OA
ATOM     25  O   UNL     1       0.815   2.104  18.716  0.00  0.00    +0.000 OA
BRANCH  23  26
ATOM     26  C   UNL     1       3.383   1.876  19.006  0.00  0.00    +0.000 C 
BRANCH  26  27
ATOM     27  C   UNL     1       4.524   2.350  19.837  0.00  0.00    +0.000 C 
ATOM     28  O   UNL     1       4.721   1.945  20.976  0.00  0.00    +0.000 OA
BRANCH  27  29
ATOM     29  O   UNL     1       5.290   3.313  19.284  0.00  0.00    +0.000 OA
ATOM     30  H   UNL     1       4.853   4.185  19.146  0.00  0.00    +0.000 HD
ENDBRANCH  27  29
ENDBRANCH  26  27
ENDBRANCH  23  26
ENDBRANCH  20  23
ENDBRANCH  16  17
ENDBRANCH   1  16
TORSDOF 9
ENDMDL
MODEL 9
REMARK VINA RESULT:      -7.6      3.165     10.303
REMARK  Name = 
REMARK  10 active torsions:
REMARK  status: ('A' for Active; 'I' for Inactive)
REMARK    1  A    between atoms: C_1  and  O_2
REMARK    2  A    between atoms: O_2  and  C_3
REMARK    3  A    between atoms: C_8  and  C_9
REMARK    4  A    between atoms: C_13  and  C_14
REMARK    5  A    between atoms: C_14  and  O_15
REMARK    6  A    between atoms: O_15  and  C_16
REMARK    7  A    between atoms: C_19  and  S_20
REMARK    8  A    between atoms: S_20  and  C_23
REMARK    9  A    between atoms: C_23  and  C_24
REMARK   10  A    between atoms: C_24  and  O_26
REMARK                            x       y       z     vdW  Elec       q    Type
REMARK                         _______ _______ _______ _____ _____    ______ ____
ROOT
ATOM      1  C   UNL     1       7.858   7.153  18.117  0.00  0.00    +0.000 C 
ENDROOT
BRANCH   1   6
ATOM      2  C   UNL     1       4.835   4.764  18.149  0.00  0.00    +0.000 A 
ATOM      3  C   UNL     1       4.909   4.301  16.819  0.00  0.00    +0.000 A 
ATOM      4  C   UNL     1       5.893   4.743  15.933  0.00  0.00    +0.000 A 
ATOM      5  C   UNL     1       6.851   5.655  16.359  0.00  0.00    +0.000 A 
ATOM      6  C   UNL     1       6.830   6.135  17.675  0.00  0.00    +0.000 A 
ATOM      7  C   UNL     1       5.821   5.688  18.552  0.00  0.00    +0.000 A 
BRANCH   2  13
ATOM      8  C   UNL     1       2.479   4.988  19.174  0.00  0.00    +0.000 A 
ATOM      9  C   UNL     1       1.484   4.475  20.029  0.00  0.00    +0.000 A 
ATOM     10  C   UNL     1       1.720   3.349  20.813  0.00  0.00    +0.000 A 
ATOM     11  C   UNL     1       2.941   2.701  20.729  0.00  0.00    +0.000 A 
ATOM     12  C   UNL     1       3.914   3.171  19.845  0.00  0.00    +0.000 A 
ATOM     13  C   UNL     1       3.725   4.323  19.046  0.00  0.00    +0.000 A 
BRANCH   8  15
ATOM     14  C   UNL     1       2.392   7.355  19.132  0.00  0.00    +0.000 C 
ATOM     15  O   UNL     1       2.261   6.122  18.427  0.00  0.00    +0.000 OA
ENDBRANCH   8  15
ENDBRANCH   2  13
ENDBRANCH   1   6
BRANCH   1  16
ATOM     16  O   UNL     1       7.646   8.360  17.383  0.00  0.00    +0.000 OA
BRANCH  16  17
ATOM     17  C   UNL     1       8.179   9.502  17.915  0.00  0.00    +0.000 A 
ATOM     18  C   UNL     1       8.960   9.301  19.055  0.00  0.00    +0.000 A 
ATOM     19  C   UNL     1       9.583  10.377  19.689  0.00  0.00    +0.000 A 
ATOM     20  C   UNL     1       9.448  11.659  19.152  0.00  0.00    +0.000 A 
ATOM     21  C   UNL     1       8.677  11.874  18.007  0.00  0.00    +0.000 A 
ATOM     22  C   UNL     1       8.040  10.789  17.389  0.00  0.00    +0.000 A 
BRANCH  20  23
ATOM     23  S   UNL     1      10.261  13.009  19.957  0.00  0.00    +0.000 S 
ATOM     24  O   UNL     1       9.824  14.258  19.348  0.00  0.00    +0.000 OA
ATOM     25  O   UNL     1      10.106  12.802  21.385  0.00  0.00    +0.000 OA
BRANCH  23  26
ATOM     26  C   UNL     1      11.962  12.849  19.574  0.00  0.00    +0.000 C 
BRANCH  26  27
ATOM     27  C   UNL     1      12.164  12.866  18.099  0.00  0.00    +0.000 C 
ATOM     28  O   UNL     1      12.227  13.906  17.456  0.00  0.00    +0.000 OA
BRANCH  27  29
ATOM     29  O   UNL     1      12.200  11.659  17.499  0.00  0.00    +0.000 OA
ATOM     30  H   UNL     1      13.092  11.340  17.224  0.00  0.00    +0.000 HD
ENDBRANCH  27  29
ENDBRANCH  26  27
ENDBRANCH  23  26
ENDBRANCH  20  23
ENDBRANCH  16  17
ENDBRANCH   1  16
TORSDOF 9
ENDMDL
