MODEL 1
REMARK VINA RESULT:      -8.2      0.000      0.000
REMARK  Name = 
REMARK  13 active torsions:
REMARK  status: ('A' for Active; 'I' for Inactive)
REMARK    1  A    between atoms: C_2  and  C_3
REMARK    2  A    between atoms: C_2  and  O_13
REMARK    3  A    between atoms: C_4  and  C_5
REMARK    4  A    between atoms: C_8  and  O_9
REMARK    5  A    between atoms: C_10  and  O_11
REMARK    6  A    between atoms: O_13  and  C_14
REMARK    7  A    between atoms: C_14  and  C_15
REMARK    8  A    between atoms: C_14  and  C_27
REMARK    9  A    between atoms: C_15  and  C_16
REMARK   10  A    between atoms: C_18  and  O_19
REMARK   11  A    between atoms: C_20  and  O_21
REMARK   12  A    between atoms: C_23  and  N_24
REMARK   13  A    between atoms: C_27  and  O_29
REMARK                            x       y       z     vdW  Elec       q    Type
REMARK                         _______ _______ _______ _____ _____    ______ ____
ROOT
ATOM      1  C   UNL     1       6.258   5.192  17.489  0.00  0.00    +0.000 C 
ENDROOT
BRANCH   1   2
ATOM      2  C   UNL     1       6.656   4.411  16.233  0.00  0.00    +0.000 C 
ATOM      3  O   UNL     1       7.554   4.742  15.472  0.00  0.00    +0.000 OA
BRANCH   2   4
ATOM      4  O   UNL     1       5.899   3.321  15.987  0.00  0.00    +0.000 OA
ATOM      5  H   UNL     1       4.998   3.325  16.356  0.00  0.00    +0.000 HD
ENDBRANCH   2   4
ENDBRANCH   1   2
BRANCH   1   6
ATOM      6  O   UNL     1       7.365   6.071  17.771  0.00  0.00    +0.000 OA
BRANCH   6   8
ATOM      7  O   UNL     1       6.142   7.843  17.025  0.00  0.00    +0.000 OA
ATOM      8  C   UNL     1       7.114   7.385  17.607  0.00  0.00    +0.000 C 
BRANCH   8   9
ATOM      9  C   UNL     1       8.234   8.230  18.082  0.00  0.00    +0.000 C 
ATOM     10  C   UNL     1       8.342   9.547  17.838  0.00  0.00    +0.000 C 
BRANCH  10  11
ATOM     11  C   UNL     1       9.348  10.437  18.451  0.00  0.00    +0.000 A 
ATOM     12  C   UNL     1       9.406  10.682  19.835  0.00  0.00    +0.000 A 
ATOM     13  C   UNL     1      10.372  11.540  20.379  0.00  0.00    +0.000 A 
ATOM     14  C   UNL     1      11.298  12.140  19.539  0.00  0.00    +0.000 A 
ATOM     15  C   UNL     1      11.261  11.896  18.172  0.00  0.00    +0.000 A 
ATOM     16  C   UNL     1      10.306  11.052  17.623  0.00  0.00    +0.000 A 
BRANCH  14  17
ATOM     17  O   UNL     1      12.269  12.980  20.013  0.00  0.00    +0.000 OA
ATOM     18  H   UNL     1      12.748  13.353  19.253  0.00  0.00    +0.000 HD
ENDBRANCH  14  17
BRANCH  15  19
ATOM     19  O   UNL     1      12.181  12.489  17.353  0.00  0.00    +0.000 OA
ATOM     20  H   UNL     1      12.022  12.088  16.472  0.00  0.00    +0.000 HD
ENDBRANCH  15  19
ENDBRANCH  10  11
ENDBRANCH   8   9
ENDBRANCH   6   8
ENDBRANCH   1   6
BRANCH   1  21
ATOM     21  C   UNL     1       5.872   4.291  18.681  0.00  0.00    +0.000 C 
BRANCH  21  22
ATOM     22  C   UNL     1       4.500   4.401  19.331  0.00  0.00    +0.000 A 
ATOM     23  C   UNL     1       3.864   5.640  19.493  0.00  0.00    +0.000 A 
ATOM     24  C   UNL     1       2.528   5.703  19.880  0.00  0.00    +0.000 A 
ATOM     25  C   UNL     1       1.816   4.550  20.184  0.00  0.00    +0.000 A 
ATOM     26  C   UNL     1       2.422   3.309  20.126  0.00  0.00    +0.000 A 
ATOM     27  C   UNL     1       3.757   3.245  19.699  0.00  0.00    +0.000 A 
BRANCH  27  28
ATOM     28  N   UNL     1       4.348   1.915  19.626  0.00  0.00    +0.000 N 
ATOM     29  O   UNL     1       5.163   1.611  20.509  0.00  0.00    +0.000 OA
ATOM     30  O   UNL     1       3.992   1.186  18.692  0.00  0.00    +0.000 OA
ENDBRANCH  27  28
BRANCH  24  31
ATOM     31  O   UNL     1       1.860   6.895  19.917  0.00  0.00    +0.000 OA
ATOM     32  H   UNL     1       0.952   6.743  19.598  0.00  0.00    +0.000 HD
ENDBRANCH  24  31
BRANCH  25  33
ATOM     33  O   UNL     1       0.496   4.635  20.514  0.00  0.00    +0.000 OA
ATOM     34  H   UNL     1       0.371   5.562  20.805  0.00  0.00    +0.000 HD
ENDBRANCH  25  33
ENDBRANCH  21  22
ENDBRANCH   1  21
TORSDOF 13
ENDMDL
MODEL 2
REMARK VINA RESULT:      -8.1      1.707      2.728
REMARK  Name = 
REMARK  13 active torsions:
REMARK  status: ('A' for Active; 'I' for Inactive)
REMARK    1  A    between atoms: C_2  and  C_3
REMARK    2  A    between atoms: C_2  and  O_13
REMARK    3  A    between atoms: C_4  and  C_5
REMARK    4  A    between atoms: C_8  and  O_9
REMARK    5  A    between atoms: C_10  and  O_11
REMARK    6  A    between atoms: O_13  and  C_14
REMARK    7  A    between atoms: C_14  and  C_15
REMARK    8  A    between atoms: C_14  and  C_27
REMARK    9  A    between atoms: C_15  and  C_16
REMARK   10  A    between atoms: C_18  and  O_19
REMARK   11  A    between atoms: C_20  and  O_21
REMARK   12  A    between atoms: C_23  and  N_24
REMARK   13  A    between atoms: C_27  and  O_29
REMARK                            x       y       z     vdW  Elec       q    Type
REMARK                         _______ _______ _______ _____ _____    ______ ____
ROOT
ATOM      1  C   UNL     1       6.481   5.653  17.987  0.00  0.00    +0.000 C 
ENDROOT
BRANCH   1   2
ATOM      2  C   UNL     1       7.277   4.575  17.244  0.00  0.00    +0.000 C 
ATOM      3  O   UNL     1       6.996   4.159  16.129  0.00  0.00    +0.000 OA
BRANCH   2   4
ATOM      4  O   UNL     1       8.314   4.064  17.939  0.00  0.00    +0.000 OA
ATOM      5  H   UNL     1       8.224   3.144  18.244  0.00  0.00    +0.000 HD
ENDBRANCH   2   4
ENDBRANCH   1   2
BRANCH   1   6
ATOM      6  O   UNL     1       7.459   6.594  18.475  0.00  0.00    +0.000 OA
BRANCH   6   8
ATOM      7  O   UNL     1       7.210   7.836  16.581  0.00  0.00    +0.000 OA
ATOM      8  C   UNL     1       7.612   7.704  17.727  0.00  0.00    +0.000 C 
BRANCH   8   9
ATOM      9  C   UNL     1       8.465   8.713  18.397  0.00  0.00    +0.000 C 
ATOM     10  C   UNL     1       8.597   9.986  17.982  0.00  0.00    +0.000 C 
BRANCH  10  11
ATOM     11  C   UNL     1       9.293  11.048  18.735  0.00  0.00    +0.000 A 
ATOM     12  C   UNL     1       9.645  10.917  20.090  0.00  0.00    +0.000 A 
ATOM     13  C   UNL     1      10.299  11.951  20.773  0.00  0.00    +0.000 A 
ATOM     14  C   UNL     1      10.623  13.116  20.092  0.00  0.00    +0.000 A 
ATOM     15  C   UNL     1      10.294  13.254  18.749  0.00  0.00    +0.000 A 
ATOM     16  C   UNL     1       9.642  12.237  18.066  0.00  0.00    +0.000 A 
BRANCH  14  17
ATOM     17  O   UNL     1      11.268  14.157  20.702  0.00  0.00    +0.000 OA
ATOM     18  H   UNL     1      12.184  14.183  20.374  0.00  0.00    +0.000 HD
ENDBRANCH  14  17
BRANCH  15  19
ATOM     19  O   UNL     1      10.621  14.403  18.086  0.00  0.00    +0.000 OA
ATOM     20  H   UNL     1      10.720  14.128  17.150  0.00  0.00    +0.000 HD
ENDBRANCH  15  19
ENDBRANCH  10  11
ENDBRANCH   8   9
ENDBRANCH   6   8
ENDBRANCH   1   6
BRANCH   1  21
ATOM     21  C   UNL     1       5.565   5.092  19.095  0.00  0.00    +0.000 C 
BRANCH  21  22
ATOM     22  C   UNL     1       4.252   4.404  18.749  0.00  0.00    +0.000 A 
ATOM     23  C   UNL     1       4.163   3.009  18.637  0.00  0.00    +0.000 A 
ATOM     24  C   UNL     1       2.922   2.386  18.543  0.00  0.00    +0.000 A 
ATOM     25  C   UNL     1       1.750   3.130  18.482  0.00  0.00    +0.000 A 
ATOM     26  C   UNL     1       1.789   4.511  18.499  0.00  0.00    +0.000 A 
ATOM     27  C   UNL     1       3.038   5.136  18.633  0.00  0.00    +0.000 A 
BRANCH  27  28
ATOM     28  N   UNL     1       3.030   6.593  18.673  0.00  0.00    +0.000 N 
ATOM     29  O   UNL     1       2.646   7.127  19.724  0.00  0.00    +0.000 OA
ATOM     30  O   UNL     1       3.408   7.191  17.658  0.00  0.00    +0.000 OA
ENDBRANCH  27  28
BRANCH  24  31
ATOM     31  O   UNL     1       2.813   1.023  18.564  0.00  0.00    +0.000 OA
ATOM     32  H   UNL     1       1.906   0.796  18.836  0.00  0.00    +0.000 HD
ENDBRANCH  24  31
BRANCH  25  33
ATOM     33  O   UNL     1       0.545   2.495  18.438  0.00  0.00    +0.000 OA
ATOM     34  H   UNL     1       0.716   1.671  17.936  0.00  0.00    +0.000 HD
ENDBRANCH  25  33
ENDBRANCH  21  22
ENDBRANCH   1  21
TORSDOF 13
ENDMDL
MODEL 3
REMARK VINA RESULT:      -7.9      1.673      2.938
REMARK  Name = 
REMARK  13 active torsions:
REMARK  status: ('A' for Active; 'I' for Inactive)
REMARK    1  A    between atoms: C_2  and  C_3
REMARK    2  A    between atoms: C_2  and  O_13
REMARK    3  A    between atoms: C_4  and  C_5
REMARK    4  A    between atoms: C_8  and  O_9
REMARK    5  A    between atoms: C_10  and  O_11
REMARK    6  A    between atoms: O_13  and  C_14
REMARK    7  A    between atoms: C_14  and  C_15
REMARK    8  A    between atoms: C_14  and  C_27
REMARK    9  A    between atoms: C_15  and  C_16
REMARK   10  A    between atoms: C_18  and  O_19
REMARK   11  A    between atoms: C_20  and  O_21
REMARK   12  A    between atoms: C_23  and  N_24
REMARK   13  A    between atoms: C_27  and  O_29
REMARK                            x       y       z     vdW  Elec       q    Type
REMARK                         _______ _______ _______ _____ _____    ______ ____
ROOT
ATOM      1  C   UNL     1       6.238   5.618  18.021  0.00  0.00    +0.000 C 
ENDROOT
BRANCH   1   2
ATOM      2  C   UNL     1       6.981   4.488  17.301  0.00  0.00    +0.000 C 
ATOM      3  O   UNL     1       6.621   3.993  16.242  0.00  0.00    +0.000 OA
BRANCH   2   4
ATOM      4  O   UNL     1       8.069   4.028  17.953  0.00  0.00    +0.000 OA
ATOM      5  H   UNL     1       8.653   4.698  18.352  0.00  0.00    +0.000 HD
ENDBRANCH   2   4
ENDBRANCH   1   2
BRANCH   1   6
ATOM      6  O   UNL     1       7.255   6.543  18.453  0.00  0.00    +0.000 OA
BRANCH   6   8
ATOM      7  O   UNL     1       7.053   7.675  16.486  0.00  0.00    +0.000 OA
ATOM      8  C   UNL     1       7.467   7.591  17.632  0.00  0.00    +0.000 C 
BRANCH   8   9
ATOM      9  C   UNL     1       8.397   8.582  18.223  0.00  0.00    +0.000 C 
ATOM     10  C   UNL     1       8.509   9.855  17.804  0.00  0.00    +0.000 C 
BRANCH  10  11
ATOM     11  C   UNL     1       9.291  10.901  18.493  0.00  0.00    +0.000 A 
ATOM     12  C   UNL     1      10.074  11.844  17.804  0.00  0.00    +0.000 A 
ATOM     13  C   UNL     1      10.809  12.818  18.493  0.00  0.00    +0.000 A 
ATOM     14  C   UNL     1      10.744  12.864  19.879  0.00  0.00    +0.000 A 
ATOM     15  C   UNL     1       9.963  11.948  20.571  0.00  0.00    +0.000 A 
ATOM     16  C   UNL     1       9.235  10.976  19.898  0.00  0.00    +0.000 A 
BRANCH  14  17
ATOM     17  O   UNL     1      11.432  13.796  20.606  0.00  0.00    +0.000 OA
ATOM     18  H   UNL     1      12.066  14.238  20.014  0.00  0.00    +0.000 HD
ENDBRANCH  14  17
BRANCH  15  19
ATOM     19  O   UNL     1       9.902  12.004  21.935  0.00  0.00    +0.000 OA
ATOM     20  H   UNL     1       9.333  12.780  22.125  0.00  0.00    +0.000 HD
ENDBRANCH  15  19
ENDBRANCH  10  11
ENDBRANCH   8   9
ENDBRANCH   6   8
ENDBRANCH   1   6
BRANCH   1  21
ATOM     21  C   UNL     1       5.329   5.127  19.168  0.00  0.00    +0.000 C 
BRANCH  21  22
ATOM     22  C   UNL     1       4.025   4.400  18.873  0.00  0.00    +0.000 A 
ATOM     23  C   UNL     1       3.978   3.004  18.746  0.00  0.00    +0.000 A 
ATOM     24  C   UNL     1       2.755   2.340  18.701  0.00  0.00    +0.000 A 
ATOM     25  C   UNL     1       1.557   3.044  18.707  0.00  0.00    +0.000 A 
ATOM     26  C   UNL     1       1.550   4.426  18.741  0.00  0.00    +0.000 A 
ATOM     27  C   UNL     1       2.782   5.091  18.826  0.00  0.00    +0.000 A 
BRANCH  27  28
ATOM     28  N   UNL     1       2.727   6.546  18.887  0.00  0.00    +0.000 N 
ATOM     29  O   UNL     1       2.401   7.054  19.970  0.00  0.00    +0.000 OA
ATOM     30  O   UNL     1       3.011   7.169  17.856  0.00  0.00    +0.000 OA
ENDBRANCH  27  28
BRANCH  24  31
ATOM     31  O   UNL     1       2.694   0.974  18.708  0.00  0.00    +0.000 OA
ATOM     32  H   UNL     1       2.005   0.699  18.076  0.00  0.00    +0.000 HD
ENDBRANCH  24  31
BRANCH  25  33
ATOM     33  O   UNL     1       0.373   2.368  18.710  0.00  0.00    +0.000 OA
ATOM     34  H   UNL     1       0.614   1.444  18.494  0.00  0.00    +0.000 HD
ENDBRANCH  25  33
ENDBRANCH  21  22
ENDBRANCH   1  21
TORSDOF 13
ENDMDL
MODEL 4
REMARK VINA RESULT:      -7.9      1.792      3.187
REMARK  Name = 
REMARK  13 active torsions:
REMARK  status: ('A' for Active; 'I' for Inactive)
REMARK    1  A    between atoms: C_2  and  C_3
REMARK    2  A    between atoms: C_2  and  O_13
REMARK    3  A    between atoms: C_4  and  C_5
REMARK    4  A    between atoms: C_8  and  O_9
REMARK    5  A    between atoms: C_10  and  O_11
REMARK    6  A    between atoms: O_13  and  C_14
REMARK    7  A    between atoms: C_14  and  C_15
REMARK    8  A    between atoms: C_14  and  C_27
REMARK    9  A    between atoms: C_15  and  C_16
REMARK   10  A    between atoms: C_18  and  O_19
REMARK   11  A    between atoms: C_20  and  O_21
REMARK   12  A    between atoms: C_23  and  N_24
REMARK   13  A    between atoms: C_27  and  O_29
REMARK                            x       y       z     vdW  Elec       q    Type
REMARK                         _______ _______ _______ _____ _____    ______ ____
ROOT
ATOM      1  C   UNL     1       6.301   5.639  18.517  0.00  0.00    +0.000 C 
ENDROOT
BRANCH   1   2
ATOM      2  C   UNL     1       7.602   5.106  19.127  0.00  0.00    +0.000 C 
ATOM      3  O   UNL     1       8.374   4.352  18.552  0.00  0.00    +0.000 OA
BRANCH   2   4
ATOM      4  O   UNL     1       7.827   5.501  20.398  0.00  0.00    +0.000 OA
ATOM      5  H   UNL     1       8.690   5.915  20.579  0.00  0.00    +0.000 HD
ENDBRANCH   2   4
ENDBRANCH   1   2
BRANCH   1   6
ATOM      6  O   UNL     1       6.549   7.026  18.214  0.00  0.00    +0.000 OA
BRANCH   6   8
ATOM      7  O   UNL     1       7.489   6.599  16.182  0.00  0.00    +0.000 OA
ATOM      8  C   UNL     1       7.427   7.248  17.215  0.00  0.00    +0.000 C 
BRANCH   8   9
ATOM      9  C   UNL     1       8.424   8.285  17.571  0.00  0.00    +0.000 C 
ATOM     10  C   UNL     1       8.109   9.522  17.994  0.00  0.00    +0.000 C 
BRANCH  10  11
ATOM     11  C   UNL     1       9.077  10.502  18.524  0.00  0.00    +0.000 A 
ATOM     12  C   UNL     1       9.947  11.237  17.698  0.00  0.00    +0.000 A 
ATOM     13  C   UNL     1      10.859  12.153  18.240  0.00  0.00    +0.000 A 
ATOM     14  C   UNL     1      10.887  12.353  19.613  0.00  0.00    +0.000 A 
ATOM     15  C   UNL     1      10.023  11.645  20.438  0.00  0.00    +0.000 A 
ATOM     16  C   UNL     1       9.120  10.731  19.912  0.00  0.00    +0.000 A 
BRANCH  14  17
ATOM     17  O   UNL     1      11.749  13.240  20.198  0.00  0.00    +0.000 OA
ATOM     18  H   UNL     1      11.415  13.448  21.088  0.00  0.00    +0.000 HD
ENDBRANCH  14  17
BRANCH  15  19
ATOM     19  O   UNL     1      10.055  11.852  21.789  0.00  0.00    +0.000 OA
ATOM     20  H   UNL     1      10.869  11.395  22.090  0.00  0.00    +0.000 HD
ENDBRANCH  15  19
ENDBRANCH  10  11
ENDBRANCH   8   9
ENDBRANCH   6   8
ENDBRANCH   1   6
BRANCH   1  21
ATOM     21  C   UNL     1       5.063   5.419  19.412  0.00  0.00    +0.000 C 
BRANCH  21  22
ATOM     22  C   UNL     1       3.929   4.509  18.966  0.00  0.00    +0.000 A 
ATOM     23  C   UNL     1       4.142   3.147  18.707  0.00  0.00    +0.000 A 
ATOM     24  C   UNL     1       3.063   2.286  18.520  0.00  0.00    +0.000 A 
ATOM     25  C   UNL     1       1.759   2.764  18.511  0.00  0.00    +0.000 A 
ATOM     26  C   UNL     1       1.500   4.112  18.674  0.00  0.00    +0.000 A 
ATOM     27  C   UNL     1       2.585   4.971  18.902  0.00  0.00    +0.000 A 
BRANCH  27  28
ATOM     28  N   UNL     1       2.264   6.380  19.094  0.00  0.00    +0.000 N 
ATOM     29  O   UNL     1       1.937   6.733  20.237  0.00  0.00    +0.000 OA
ATOM     30  O   UNL     1       2.342   7.120  18.106  0.00  0.00    +0.000 OA
ENDBRANCH  27  28
BRANCH  24  31
ATOM     31  O   UNL     1       3.251   0.938  18.395  0.00  0.00    +0.000 OA
ATOM     32  H   UNL     1       2.997   0.518  19.237  0.00  0.00    +0.000 HD
ENDBRANCH  24  31
BRANCH  25  33
ATOM     33  O   UNL     1       0.719   1.894  18.374  0.00  0.00    +0.000 OA
ATOM     34  H   UNL     1       0.690   1.404  19.221  0.00  0.00    +0.000 HD
ENDBRANCH  25  33
ENDBRANCH  21  22
ENDBRANCH   1  21
TORSDOF 13
ENDMDL
MODEL 5
REMARK VINA RESULT:      -7.9      1.947      3.111
REMARK  Name = 
REMARK  13 active torsions:
REMARK  status: ('A' for Active; 'I' for Inactive)
REMARK    1  A    between atoms: C_2  and  C_3
REMARK    2  A    between atoms: C_2  and  O_13
REMARK    3  A    between atoms: C_4  and  C_5
REMARK    4  A    between atoms: C_8  and  O_9
REMARK    5  A    between atoms: C_10  and  O_11
REMARK    6  A    between atoms: O_13  and  C_14
REMARK    7  A    between atoms: C_14  and  C_15
REMARK    8  A    between atoms: C_14  and  C_27
REMARK    9  A    between atoms: C_15  and  C_16
REMARK   10  A    between atoms: C_18  and  O_19
REMARK   11  A    between atoms: C_20  and  O_21
REMARK   12  A    between atoms: C_23  and  N_24
REMARK   13  A    between atoms: C_27  and  O_29
REMARK                            x       y       z     vdW  Elec       q    Type
REMARK                         _______ _______ _______ _____ _____    ______ ____
ROOT
ATOM      1  C   UNL     1       5.936   6.482  17.281  0.00  0.00    +0.000 C 
ENDROOT
BRANCH   1   2
ATOM      2  C   UNL     1       5.448   6.055  15.892  0.00  0.00    +0.000 C 
ATOM      3  O   UNL     1       5.653   4.955  15.399  0.00  0.00    +0.000 OA
BRANCH   2   4
ATOM      4  O   UNL     1       4.795   7.017  15.208  0.00  0.00    +0.000 OA
ATOM      5  H   UNL     1       3.879   7.201  15.482  0.00  0.00    +0.000 HD
ENDBRANCH   2   4
ENDBRANCH   1   2
BRANCH   1   6
ATOM      6  O   UNL     1       7.376   6.452  17.216  0.00  0.00    +0.000 OA
BRANCH   6   8
ATOM      7  O   UNL     1       8.267   6.690  19.300  0.00  0.00    +0.000 OA
ATOM      8  C   UNL     1       8.010   7.133  18.190  0.00  0.00    +0.000 C 
BRANCH   8   9
ATOM      9  C   UNL     1       8.236   8.550  17.822  0.00  0.00    +0.000 C 
ATOM     10  C   UNL     1       8.833   9.452  18.621  0.00  0.00    +0.000 C 
BRANCH  10  11
ATOM     11  C   UNL     1       9.229  10.813  18.207  0.00  0.00    +0.000 A 
ATOM     12  C   UNL     1       8.295  11.831  17.944  0.00  0.00    +0.000 A 
ATOM     13  C   UNL     1       8.710  13.109  17.544  0.00  0.00    +0.000 A 
ATOM     14  C   UNL     1      10.066  13.377  17.428  0.00  0.00    +0.000 A 
ATOM     15  C   UNL     1      10.999  12.385  17.698  0.00  0.00    +0.000 A 
ATOM     16  C   UNL     1      10.599  11.115  18.089  0.00  0.00    +0.000 A 
BRANCH  14  17
ATOM     17  O   UNL     1      10.531  14.607  17.050  0.00  0.00    +0.000 OA
ATOM     18  H   UNL     1      10.367  14.717  16.097  0.00  0.00    +0.000 HD
ENDBRANCH  14  17
BRANCH  15  19
ATOM     19  O   UNL     1      12.333  12.660  17.584  0.00  0.00    +0.000 OA
ATOM     20  H   UNL     1      12.373  13.456  17.012  0.00  0.00    +0.000 HD
ENDBRANCH  15  19
ENDBRANCH  10  11
ENDBRANCH   8   9
ENDBRANCH   6   8
ENDBRANCH   1   6
BRANCH   1  21
ATOM     21  C   UNL     1       5.356   5.630  18.429  0.00  0.00    +0.000 C 
BRANCH  21  22
ATOM     22  C   UNL     1       4.087   4.813  18.230  0.00  0.00    +0.000 A 
ATOM     23  C   UNL     1       4.135   3.428  18.014  0.00  0.00    +0.000 A 
ATOM     24  C   UNL     1       2.971   2.666  18.058  0.00  0.00    +0.000 A 
ATOM     25  C   UNL     1       1.730   3.263  18.242  0.00  0.00    +0.000 A 
ATOM     26  C   UNL     1       1.620   4.635  18.373  0.00  0.00    +0.000 A 
ATOM     27  C   UNL     1       2.798   5.397  18.367  0.00  0.00    +0.000 A 
BRANCH  27  28
ATOM     28  N   UNL     1       2.636   6.836  18.534  0.00  0.00    +0.000 N 
ATOM     29  O   UNL     1       2.442   7.253  19.685  0.00  0.00    +0.000 OA
ATOM     30  O   UNL     1       2.707   7.536  17.516  0.00  0.00    +0.000 OA
ENDBRANCH  27  28
BRANCH  24  31
ATOM     31  O   UNL     1       3.017   1.302  17.977  0.00  0.00    +0.000 OA
ATOM     32  H   UNL     1       2.968   0.943  18.882  0.00  0.00    +0.000 HD
ENDBRANCH  24  31
BRANCH  25  33
ATOM     33  O   UNL     1       0.611   2.490  18.329  0.00  0.00    +0.000 OA
ATOM     34  H   UNL     1      -0.114   3.122  18.517  0.00  0.00    +0.000 HD
ENDBRANCH  25  33
ENDBRANCH  21  22
ENDBRANCH   1  21
TORSDOF 13
ENDMDL
MODEL 6
REMARK VINA RESULT:      -7.9      4.579      7.248
REMARK  Name = 
REMARK  13 active torsions:
REMARK  status: ('A' for Active; 'I' for Inactive)
REMARK    1  A    between atoms: C_2  and  C_3
REMARK    2  A    between atoms: C_2  and  O_13
REMARK    3  A    between atoms: C_4  and  C_5
REMARK    4  A    between atoms: C_8  and  O_9
REMARK    5  A    between atoms: C_10  and  O_11
REMARK    6  A    between atoms: O_13  and  C_14
REMARK    7  A    between atoms: C_14  and  C_15
REMARK    8  A    between atoms: C_14  and  C_27
REMARK    9  A    between atoms: C_15  and  C_16
REMARK   10  A    between atoms: C_18  and  O_19
REMARK   11  A    between atoms: C_20  and  O_21
REMARK   12  A    between atoms: C_23  and  N_24
REMARK   13  A    between atoms: C_27  and  O_29
REMARK                            x       y       z     vdW  Elec       q    Type
REMARK                         _______ _______ _______ _____ _____    ______ ____
ROOT
ATOM      1  C   UNL     1       3.625   3.343  19.013  0.00  0.00    +0.000 C 
ENDROOT
BRANCH   1   2
ATOM      2  C   UNL     1       4.212   1.941  19.213  0.00  0.00    +0.000 C 
ATOM      3  O   UNL     1       3.804   0.937  18.646  0.00  0.00    +0.000 OA
BRANCH   2   4
ATOM      4  O   UNL     1       5.211   1.875  20.116  0.00  0.00    +0.000 OA
ATOM      5  H   UNL     1       6.004   2.408  19.929  0.00  0.00    +0.000 HD
ENDBRANCH   2   4
ENDBRANCH   1   2
BRANCH   1   6
ATOM      6  O   UNL     1       2.334   3.321  19.653  0.00  0.00    +0.000 OA
BRANCH   6   8
ATOM      7  O   UNL     1       2.335   3.140  21.925  0.00  0.00    +0.000 OA
ATOM      8  C   UNL     1       2.304   3.815  20.907  0.00  0.00    +0.000 C 
BRANCH   8   9
ATOM      9  C   UNL     1       2.075   5.279  20.923  0.00  0.00    +0.000 C 
ATOM     10  C   UNL     1       2.185   6.072  19.843  0.00  0.00    +0.000 C 
BRANCH  10  11
ATOM     11  C   UNL     1       1.786   7.493  19.798  0.00  0.00    +0.000 A 
ATOM     12  C   UNL     1       1.222   8.161  20.899  0.00  0.00    +0.000 A 
ATOM     13  C   UNL     1       0.849   9.510  20.815  0.00  0.00    +0.000 A 
ATOM     14  C   UNL     1       1.061  10.200  19.631  0.00  0.00    +0.000 A 
ATOM     15  C   UNL     1       1.630   9.557  18.540  0.00  0.00    +0.000 A 
ATOM     16  C   UNL     1       1.999   8.221  18.611  0.00  0.00    +0.000 A 
BRANCH  14  17
ATOM     17  O   UNL     1       0.725  11.520  19.492  0.00  0.00    +0.000 OA
ATOM     18  H   UNL     1       0.749  11.743  18.545  0.00  0.00    +0.000 HD
ENDBRANCH  14  17
BRANCH  15  19
ATOM     19  O   UNL     1       1.839  10.248  17.379  0.00  0.00    +0.000 OA
ATOM     20  H   UNL     1       1.656   9.597  16.669  0.00  0.00    +0.000 HD
ENDBRANCH  15  19
ENDBRANCH  10  11
ENDBRANCH   8   9
ENDBRANCH   6   8
ENDBRANCH   1   6
BRANCH   1  21
ATOM     21  C   UNL     1       3.570   3.785  17.536  0.00  0.00    +0.000 C 
BRANCH  21  22
ATOM     22  C   UNL     1       4.846   4.053  16.753  0.00  0.00    +0.000 A 
ATOM     23  C   UNL     1       5.039   3.530  15.465  0.00  0.00    +0.000 A 
ATOM     24  C   UNL     1       6.103   3.963  14.679  0.00  0.00    +0.000 A 
ATOM     25  C   UNL     1       7.039   4.864  15.173  0.00  0.00    +0.000 A 
ATOM     26  C   UNL     1       6.944   5.341  16.467  0.00  0.00    +0.000 A 
ATOM     27  C   UNL     1       5.849   4.934  17.244  0.00  0.00    +0.000 A 
BRANCH  27  28
ATOM     28  N   UNL     1       5.775   5.482  18.592  0.00  0.00    +0.000 N 
ATOM     29  O   UNL     1       6.331   4.840  19.495  0.00  0.00    +0.000 OA
ATOM     30  O   UNL     1       5.166   6.549  18.738  0.00  0.00    +0.000 OA
ENDBRANCH  27  28
BRANCH  24  31
ATOM     31  O   UNL     1       6.229   3.561  13.379  0.00  0.00    +0.000 OA
ATOM     32  H   UNL     1       5.727   2.733  13.268  0.00  0.00    +0.000 HD
ENDBRANCH  24  31
BRANCH  25  33
ATOM     33  O   UNL     1       8.044   5.309  14.368  0.00  0.00    +0.000 OA
ATOM     34  H   UNL     1       8.498   5.998  14.894  0.00  0.00    +0.000 HD
ENDBRANCH  25  33
ENDBRANCH  21  22
ENDBRANCH   1  21
TORSDOF 13
ENDMDL
MODEL 7
REMARK VINA RESULT:      -7.8      4.068      7.789
REMARK  Name = 
REMARK  13 active torsions:
REMARK  status: ('A' for Active; 'I' for Inactive)
REMARK    1  A    between atoms: C_2  and  C_3
REMARK    2  A    between atoms: C_2  and  O_13
REMARK    3  A    between atoms: C_4  and  C_5
REMARK    4  A    between atoms: C_8  and  O_9
REMARK    5  A    between atoms: C_10  and  O_11
REMARK    6  A    between atoms: O_13  and  C_14
REMARK    7  A    between atoms: C_14  and  C_15
REMARK    8  A    between atoms: C_14  and  C_27
REMARK    9  A    between atoms: C_15  and  C_16
REMARK   10  A    between atoms: C_18  and  O_19
REMARK   11  A    between atoms: C_20  and  O_21
REMARK   12  A    between atoms: C_23  and  N_24
REMARK   13  A    between atoms: C_27  and  O_29
REMARK                            x       y       z     vdW  Elec       q    Type
REMARK                         _______ _______ _______ _____ _____    ______ ____
ROOT
ATOM      1  C   UNL     1       2.779   5.758  19.548  0.00  0.00    +0.000 C 
ENDROOT
BRANCH   1   2
ATOM      2  C   UNL     1       1.758   4.704  19.992  0.00  0.00    +0.000 C 
ATOM      3  O   UNL     1       1.587   4.358  21.152  0.00  0.00    +0.000 OA
BRANCH   2   4
ATOM      4  O   UNL     1       1.069   4.132  18.983  0.00  0.00    +0.000 OA
ATOM      5  H   UNL     1       1.043   4.621  18.141  0.00  0.00    +0.000 HD
ENDBRANCH   2   4
ENDBRANCH   1   2
BRANCH   1   6
ATOM      6  O   UNL     1       2.275   6.293  18.308  0.00  0.00    +0.000 OA
BRANCH   6   8
ATOM      7  O   UNL     1       3.016   8.195  17.294  0.00  0.00    +0.000 OA
ATOM      8  C   UNL     1       2.382   7.630  18.173  0.00  0.00    +0.000 C 
BRANCH   8   9
ATOM      9  C   UNL     1       1.765   8.356  19.308  0.00  0.00    +0.000 C 
ATOM     10  C   UNL     1       1.063   9.496  19.182  0.00  0.00    +0.000 C 
BRANCH  10  11
ATOM     11  C   UNL     1       0.290  10.132  20.268  0.00  0.00    +0.000 A 
ATOM     12  C   UNL     1      -0.553  11.238  20.056  0.00  0.00    +0.000 A 
ATOM     13  C   UNL     1      -1.264  11.820  21.115  0.00  0.00    +0.000 A 
ATOM     14  C   UNL     1      -1.149  11.280  22.388  0.00  0.00    +0.000 A 
ATOM     15  C   UNL     1      -0.331  10.180  22.608  0.00  0.00    +0.000 A 
ATOM     16  C   UNL     1       0.381   9.599  21.568  0.00  0.00    +0.000 A 
BRANCH  14  17
ATOM     17  O   UNL     1      -1.825  11.800  23.458  0.00  0.00    +0.000 OA
ATOM     18  H   UNL     1      -2.117  11.063  24.022  0.00  0.00    +0.000 HD
ENDBRANCH  14  17
BRANCH  15  19
ATOM     19  O   UNL     1      -0.228   9.653  23.865  0.00  0.00    +0.000 OA
ATOM     20  H   UNL     1       0.469  10.188  24.301  0.00  0.00    +0.000 HD
ENDBRANCH  15  19
ENDBRANCH  10  11
ENDBRANCH   8   9
ENDBRANCH   6   8
ENDBRANCH   1   6
BRANCH   1  21
ATOM     21  C   UNL     1       4.220   5.215  19.439  0.00  0.00    +0.000 C 
BRANCH  21  22
ATOM     22  C   UNL     1       4.952   5.205  18.106  0.00  0.00    +0.000 A 
ATOM     23  C   UNL     1       5.925   6.167  17.798  0.00  0.00    +0.000 A 
ATOM     24  C   UNL     1       6.739   6.016  16.678  0.00  0.00    +0.000 A 
ATOM     25  C   UNL     1       6.560   4.953  15.801  0.00  0.00    +0.000 A 
ATOM     26  C   UNL     1       5.556   4.026  16.011  0.00  0.00    +0.000 A 
ATOM     27  C   UNL     1       4.763   4.159  17.161  0.00  0.00    +0.000 A 
BRANCH  27  28
ATOM     28  N   UNL     1       3.735   3.144  17.356  0.00  0.00    +0.000 N 
ATOM     29  O   UNL     1       4.031   2.169  18.062  0.00  0.00    +0.000 OA
ATOM     30  O   UNL     1       2.642   3.331  16.807  0.00  0.00    +0.000 OA
ENDBRANCH  27  28
BRANCH  24  31
ATOM     31  O   UNL     1       7.775   6.875  16.437  0.00  0.00    +0.000 OA
ATOM     32  H   UNL     1       8.507   6.364  16.045  0.00  0.00    +0.000 HD
ENDBRANCH  24  31
BRANCH  25  33
ATOM     33  O   UNL     1       7.400   4.801  14.739  0.00  0.00    +0.000 OA
ATOM     34  H   UNL     1       7.891   3.975  14.926  0.00  0.00    +0.000 HD
ENDBRANCH  25  33
ENDBRANCH  21  22
ENDBRANCH   1  21
TORSDOF 13
ENDMDL
MODEL 8
REMARK VINA RESULT:      -7.8      2.004      3.181
REMARK  Name = 
REMARK  13 active torsions:
REMARK  status: ('A' for Active; 'I' for Inactive)
REMARK    1  A    between atoms: C_2  and  C_3
REMARK    2  A    between atoms: C_2  and  O_13
REMARK    3  A    between atoms: C_4  and  C_5
REMARK    4  A    between atoms: C_8  and  O_9
REMARK    5  A    between atoms: C_10  and  O_11
REMARK    6  A    between atoms: O_13  and  C_14
REMARK    7  A    between atoms: C_14  and  C_15
REMARK    8  A    between atoms: C_14  and  C_27
REMARK    9  A    between atoms: C_15  and  C_16
REMARK   10  A    between atoms: C_18  and  O_19
REMARK   11  A    between atoms: C_20  and  O_21
REMARK   12  A    between atoms: C_23  and  N_24
REMARK   13  A    between atoms: C_27  and  O_29
REMARK                            x       y       z     vdW  Elec       q    Type
REMARK                         _______ _______ _______ _____ _____    ______ ____
ROOT
ATOM      1  C   UNL     1       5.443   5.863  17.432  0.00  0.00    +0.000 C 
ENDROOT
BRANCH   1   2
ATOM      2  C   UNL     1       4.789   6.898  16.510  0.00  0.00    +0.000 C 
ATOM      3  O   UNL     1       5.056   7.029  15.324  0.00  0.00    +0.000 OA
BRANCH   2   4
ATOM      4  O   UNL     1       3.902   7.711  17.121  0.00  0.00    +0.000 OA
ATOM      5  H   UNL     1       3.009   7.750  16.734  0.00  0.00    +0.000 HD
ENDBRANCH   2   4
ENDBRANCH   1   2
BRANCH   1   6
ATOM      6  O   UNL     1       6.856   5.929  17.153  0.00  0.00    +0.000 OA
BRANCH   6   8
ATOM      7  O   UNL     1       7.894   6.013  19.181  0.00  0.00    +0.000 OA
ATOM      8  C   UNL     1       7.603   6.519  18.107  0.00  0.00    +0.000 C 
BRANCH   8   9
ATOM      9  C   UNL     1       7.918   7.928  17.775  0.00  0.00    +0.000 C 
ATOM     10  C   UNL     1       8.412   8.819  18.653  0.00  0.00    +0.000 C 
BRANCH  10  11
ATOM     11  C   UNL     1       8.900  10.167  18.300  0.00  0.00    +0.000 A 
ATOM     12  C   UNL     1      10.251  10.541  18.411  0.00  0.00    +0.000 A 
ATOM     13  C   UNL     1      10.675  11.834  18.074  0.00  0.00    +0.000 A 
ATOM     14  C   UNL     1       9.747  12.751  17.602  0.00  0.00    +0.000 A 
ATOM     15  C   UNL     1       8.412  12.390  17.474  0.00  0.00    +0.000 A 
ATOM     16  C   UNL     1       7.982  11.114  17.810  0.00  0.00    +0.000 A 
BRANCH  14  17
ATOM     17  O   UNL     1      10.103  14.024  17.249  0.00  0.00    +0.000 OA
ATOM     18  H   UNL     1      11.015  14.181  17.549  0.00  0.00    +0.000 HD
ENDBRANCH  14  17
BRANCH  15  19
ATOM     19  O   UNL     1       7.507  13.300  17.004  0.00  0.00    +0.000 OA
ATOM     20  H   UNL     1       7.606  13.266  16.029  0.00  0.00    +0.000 HD
ENDBRANCH  15  19
ENDBRANCH  10  11
ENDBRANCH   8   9
ENDBRANCH   6   8
ENDBRANCH   1   6
BRANCH   1  21
ATOM     21  C   UNL     1       4.855   4.444  17.283  0.00  0.00    +0.000 C 
BRANCH  21  22
ATOM     22  C   UNL     1       4.213   3.737  18.468  0.00  0.00    +0.000 A 
ATOM     23  C   UNL     1       4.943   2.852  19.276  0.00  0.00    +0.000 A 
ATOM     24  C   UNL     1       4.411   2.391  20.477  0.00  0.00    +0.000 A 
ATOM     25  C   UNL     1       3.124   2.734  20.870  0.00  0.00    +0.000 A 
ATOM     26  C   UNL     1       2.330   3.533  20.067  0.00  0.00    +0.000 A 
ATOM     27  C   UNL     1       2.882   4.028  18.876  0.00  0.00    +0.000 A 
BRANCH  27  28
ATOM     28  N   UNL     1       2.019   4.886  18.074  0.00  0.00    +0.000 N 
ATOM     29  O   UNL     1       1.319   4.336  17.211  0.00  0.00    +0.000 OA
ATOM     30  O   UNL     1       2.046   6.100  18.313  0.00  0.00    +0.000 OA
ENDBRANCH  27  28
BRANCH  24  31
ATOM     31  O   UNL     1       5.159   1.633  21.334  0.00  0.00    +0.000 OA
ATOM     32  H   UNL     1       4.873   0.705  21.247  0.00  0.00    +0.000 HD
ENDBRANCH  24  31
BRANCH  25  33
ATOM     33  O   UNL     1       2.645   2.309  22.072  0.00  0.00    +0.000 OA
ATOM     34  H   UNL     1       1.815   2.812  22.202  0.00  0.00    +0.000 HD
ENDBRANCH  25  33
ENDBRANCH  21  22
ENDBRANCH   1  21
TORSDOF 13
ENDMDL
MODEL 9
REMARK VINA RESULT:      -7.8      1.997      3.006
REMARK  Name = 
REMARK  13 active torsions:
REMARK  status: ('A' for Active; 'I' for Inactive)
REMARK    1  A    between atoms: C_2  and  C_3
REMARK    2  A    between atoms: C_2  and  O_13
REMARK    3  A    between atoms: C_4  and  C_5
REMARK    4  A    between atoms: C_8  and  O_9
REMARK    5  A    between atoms: C_10  and  O_11
REMARK    6  A    between atoms: O_13  and  C_14
REMARK    7  A    between atoms: C_14  and  C_15
REMARK    8  A    between atoms: C_14  and  C_27
REMARK    9  A    between atoms: C_15  and  C_16
REMARK   10  A    between atoms: C_18  and  O_19
REMARK   11  A    between atoms: C_20  and  O_21
REMARK   12  A    between atoms: C_23  and  N_24
REMARK   13  A    between atoms: C_27  and  O_29
REMARK                            x       y       z     vdW  Elec       q    Type
REMARK                         _______ _______ _______ _____ _____    ______ ____
ROOT
ATOM      1  C   UNL     1       6.170   6.312  16.883  0.00  0.00    +0.000 C 
ENDROOT
BRANCH   1   2
ATOM      2  C   UNL     1       7.143   5.351  16.191  0.00  0.00    +0.000 C 
ATOM      3  O   UNL     1       7.524   5.471  15.036  0.00  0.00    +0.000 OA
BRANCH   2   4
ATOM      4  O   UNL     1       7.532   4.305  16.949  0.00  0.00    +0.000 OA
ATOM      5  H   UNL     1       8.452   4.316  17.269  0.00  0.00    +0.000 HD
ENDBRANCH   2   4
ENDBRANCH   1   2
BRANCH   1   6
ATOM      6  O   UNL     1       6.933   7.500  17.174  0.00  0.00    +0.000 OA
BRANCH   6   8
ATOM      7  O   UNL     1       7.916   6.427  18.928  0.00  0.00    +0.000 OA
ATOM      8  C   UNL     1       7.849   7.370  18.153  0.00  0.00    +0.000 C 
BRANCH   8   9
ATOM      9  C   UNL     1       8.691   8.582  18.293  0.00  0.00    +0.000 C 
ATOM     10  C   UNL     1       8.273   9.828  18.010  0.00  0.00    +0.000 C 
BRANCH  10  11
ATOM     11  C   UNL     1       9.030  11.059  18.313  0.00  0.00    +0.000 A 
ATOM     12  C   UNL     1      10.152  11.074  19.161  0.00  0.00    +0.000 A 
ATOM     13  C   UNL     1      10.840  12.265  19.431  0.00  0.00    +0.000 A 
ATOM     14  C   UNL     1      10.419  13.443  18.832  0.00  0.00    +0.000 A 
ATOM     15  C   UNL     1       9.322  13.440  17.981  0.00  0.00    +0.000 A 
ATOM     16  C   UNL     1       8.630  12.267  17.711  0.00  0.00    +0.000 A 
BRANCH  14  17
ATOM     17  O   UNL     1      11.056  14.635  19.051  0.00  0.00    +0.000 OA
ATOM     18  H   UNL     1      11.154  15.090  18.196  0.00  0.00    +0.000 HD
ENDBRANCH  14  17
BRANCH  15  19
ATOM     19  O   UNL     1       8.917  14.606  17.393  0.00  0.00    +0.000 OA
ATOM     20  H   UNL     1       9.187  15.307  18.023  0.00  0.00    +0.000 HD
ENDBRANCH  15  19
ENDBRANCH  10  11
ENDBRANCH   8   9
ENDBRANCH   6   8
ENDBRANCH   1   6
BRANCH   1  21
ATOM     21  C   UNL     1       5.482   5.706  18.125  0.00  0.00    +0.000 C 
BRANCH  21  22
ATOM     22  C   UNL     1       4.184   4.923  17.994  0.00  0.00    +0.000 A 
ATOM     23  C   UNL     1       4.184   3.543  17.742  0.00  0.00    +0.000 A 
ATOM     24  C   UNL     1       3.008   2.806  17.847  0.00  0.00    +0.000 A 
ATOM     25  C   UNL     1       1.797   3.426  18.130  0.00  0.00    +0.000 A 
ATOM     26  C   UNL     1       1.728   4.796  18.300  0.00  0.00    +0.000 A 
ATOM     27  C   UNL     1       2.921   5.532  18.232  0.00  0.00    +0.000 A 
BRANCH  27  28
ATOM     28  N   UNL     1       2.805   6.969  18.444  0.00  0.00    +0.000 N 
ATOM     29  O   UNL     1       2.538   7.351  19.592  0.00  0.00    +0.000 OA
ATOM     30  O   UNL     1       2.986   7.703  17.464  0.00  0.00    +0.000 OA
ENDBRANCH  27  28
BRANCH  24  31
ATOM     31  O   UNL     1       3.016   1.444  17.731  0.00  0.00    +0.000 OA
ATOM     32  H   UNL     1       2.618   1.211  16.872  0.00  0.00    +0.000 HD
ENDBRANCH  24  31
BRANCH  25  33
ATOM     33  O   UNL     1       0.668   2.676  18.274  0.00  0.00    +0.000 OA
ATOM     34  H   UNL     1       0.452   2.374  17.368  0.00  0.00    +0.000 HD
ENDBRANCH  25  33
ENDBRANCH  21  22
ENDBRANCH   1  21
TORSDOF 13
ENDMDL
