MODEL 1
REMARK VINA RESULT:      -8.4      0.000      0.000
REMARK  Name = 
REMARK  5 active torsions:
REMARK  status: ('A' for Active; 'I' for Inactive)
REMARK    1  A    between atoms: N_2  and  C_4
REMARK    2  A    between atoms: C_5  and  N_6
REMARK    3  A    between atoms: N_6  and  C_7
REMARK    4  A    between atoms: C_7  and  C_8
REMARK    5  A    between atoms: C_14  and  C_15
REMARK                            x       y       z     vdW  Elec       q    Type
REMARK                         _______ _______ _______ _____ _____    ______ ____
ROOT
ATOM      1  N   UNL     1       3.500   2.907  17.486  0.00  0.00    +0.000 N 
ATOM      2  H   UNL     1       3.476   1.938  17.165  0.00  0.00    +0.000 HD
ENDROOT
BRANCH   1   4
ATOM      3  C   UNL     1       5.422   4.437  17.783  0.00  0.00    +0.000 A 
ATOM      4  C   UNL     1       4.596   3.631  16.957  0.00  0.00    +0.000 A 
ATOM      5  C   UNL     1       4.797   3.708  15.543  0.00  0.00    +0.000 A 
ATOM      6  C   UNL     1       5.788   4.492  14.902  0.00  0.00    +0.000 A 
ATOM      7  C   UNL     1       6.593   5.263  15.763  0.00  0.00    +0.000 A 
ATOM      8  N   UNL     1       7.591   6.100  15.462  0.00  0.00    +0.000 NA
ATOM      9  O   UNL     1       8.043   6.594  16.674  0.00  0.00    +0.000 OA
ATOM     10  N   UNL     1       7.346   6.055  17.739  0.00  0.00    +0.000 NA
ATOM     11  C   UNL     1       6.423   5.241  17.205  0.00  0.00    +0.000 A 
BRANCH   3  13
ATOM     12  O   UNL     1       5.354   3.281  19.739  0.00  0.00    +0.000 OA
ATOM     13  N   UNL     1       5.359   4.401  19.212  0.00  0.00    +0.000 N 
ATOM     14  O   UNL     1       5.258   5.476  19.810  0.00  0.00    +0.000 OA
ENDBRANCH   3  13
ENDBRANCH   1   4
BRANCH   1  15
ATOM     15  C   UNL     1       2.163   3.494  17.404  0.00  0.00    +0.000 C 
BRANCH  15  16
ATOM     16  C   UNL     1       2.055   4.654  18.380  0.00  0.00    +0.000 A 
ATOM     17  C   UNL     1       2.279   5.956  17.879  0.00  0.00    +0.000 A 
ATOM     18  C   UNL     1       2.251   7.068  18.721  0.00  0.00    +0.000 A 
ATOM     19  C   UNL     1       1.997   6.894  20.072  0.00  0.00    +0.000 A 
ATOM     20  F   UNL     1       1.993   7.955  20.888  0.00  0.00    +0.000 F 
ATOM     21  C   UNL     1       1.744   5.631  20.589  0.00  0.00    +0.000 A 
ATOM     22  C   UNL     1       1.747   4.492  19.753  0.00  0.00    +0.000 A 
BRANCH  22  23
ATOM     23  C   UNL     1       1.419   3.170  20.421  0.00  0.00    +0.000 C 
ATOM     24  F   UNL     1       2.399   2.228  20.390  0.00  0.00    +0.000 F 
ATOM     25  F   UNL     1       1.123   3.338  21.741  0.00  0.00    +0.000 F 
ATOM     26  F   UNL     1       0.322   2.577  19.872  0.00  0.00    +0.000 F 
ENDBRANCH  22  23
ENDBRANCH  15  16
ENDBRANCH   1  15
TORSDOF 5
ENDMDL
MODEL 2
REMARK VINA RESULT:      -8.4      1.985      3.035
REMARK  Name = 
REMARK  5 active torsions:
REMARK  status: ('A' for Active; 'I' for Inactive)
REMARK    1  A    between atoms: N_2  and  C_4
REMARK    2  A    between atoms: C_5  and  N_6
REMARK    3  A    between atoms: N_6  and  C_7
REMARK    4  A    between atoms: C_7  and  C_8
REMARK    5  A    between atoms: C_14  and  C_15
REMARK                            x       y       z     vdW  Elec       q    Type
REMARK                         _______ _______ _______ _____ _____    ______ ____
ROOT
ATOM      1  N   UNL     1       3.799   6.615  18.966  0.00  0.00    +0.000 N 
ATOM      2  H   UNL     1       4.239   6.380  19.857  0.00  0.00    +0.000 HD
ENDROOT
BRANCH   1   4
ATOM      3  C   UNL     1       5.756   5.447  18.002  0.00  0.00    +0.000 A 
ATOM      4  C   UNL     1       4.591   6.244  17.852  0.00  0.00    +0.000 A 
ATOM      5  C   UNL     1       4.336   6.808  16.563  0.00  0.00    +0.000 A 
ATOM      6  C   UNL     1       5.131   6.597  15.409  0.00  0.00    +0.000 A 
ATOM      7  C   UNL     1       6.266   5.788  15.602  0.00  0.00    +0.000 A 
ATOM      8  N   UNL     1       7.202   5.422  14.720  0.00  0.00    +0.000 NA
ATOM      9  O   UNL     1       8.090   4.628  15.425  0.00  0.00    +0.000 OA
ATOM     10  N   UNL     1       7.705   4.476  16.745  0.00  0.00    +0.000 NA
ATOM     11  C   UNL     1       6.588   5.204  16.891  0.00  0.00    +0.000 A 
BRANCH   3  13
ATOM     12  O   UNL     1       5.455   3.744  19.476  0.00  0.00    +0.000 OA
ATOM     13  N   UNL     1       6.086   4.778  19.222  0.00  0.00    +0.000 N 
ATOM     14  O   UNL     1       6.927   5.305  19.956  0.00  0.00    +0.000 OA
ENDBRANCH   3  13
ENDBRANCH   1   4
BRANCH   1  15
ATOM     15  C   UNL     1       2.389   6.227  18.988  0.00  0.00    +0.000 C 
BRANCH  15  16
ATOM     16  C   UNL     1       2.231   4.924  19.755  0.00  0.00    +0.000 A 
ATOM     17  C   UNL     1       2.198   4.993  21.166  0.00  0.00    +0.000 A 
ATOM     18  C   UNL     1       2.109   3.838  21.943  0.00  0.00    +0.000 A 
ATOM     19  C   UNL     1       2.050   2.601  21.322  0.00  0.00    +0.000 A 
ATOM     20  F   UNL     1       1.988   1.489  22.063  0.00  0.00    +0.000 F 
ATOM     21  C   UNL     1       2.050   2.503  19.937  0.00  0.00    +0.000 A 
ATOM     22  C   UNL     1       2.119   3.659  19.128  0.00  0.00    +0.000 A 
BRANCH  22  23
ATOM     23  C   UNL     1       2.074   3.432  17.629  0.00  0.00    +0.000 C 
ATOM     24  F   UNL     1       3.190   3.785  16.939  0.00  0.00    +0.000 F 
ATOM     25  F   UNL     1       1.865   2.118  17.329  0.00  0.00    +0.000 F 
ATOM     26  F   UNL     1       1.048   4.109  17.040  0.00  0.00    +0.000 F 
ENDBRANCH  22  23
ENDBRANCH  15  16
ENDBRANCH   1  15
TORSDOF 5
ENDMDL
MODEL 3
REMARK VINA RESULT:      -8.2      1.334      1.662
REMARK  Name = 
REMARK  5 active torsions:
REMARK  status: ('A' for Active; 'I' for Inactive)
REMARK    1  A    between atoms: N_2  and  C_4
REMARK    2  A    between atoms: C_5  and  N_6
REMARK    3  A    between atoms: N_6  and  C_7
REMARK    4  A    between atoms: C_7  and  C_8
REMARK    5  A    between atoms: C_14  and  C_15
REMARK                            x       y       z     vdW  Elec       q    Type
REMARK                         _______ _______ _______ _____ _____    ______ ____
ROOT
ATOM      1  N   UNL     1       4.532   3.489  17.408  0.00  0.00    +0.000 N 
ATOM      2  H   UNL     1       4.771   2.584  17.816  0.00  0.00    +0.000 HD
ENDROOT
BRANCH   1   4
ATOM      3  C   UNL     1       6.471   4.628  16.376  0.00  0.00    +0.000 A 
ATOM      4  C   UNL     1       5.320   3.803  16.274  0.00  0.00    +0.000 A 
ATOM      5  C   UNL     1       4.879   3.441  14.963  0.00  0.00    +0.000 A 
ATOM      6  C   UNL     1       5.528   3.802  13.756  0.00  0.00    +0.000 A 
ATOM      7  C   UNL     1       6.673   4.607  13.908  0.00  0.00    +0.000 A 
ATOM      8  N   UNL     1       7.482   5.111  12.970  0.00  0.00    +0.000 NA
ATOM      9  O   UNL     1       8.451   5.823  13.655  0.00  0.00    +0.000 OA
ATOM     10  N   UNL     1       8.267   5.753  15.023  0.00  0.00    +0.000 NA
ATOM     11  C   UNL     1       7.158   5.022  15.212  0.00  0.00    +0.000 A 
BRANCH   3  13
ATOM     12  O   UNL     1       7.999   4.326  18.031  0.00  0.00    +0.000 OA
ATOM     13  N   UNL     1       7.045   5.005  17.631  0.00  0.00    +0.000 N 
ATOM     14  O   UNL     1       6.518   5.937  18.246  0.00  0.00    +0.000 OA
ENDBRANCH   3  13
ENDBRANCH   1   4
BRANCH   1  15
ATOM     15  C   UNL     1       3.079   3.626  17.315  0.00  0.00    +0.000 C 
BRANCH  15  16
ATOM     16  C   UNL     1       2.590   4.599  18.376  0.00  0.00    +0.000 A 
ATOM     17  C   UNL     1       2.917   5.964  18.216  0.00  0.00    +0.000 A 
ATOM     18  C   UNL     1       2.551   6.911  19.172  0.00  0.00    +0.000 A 
ATOM     19  C   UNL     1       1.853   6.507  20.299  0.00  0.00    +0.000 A 
ATOM     20  F   UNL     1       1.521   7.408  21.232  0.00  0.00    +0.000 F 
ATOM     21  C   UNL     1       1.493   5.178  20.471  0.00  0.00    +0.000 A 
ATOM     22  C   UNL     1       1.833   4.204  19.506  0.00  0.00    +0.000 A 
BRANCH  22  23
ATOM     23  C   UNL     1       1.353   2.791  19.781  0.00  0.00    +0.000 C 
ATOM     24  F   UNL     1       2.295   1.815  19.701  0.00  0.00    +0.000 F 
ATOM     25  F   UNL     1       0.824   2.679  21.033  0.00  0.00    +0.000 F 
ATOM     26  F   UNL     1       0.358   2.414  18.929  0.00  0.00    +0.000 F 
ENDBRANCH  22  23
ENDBRANCH  15  16
ENDBRANCH   1  15
TORSDOF 5
ENDMDL
MODEL 4
REMARK VINA RESULT:      -8.1      2.049      3.677
REMARK  Name = 
REMARK  5 active torsions:
REMARK  status: ('A' for Active; 'I' for Inactive)
REMARK    1  A    between atoms: N_2  and  C_4
REMARK    2  A    between atoms: C_5  and  N_6
REMARK    3  A    between atoms: N_6  and  C_7
REMARK    4  A    between atoms: C_7  and  C_8
REMARK    5  A    between atoms: C_14  and  C_15
REMARK                            x       y       z     vdW  Elec       q    Type
REMARK                         _______ _______ _______ _____ _____    ______ ____
ROOT
ATOM      1  N   UNL     1       5.080   3.637  17.116  0.00  0.00    +0.000 N 
ATOM      2  H   UNL     1       5.478   3.237  16.265  0.00  0.00    +0.000 HD
ENDROOT
BRANCH   1   4
ATOM      3  C   UNL     1       6.264   5.795  16.871  0.00  0.00    +0.000 A 
ATOM      4  C   UNL     1       5.875   4.677  17.655  0.00  0.00    +0.000 A 
ATOM      5  C   UNL     1       6.455   4.545  18.955  0.00  0.00    +0.000 A 
ATOM      6  C   UNL     1       7.355   5.469  19.544  0.00  0.00    +0.000 A 
ATOM      7  C   UNL     1       7.699   6.569  18.736  0.00  0.00    +0.000 A 
ATOM      8  N   UNL     1       8.522   7.588  19.003  0.00  0.00    +0.000 NA
ATOM      9  O   UNL     1       8.504   8.390  17.875  0.00  0.00    +0.000 OA
ATOM     10  N   UNL     1       7.656   7.889  16.905  0.00  0.00    +0.000 NA
ATOM     11  C   UNL     1       7.158   6.746  17.401  0.00  0.00    +0.000 A 
BRANCH   3  13
ATOM     12  O   UNL     1       6.158   5.414  14.633  0.00  0.00    +0.000 OA
ATOM     13  N   UNL     1       5.708   6.070  15.582  0.00  0.00    +0.000 N 
ATOM     14  O   UNL     1       4.867   6.970  15.499  0.00  0.00    +0.000 OA
ENDBRANCH   3  13
ENDBRANCH   1   4
BRANCH   1  15
ATOM     15  C   UNL     1       3.647   3.867  16.936  0.00  0.00    +0.000 C 
BRANCH  15  16
ATOM     16  C   UNL     1       2.921   3.608  18.247  0.00  0.00    +0.000 A 
ATOM     17  C   UNL     1       2.760   2.265  18.655  0.00  0.00    +0.000 A 
ATOM     18  C   UNL     1       2.060   1.942  19.817  0.00  0.00    +0.000 A 
ATOM     19  C   UNL     1       1.512   2.956  20.586  0.00  0.00    +0.000 A 
ATOM     20  F   UNL     1       0.819   2.651  21.689  0.00  0.00    +0.000 F 
ATOM     21  C   UNL     1       1.677   4.287  20.227  0.00  0.00    +0.000 A 
ATOM     22  C   UNL     1       2.401   4.640  19.066  0.00  0.00    +0.000 A 
BRANCH  22  23
ATOM     23  C   UNL     1       2.550   6.125  18.795  0.00  0.00    +0.000 C 
ATOM     24  F   UNL     1       3.823   6.583  18.672  0.00  0.00    +0.000 F 
ATOM     25  F   UNL     1       1.925   6.486  17.638  0.00  0.00    +0.000 F 
ATOM     26  F   UNL     1       1.978   6.884  19.772  0.00  0.00    +0.000 F 
ENDBRANCH  22  23
ENDBRANCH  15  16
ENDBRANCH   1  15
TORSDOF 5
ENDMDL
MODEL 5
REMARK VINA RESULT:      -8.0      1.740      2.430
REMARK  Name = 
REMARK  5 active torsions:
REMARK  status: ('A' for Active; 'I' for Inactive)
REMARK    1  A    between atoms: N_2  and  C_4
REMARK    2  A    between atoms: C_5  and  N_6
REMARK    3  A    between atoms: N_6  and  C_7
REMARK    4  A    between atoms: C_7  and  C_8
REMARK    5  A    between atoms: C_14  and  C_15
REMARK                            x       y       z     vdW  Elec       q    Type
REMARK                         _______ _______ _______ _____ _____    ______ ____
ROOT
ATOM      1  N   UNL     1       4.615   3.019  17.756  0.00  0.00    +0.000 N 
ATOM      2  H   UNL     1       4.965   2.402  17.022  0.00  0.00    +0.000 HD
ENDROOT
BRANCH   1   4
ATOM      3  C   UNL     1       5.997   4.857  16.842  0.00  0.00    +0.000 A 
ATOM      4  C   UNL     1       5.429   4.163  17.943  0.00  0.00    +0.000 A 
ATOM      5  C   UNL     1       5.846   4.548  19.255  0.00  0.00    +0.000 A 
ATOM      6  C   UNL     1       6.748   5.601  19.548  0.00  0.00    +0.000 A 
ATOM      7  C   UNL     1       7.273   6.271  18.426  0.00  0.00    +0.000 A 
ATOM      8  N   UNL     1       8.143   7.285  18.379  0.00  0.00    +0.000 NA
ATOM      9  O   UNL     1       8.320   7.564  17.035  0.00  0.00    +0.000 OA
ATOM     10  N   UNL     1       7.547   6.741  16.235  0.00  0.00    +0.000 NA
ATOM     11  C   UNL     1       6.903   5.912  17.069  0.00  0.00    +0.000 A 
BRANCH   3  13
ATOM     12  O   UNL     1       6.020   3.551  14.983  0.00  0.00    +0.000 OA
ATOM     13  N   UNL     1       5.614   4.607  15.487  0.00  0.00    +0.000 N 
ATOM     14  O   UNL     1       4.961   5.477  14.904  0.00  0.00    +0.000 OA
ENDBRANCH   3  13
ENDBRANCH   1   4
BRANCH   1  15
ATOM     15  C   UNL     1       3.171   3.200  17.610  0.00  0.00    +0.000 C 
BRANCH  15  16
ATOM     16  C   UNL     1       2.705   4.332  18.510  0.00  0.00    +0.000 A 
ATOM     17  C   UNL     1       2.631   5.628  17.950  0.00  0.00    +0.000 A 
ATOM     18  C   UNL     1       2.264   6.729  18.724  0.00  0.00    +0.000 A 
ATOM     19  C   UNL     1       1.965   6.550  20.065  0.00  0.00    +0.000 A 
ATOM     20  F   UNL     1       1.636   7.606  20.818  0.00  0.00    +0.000 F 
ATOM     21  C   UNL     1       2.001   5.285  20.637  0.00  0.00    +0.000 A 
ATOM     22  C   UNL     1       2.349   4.152  19.869  0.00  0.00    +0.000 A 
BRANCH  22  23
ATOM     23  C   UNL     1       2.316   2.818  20.590  0.00  0.00    +0.000 C 
ATOM     24  F   UNL     1       1.630   1.822  19.969  0.00  0.00    +0.000 F 
ATOM     25  F   UNL     1       3.572   2.323  20.782  0.00  0.00    +0.000 F 
ATOM     26  F   UNL     1       1.769   2.922  21.834  0.00  0.00    +0.000 F 
ENDBRANCH  22  23
ENDBRANCH  15  16
ENDBRANCH   1  15
TORSDOF 5
ENDMDL
MODEL 6
REMARK VINA RESULT:      -8.0      3.736      5.807
REMARK  Name = 
REMARK  5 active torsions:
REMARK  status: ('A' for Active; 'I' for Inactive)
REMARK    1  A    between atoms: N_2  and  C_4
REMARK    2  A    between atoms: C_5  and  N_6
REMARK    3  A    between atoms: N_6  and  C_7
REMARK    4  A    between atoms: C_7  and  C_8
REMARK    5  A    between atoms: C_14  and  C_15
REMARK                            x       y       z     vdW  Elec       q    Type
REMARK                         _______ _______ _______ _____ _____    ______ ____
ROOT
ATOM      1  N   UNL     1       2.513   7.009  20.427  0.00  0.00    +0.000 N 
ATOM      2  H   UNL     1       2.347   7.182  21.420  0.00  0.00    +0.000 HD
ENDROOT
BRANCH   1   4
ATOM      3  C   UNL     1       3.313   5.023  19.186  0.00  0.00    +0.000 A 
ATOM      4  C   UNL     1       2.402   5.640  20.085  0.00  0.00    +0.000 A 
ATOM      5  C   UNL     1       1.265   4.879  20.500  0.00  0.00    +0.000 A 
ATOM      6  C   UNL     1       0.997   3.540  20.121  0.00  0.00    +0.000 A 
ATOM      7  C   UNL     1       1.935   2.966  19.242  0.00  0.00    +0.000 A 
ATOM      8  N   UNL     1       1.950   1.742  18.705  0.00  0.00    +0.000 NA
ATOM      9  O   UNL     1       3.087   1.692  17.919  0.00  0.00    +0.000 OA
ATOM     10  N   UNL     1       3.800   2.875  17.974  0.00  0.00    +0.000 NA
ATOM     11  C   UNL     1       3.098   3.695  18.771  0.00  0.00    +0.000 A 
BRANCH   3  13
ATOM     12  O   UNL     1       5.547   5.390  19.382  0.00  0.00    +0.000 OA
ATOM     13  N   UNL     1       4.517   5.657  18.748  0.00  0.00    +0.000 N 
ATOM     14  O   UNL     1       4.437   6.462  17.815  0.00  0.00    +0.000 OA
ENDBRANCH   3  13
ENDBRANCH   1   4
BRANCH   1  15
ATOM     15  C   UNL     1       1.795   7.997  19.622  0.00  0.00    +0.000 C 
BRANCH  15  16
ATOM     16  C   UNL     1       1.011   8.926  20.535  0.00  0.00    +0.000 A 
ATOM     17  C   UNL     1       0.995   8.630  21.916  0.00  0.00    +0.000 A 
ATOM     18  C   UNL     1       0.256   9.403  22.812  0.00  0.00    +0.000 A 
ATOM     19  C   UNL     1      -0.475  10.481  22.339  0.00  0.00    +0.000 A 
ATOM     20  F   UNL     1      -1.205  11.211  23.190  0.00  0.00    +0.000 F 
ATOM     21  C   UNL     1      -0.456  10.814  20.991  0.00  0.00    +0.000 A 
ATOM     22  C   UNL     1       0.301  10.060  20.068  0.00  0.00    +0.000 A 
BRANCH  22  23
ATOM     23  C   UNL     1       0.277  10.540  18.630  0.00  0.00    +0.000 C 
ATOM     24  F   UNL     1      -0.232   9.669  17.719  0.00  0.00    +0.000 F 
ATOM     25  F   UNL     1      -0.465  11.676  18.495  0.00  0.00    +0.000 F 
ATOM     26  F   UNL     1       1.522  10.860  18.176  0.00  0.00    +0.000 F 
ENDBRANCH  22  23
ENDBRANCH  15  16
ENDBRANCH   1  15
TORSDOF 5
ENDMDL
MODEL 7
REMARK VINA RESULT:      -7.9      0.918      1.040
REMARK  Name = 
REMARK  5 active torsions:
REMARK  status: ('A' for Active; 'I' for Inactive)
REMARK    1  A    between atoms: N_2  and  C_4
REMARK    2  A    between atoms: C_5  and  N_6
REMARK    3  A    between atoms: N_6  and  C_7
REMARK    4  A    between atoms: C_7  and  C_8
REMARK    5  A    between atoms: C_14  and  C_15
REMARK                            x       y       z     vdW  Elec       q    Type
REMARK                         _______ _______ _______ _____ _____    ______ ____
ROOT
ATOM      1  N   UNL     1       3.427   3.037  17.236  0.00  0.00    +0.000 N 
ATOM      2  H   UNL     1       3.479   2.265  16.569  0.00  0.00    +0.000 HD
ENDROOT
BRANCH   1   4
ATOM      3  C   UNL     1       5.283   4.138  18.446  0.00  0.00    +0.000 A 
ATOM      4  C   UNL     1       4.596   3.835  17.241  0.00  0.00    +0.000 A 
ATOM      5  C   UNL     1       5.021   4.504  16.051  0.00  0.00    +0.000 A 
ATOM      6  C   UNL     1       6.105   5.413  15.969  0.00  0.00    +0.000 A 
ATOM      7  C   UNL     1       6.765   5.670  17.186  0.00  0.00    +0.000 A 
ATOM      8  N   UNL     1       7.802   6.479  17.430  0.00  0.00    +0.000 NA
ATOM      9  O   UNL     1       8.057   6.361  18.785  0.00  0.00    +0.000 OA
ATOM     10  N   UNL     1       7.196   5.466  19.392  0.00  0.00    +0.000 NA
ATOM     11  C   UNL     1       6.367   5.037  18.429  0.00  0.00    +0.000 A 
BRANCH   3  13
ATOM     12  O   UNL     1       5.132   2.259  19.716  0.00  0.00    +0.000 OA
ATOM     13  N   UNL     1       4.992   3.489  19.687  0.00  0.00    +0.000 N 
ATOM     14  O   UNL     1       4.574   4.186  20.616  0.00  0.00    +0.000 OA
ENDBRANCH   3  13
ENDBRANCH   1   4
BRANCH   1  15
ATOM     15  C   UNL     1       2.125   3.695  17.136  0.00  0.00    +0.000 C 
BRANCH  15  16
ATOM     16  C   UNL     1       1.969   4.692  18.273  0.00  0.00    +0.000 A 
ATOM     17  C   UNL     1       2.276   6.045  18.006  0.00  0.00    +0.000 A 
ATOM     18  C   UNL     1       2.210   7.012  19.010  0.00  0.00    +0.000 A 
ATOM     19  C   UNL     1       1.835   6.639  20.291  0.00  0.00    +0.000 A 
ATOM     20  F   UNL     1       1.793   7.558  21.263  0.00  0.00    +0.000 F 
ATOM     21  C   UNL     1       1.499   5.323  20.577  0.00  0.00    +0.000 A 
ATOM     22  C   UNL     1       1.538   4.330  19.573  0.00  0.00    +0.000 A 
BRANCH  22  23
ATOM     23  C   UNL     1       1.113   2.936  19.992  0.00  0.00    +0.000 C 
ATOM     24  F   UNL     1       2.046   1.958  19.840  0.00  0.00    +0.000 F 
ATOM     25  F   UNL     1       0.761   2.896  21.309  0.00  0.00    +0.000 F 
ATOM     26  F   UNL     1       0.016   2.507  19.306  0.00  0.00    +0.000 F 
ENDBRANCH  22  23
ENDBRANCH  15  16
ENDBRANCH   1  15
TORSDOF 5
ENDMDL
MODEL 8
REMARK VINA RESULT:      -7.8      3.451      5.611
REMARK  Name = 
REMARK  5 active torsions:
REMARK  status: ('A' for Active; 'I' for Inactive)
REMARK    1  A    between atoms: N_2  and  C_4
REMARK    2  A    between atoms: C_5  and  N_6
REMARK    3  A    between atoms: N_6  and  C_7
REMARK    4  A    between atoms: C_7  and  C_8
REMARK    5  A    between atoms: C_14  and  C_15
REMARK                            x       y       z     vdW  Elec       q    Type
REMARK                         _______ _______ _______ _____ _____    ______ ____
ROOT
ATOM      1  N   UNL     1       2.462   7.100  20.223  0.00  0.00    +0.000 N 
ATOM      2  H   UNL     1       3.396   7.423  20.483  0.00  0.00    +0.000 HD
ENDROOT
BRANCH   1   4
ATOM      3  C   UNL     1       3.317   5.080  19.076  0.00  0.00    +0.000 A 
ATOM      4  C   UNL     1       2.416   5.706  19.977  0.00  0.00    +0.000 A 
ATOM      5  C   UNL     1       1.346   4.914  20.500  0.00  0.00    +0.000 A 
ATOM      6  C   UNL     1       1.139   3.539  20.224  0.00  0.00    +0.000 A 
ATOM      7  C   UNL     1       2.066   2.959  19.338  0.00  0.00    +0.000 A 
ATOM      8  N   UNL     1       2.126   1.703  18.883  0.00  0.00    +0.000 NA
ATOM      9  O   UNL     1       3.227   1.663  18.044  0.00  0.00    +0.000 OA
ATOM     10  N   UNL     1       3.871   2.884  17.985  0.00  0.00    +0.000 NA
ATOM     11  C   UNL     1       3.161   3.717  18.760  0.00  0.00    +0.000 A 
BRANCH   3  13
ATOM     12  O   UNL     1       5.547   5.516  19.081  0.00  0.00    +0.000 OA
ATOM     13  N   UNL     1       4.460   5.748  18.536  0.00  0.00    +0.000 N 
ATOM     14  O   UNL     1       4.277   6.543  17.609  0.00  0.00    +0.000 OA
ENDBRANCH   3  13
ENDBRANCH   1   4
BRANCH   1  15
ATOM     15  C   UNL     1       1.463   7.692  21.111  0.00  0.00    +0.000 C 
BRANCH  15  16
ATOM     16  C   UNL     1       0.951   8.990  20.508  0.00  0.00    +0.000 A 
ATOM     17  C   UNL     1       1.302   9.276  19.169  0.00  0.00    +0.000 A 
ATOM     18  C   UNL     1       0.916  10.471  18.561  0.00  0.00    +0.000 A 
ATOM     19  C   UNL     1       0.175  11.394  19.281  0.00  0.00    +0.000 A 
ATOM     20  F   UNL     1      -0.177  12.552  18.710  0.00  0.00    +0.000 F 
ATOM     21  C   UNL     1      -0.209  11.129  20.589  0.00  0.00    +0.000 A 
ATOM     22  C   UNL     1       0.151   9.918  21.219  0.00  0.00    +0.000 A 
BRANCH  22  23
ATOM     23  C   UNL     1      -0.357   9.722  22.635  0.00  0.00    +0.000 C 
ATOM     24  F   UNL     1      -1.153  10.709  23.124  0.00  0.00    +0.000 F 
ATOM     25  F   UNL     1      -1.092   8.579  22.748  0.00  0.00    +0.000 F 
ATOM     26  F   UNL     1       0.661   9.593  23.531  0.00  0.00    +0.000 F 
ENDBRANCH  22  23
ENDBRANCH  15  16
ENDBRANCH   1  15
TORSDOF 5
ENDMDL
MODEL 9
REMARK VINA RESULT:      -7.8      4.676      6.626
REMARK  Name = 
REMARK  5 active torsions:
REMARK  status: ('A' for Active; 'I' for Inactive)
REMARK    1  A    between atoms: N_2  and  C_4
REMARK    2  A    between atoms: C_5  and  N_6
REMARK    3  A    between atoms: N_6  and  C_7
REMARK    4  A    between atoms: C_7  and  C_8
REMARK    5  A    between atoms: C_14  and  C_15
REMARK                            x       y       z     vdW  Elec       q    Type
REMARK                         _______ _______ _______ _____ _____    ______ ____
ROOT
ATOM      1  N   UNL     1       2.093   7.135  20.695  0.00  0.00    +0.000 N 
ATOM      2  H   UNL     1       2.449   7.307  21.637  0.00  0.00    +0.000 HD
ENDROOT
BRANCH   1   4
ATOM      3  C   UNL     1       0.636   9.134  20.763  0.00  0.00    +0.000 A 
ATOM      4  C   UNL     1       1.568   8.302  20.088  0.00  0.00    +0.000 A 
ATOM      5  C   UNL     1       1.829   8.581  18.710  0.00  0.00    +0.000 A 
ATOM      6  C   UNL     1       1.265   9.653  17.975  0.00  0.00    +0.000 A 
ATOM      7  C   UNL     1       0.359  10.460  18.689  0.00  0.00    +0.000 A 
ATOM      8  N   UNL     1      -0.334  11.525  18.272  0.00  0.00    +0.000 NA
ATOM      9  O   UNL     1      -1.069  11.944  19.366  0.00  0.00    +0.000 OA
ATOM     10  N   UNL     1      -0.827  11.159  20.478  0.00  0.00    +0.000 NA
ATOM     11  C   UNL     1       0.040  10.214  20.083  0.00  0.00    +0.000 A 
BRANCH   3  13
ATOM     12  O   UNL     1       1.187   9.423  22.949  0.00  0.00    +0.000 OA
ATOM     13  N   UNL     1       0.339   8.995  22.155  0.00  0.00    +0.000 N 
ATOM     14  O   UNL     1      -0.706   8.414  22.464  0.00  0.00    +0.000 OA
ENDBRANCH   3  13
ENDBRANCH   1   4
BRANCH   1  15
ATOM     15  C   UNL     1       3.044   6.317  19.944  0.00  0.00    +0.000 C 
BRANCH  15  16
ATOM     16  C   UNL     1       2.365   5.037  19.486  0.00  0.00    +0.000 A 
ATOM     17  C   UNL     1       1.273   4.564  20.247  0.00  0.00    +0.000 A 
ATOM     18  C   UNL     1       0.630   3.369  19.923  0.00  0.00    +0.000 A 
ATOM     19  C   UNL     1       1.070   2.632  18.835  0.00  0.00    +0.000 A 
ATOM     20  F   UNL     1       0.472   1.473  18.535  0.00  0.00    +0.000 F 
ATOM     21  C   UNL     1       2.122   3.085  18.051  0.00  0.00    +0.000 A 
ATOM     22  C   UNL     1       2.775   4.302  18.346  0.00  0.00    +0.000 A 
BRANCH  22  23
ATOM     23  C   UNL     1       3.884   4.715  17.398  0.00  0.00    +0.000 C 
ATOM     24  F   UNL     1       3.811   5.982  16.912  0.00  0.00    +0.000 F 
ATOM     25  F   UNL     1       5.108   4.627  17.993  0.00  0.00    +0.000 F 
ATOM     26  F   UNL     1       3.950   3.905  16.304  0.00  0.00    +0.000 F 
ENDBRANCH  22  23
ENDBRANCH  15  16
ENDBRANCH   1  15
TORSDOF 5
ENDMDL
