MODEL 1
REMARK VINA RESULT:      -8.6      0.000      0.000
REMARK  Name = 
REMARK  9 active torsions:
REMARK  status: ('A' for Active; 'I' for Inactive)
REMARK    1  A    between atoms: C_1  and  O_2
REMARK    2  A    between atoms: O_2  and  C_3
REMARK    3  A    between atoms: C_6  and  N_7
REMARK    4  A    between atoms: N_7  and  C_8
REMARK    5  A    between atoms: N_7  and  C_9
REMARK    6  A    between atoms: C_11  and  C_12
REMARK    7  A    between atoms: C_21  and  O_22
REMARK    8  A    between atoms: O_22  and  C_23
REMARK    9  A    between atoms: C_23  and  C_24
REMARK                            x       y       z     vdW  Elec       q    Type
REMARK                         _______ _______ _______ _____ _____    ______ ____
ROOT
ATOM      1  C   UNL     1       3.095   7.001  18.077  0.00  0.00    +0.000 A 
ATOM      2  C   UNL     1       2.594   8.212  17.575  0.00  0.00    +0.000 A 
ATOM      3  C   UNL     1       1.795   9.091  18.379  0.00  0.00    +0.000 A 
ATOM      4  C   UNL     1       1.466   8.789  19.721  0.00  0.00    +0.000 A 
ATOM      5  C   UNL     1       1.966   7.549  20.188  0.00  0.00    +0.000 A 
ATOM      6  C   UNL     1       2.744   6.645  19.385  0.00  0.00    +0.000 A 
ENDROOT
BRANCH   1   8
ATOM      7  C   UNL     1       4.955   6.710  16.574  0.00  0.00    +0.000 C 
ATOM      8  O   UNL     1       3.914   6.155  17.382  0.00  0.00    +0.000 OA
ENDBRANCH   1   8
BRANCH   4   9
ATOM      9  N   UNL     1       0.685   9.685  20.570  0.00  0.00    +0.000 N 
ATOM     10  C   UNL     1       0.768   9.358  21.980  0.00  0.00    +0.000 C 
BRANCH   9  11
ATOM     11  C   UNL     1      -0.255  10.652  20.117  0.00  0.00    +0.000 A 
ATOM     12  N   UNL     1      -0.234  11.728  20.924  0.00  0.00    +0.000 NA
ATOM     13  C   UNL     1      -1.285  12.529  20.892  0.00  0.00    +0.000 A 
ATOM     14  C   UNL     1      -2.192  12.310  22.075  0.00  0.00    +0.000 C 
ATOM     15  N   UNL     1      -2.002  12.750  19.805  0.00  0.00    +0.000 NA
ATOM     16  C   UNL     1      -2.131  11.716  19.012  0.00  0.00    +0.000 A 
ATOM     17  C   UNL     1      -3.298  11.837  18.263  0.00  0.00    +0.000 A 
ATOM     18  C   UNL     1      -3.724  10.864  17.389  0.00  0.00    +0.000 A 
ATOM     19  C   UNL     1      -2.888   9.776  17.211  0.00  0.00    +0.000 A 
ATOM     20  C   UNL     1      -1.703   9.626  18.002  0.00  0.00    +0.000 A 
ATOM     21  C   UNL     1      -1.294  10.575  19.042  0.00  0.00    +0.000 A 
ENDBRANCH   9  11
ENDBRANCH   4   9
BRANCH   6  22
ATOM     22  O   UNL     1       3.217   5.540  20.084  0.00  0.00    +0.000 OA
BRANCH  22  23
ATOM     23  C   UNL     1       2.820   4.132  19.878  0.00  0.00    +0.000 C 
ATOM     24  C   UNL     1       2.192   3.581  21.236  0.00  0.00    +0.000 C 
ATOM     25  C   UNL     1       1.162   2.803  20.417  0.00  0.00    +0.000 C 
ATOM     26  C   UNL     1       1.422   3.782  19.252  0.00  0.00    +0.000 C 
BRANCH  23  27
ATOM     27  C   UNL     1       4.034   3.144  19.390  0.00  0.00    +0.000 C 
ATOM     28  N   UNL     1       4.338   3.170  18.026  0.00  0.00    +0.000 N 
ATOM     29  O   UNL     1       4.730   2.395  20.105  0.00  0.00    +0.000 OA
ATOM     30  H   UNL     1       3.696   3.660  17.421  0.00  0.00    +0.000 HD
ATOM     31  H   UNL     1       5.034   2.544  17.691  0.00  0.00    +0.000 HD
ENDBRANCH  23  27
ENDBRANCH  22  23
ENDBRANCH   6  22
TORSDOF 6
ENDMDL
MODEL 2
REMARK VINA RESULT:      -8.3      1.370      3.036
REMARK  Name = 
REMARK  9 active torsions:
REMARK  status: ('A' for Active; 'I' for Inactive)
REMARK    1  A    between atoms: C_1  and  O_2
REMARK    2  A    between atoms: O_2  and  C_3
REMARK    3  A    between atoms: C_6  and  N_7
REMARK    4  A    between atoms: N_7  and  C_8
REMARK    5  A    between atoms: N_7  and  C_9
REMARK    6  A    between atoms: C_11  and  C_12
REMARK    7  A    between atoms: C_21  and  O_22
REMARK    8  A    between atoms: O_22  and  C_23
REMARK    9  A    between atoms: C_23  and  C_24
REMARK                            x       y       z     vdW  Elec       q    Type
REMARK                         _______ _______ _______ _____ _____    ______ ____
ROOT
ATOM      1  C   UNL     1       2.265   5.966  19.983  0.00  0.00    +0.000 A 
ATOM      2  C   UNL     1       1.591   6.902  20.782  0.00  0.00    +0.000 A 
ATOM      3  C   UNL     1       1.315   8.231  20.320  0.00  0.00    +0.000 A 
ATOM      4  C   UNL     1       1.704   8.675  19.035  0.00  0.00    +0.000 A 
ATOM      5  C   UNL     1       2.403   7.715  18.264  0.00  0.00    +0.000 A 
ATOM      6  C   UNL     1       2.713   6.388  18.725  0.00  0.00    +0.000 A 
ENDROOT
BRANCH   1   8
ATOM      7  C   UNL     1       1.396   3.851  20.741  0.00  0.00    +0.000 C 
ATOM      8  O   UNL     1       2.499   4.667  20.342  0.00  0.00    +0.000 OA
ENDBRANCH   1   8
BRANCH   4   9
ATOM      9  N   UNL     1       1.402  10.011  18.529  0.00  0.00    +0.000 N 
ATOM     10  C   UNL     1       2.532  10.653  17.886  0.00  0.00    +0.000 C 
BRANCH   9  11
ATOM     11  C   UNL     1       0.219  10.755  18.798  0.00  0.00    +0.000 A 
ATOM     12  N   UNL     1       0.412  11.561  19.858  0.00  0.00    +0.000 NA
ATOM     13  C   UNL     1      -0.664  12.017  20.476  0.00  0.00    +0.000 A 
ATOM     14  C   UNL     1      -0.933  11.267  21.755  0.00  0.00    +0.000 C 
ATOM     15  N   UNL     1      -1.800  12.287  19.860  0.00  0.00    +0.000 NA
ATOM     16  C   UNL     1      -2.091  11.487  18.866  0.00  0.00    +0.000 A 
ATOM     17  C   UNL     1      -3.469  11.455  18.671  0.00  0.00    +0.000 A 
ATOM     18  C   UNL     1      -4.067  10.647  17.732  0.00  0.00    +0.000 A 
ATOM     19  C   UNL     1      -3.228   9.917  16.910  0.00  0.00    +0.000 A 
ATOM     20  C   UNL     1      -1.811   9.916  17.125  0.00  0.00    +0.000 A 
ATOM     21  C   UNL     1      -1.153  10.656  18.206  0.00  0.00    +0.000 A 
ENDBRANCH   9  11
ENDBRANCH   4   9
BRANCH   6  22
ATOM     22  O   UNL     1       3.309   5.585  17.759  0.00  0.00    +0.000 OA
BRANCH  22  23
ATOM     23  C   UNL     1       4.759   5.403  17.540  0.00  0.00    +0.000 C 
ATOM     24  C   UNL     1       4.966   4.579  16.191  0.00  0.00    +0.000 C 
ATOM     25  C   UNL     1       6.182   5.448  15.873  0.00  0.00    +0.000 C 
ATOM     26  C   UNL     1       5.604   6.518  16.825  0.00  0.00    +0.000 C 
BRANCH  23  27
ATOM     27  C   UNL     1       5.547   4.656  18.770  0.00  0.00    +0.000 C 
ATOM     28  N   UNL     1       5.084   3.384  19.114  0.00  0.00    +0.000 N 
ATOM     29  O   UNL     1       6.527   5.088  19.410  0.00  0.00    +0.000 OA
ATOM     30  H   UNL     1       4.212   3.084  18.704  0.00  0.00    +0.000 HD
ATOM     31  H   UNL     1       5.508   2.927  19.889  0.00  0.00    +0.000 HD
ENDBRANCH  23  27
ENDBRANCH  22  23
ENDBRANCH   6  22
TORSDOF 6
ENDMDL
MODEL 3
REMARK VINA RESULT:      -8.3      1.587      2.556
REMARK  Name = 
REMARK  9 active torsions:
REMARK  status: ('A' for Active; 'I' for Inactive)
REMARK    1  A    between atoms: C_1  and  O_2
REMARK    2  A    between atoms: O_2  and  C_3
REMARK    3  A    between atoms: C_6  and  N_7
REMARK    4  A    between atoms: N_7  and  C_8
REMARK    5  A    between atoms: N_7  and  C_9
REMARK    6  A    between atoms: C_11  and  C_12
REMARK    7  A    between atoms: C_21  and  O_22
REMARK    8  A    between atoms: O_22  and  C_23
REMARK    9  A    between atoms: C_23  and  C_24
REMARK                            x       y       z     vdW  Elec       q    Type
REMARK                         _______ _______ _______ _____ _____    ______ ____
ROOT
ATOM      1  C   UNL     1       3.312   6.465  18.033  0.00  0.00    +0.000 A 
ATOM      2  C   UNL     1       2.864   7.685  17.505  0.00  0.00    +0.000 A 
ATOM      3  C   UNL     1       2.102   8.614  18.288  0.00  0.00    +0.000 A 
ATOM      4  C   UNL     1       1.759   8.355  19.636  0.00  0.00    +0.000 A 
ATOM      5  C   UNL     1       2.206   7.106  20.130  0.00  0.00    +0.000 A 
ATOM      6  C   UNL     1       2.945   6.152  19.348  0.00  0.00    +0.000 A 
ENDROOT
BRANCH   1   8
ATOM      7  C   UNL     1       5.506   5.790  17.304  0.00  0.00    +0.000 C 
ATOM      8  O   UNL     1       4.095   5.570  17.358  0.00  0.00    +0.000 OA
ENDBRANCH   1   8
BRANCH   4   9
ATOM      9  N   UNL     1       1.017   9.302  20.464  0.00  0.00    +0.000 N 
ATOM     10  C   UNL     1       0.943   8.911  21.858  0.00  0.00    +0.000 C 
BRANCH   9  11
ATOM     11  C   UNL     1       0.235  10.391  19.987  0.00  0.00    +0.000 A 
ATOM     12  N   UNL     1      -0.963   9.947  19.566  0.00  0.00    +0.000 NA
ATOM     13  C   UNL     1      -1.647  10.732  18.751  0.00  0.00    +0.000 A 
ATOM     14  C   UNL     1      -1.557  10.267  17.321  0.00  0.00    +0.000 C 
ATOM     15  N   UNL     1      -1.607  12.051  18.803  0.00  0.00    +0.000 NA
ATOM     16  C   UNL     1      -0.443  12.554  19.128  0.00  0.00    +0.000 A 
ATOM     17  C   UNL     1      -0.323  13.841  18.615  0.00  0.00    +0.000 A 
ATOM     18  C   UNL     1       0.824  14.590  18.748  0.00  0.00    +0.000 A 
ATOM     19  C   UNL     1       1.844  14.040  19.502  0.00  0.00    +0.000 A 
ATOM     20  C   UNL     1       1.744  12.702  20.005  0.00  0.00    +0.000 A 
ATOM     21  C   UNL     1       0.594  11.826  19.762  0.00  0.00    +0.000 A 
ENDBRANCH   9  11
ENDBRANCH   4   9
BRANCH   6  22
ATOM     22  O   UNL     1       3.370   5.044  20.072  0.00  0.00    +0.000 OA
BRANCH  22  23
ATOM     23  C   UNL     1       2.740   3.707  20.084  0.00  0.00    +0.000 C 
ATOM     24  C   UNL     1       2.486   3.282  21.600  0.00  0.00    +0.000 C 
ATOM     25  C   UNL     1       1.160   2.651  21.177  0.00  0.00    +0.000 C 
ATOM     26  C   UNL     1       1.184   3.557  19.927  0.00  0.00    +0.000 C 
BRANCH  23  27
ATOM     27  C   UNL     1       3.601   2.538  19.320  0.00  0.00    +0.000 C 
ATOM     28  N   UNL     1       4.860   2.254  19.855  0.00  0.00    +0.000 N 
ATOM     29  O   UNL     1       3.245   1.862  18.334  0.00  0.00    +0.000 OA
ATOM     30  H   UNL     1       5.215   2.885  20.558  0.00  0.00    +0.000 HD
ATOM     31  H   UNL     1       5.428   1.587  19.384  0.00  0.00    +0.000 HD
ENDBRANCH  23  27
ENDBRANCH  22  23
ENDBRANCH   6  22
TORSDOF 6
ENDMDL
MODEL 4
REMARK VINA RESULT:      -8.3      1.328      1.581
REMARK  Name = 
REMARK  9 active torsions:
REMARK  status: ('A' for Active; 'I' for Inactive)
REMARK    1  A    between atoms: C_1  and  O_2
REMARK    2  A    between atoms: O_2  and  C_3
REMARK    3  A    between atoms: C_6  and  N_7
REMARK    4  A    between atoms: N_7  and  C_8
REMARK    5  A    between atoms: N_7  and  C_9
REMARK    6  A    between atoms: C_11  and  C_12
REMARK    7  A    between atoms: C_21  and  O_22
REMARK    8  A    between atoms: O_22  and  C_23
REMARK    9  A    between atoms: C_23  and  C_24
REMARK                            x       y       z     vdW  Elec       q    Type
REMARK                         _______ _______ _______ _____ _____    ______ ____
ROOT
ATOM      1  C   UNL     1       3.621   6.515  17.834  0.00  0.00    +0.000 A 
ATOM      2  C   UNL     1       3.176   7.772  17.396  0.00  0.00    +0.000 A 
ATOM      3  C   UNL     1       2.326   8.597  18.204  0.00  0.00    +0.000 A 
ATOM      4  C   UNL     1       1.886   8.193  19.486  0.00  0.00    +0.000 A 
ATOM      5  C   UNL     1       2.332   6.910  19.887  0.00  0.00    +0.000 A 
ATOM      6  C   UNL     1       3.161   6.060  19.076  0.00  0.00    +0.000 A 
ENDROOT
BRANCH   1   8
ATOM      7  C   UNL     1       5.759   6.235  16.762  0.00  0.00    +0.000 C 
ATOM      8  O   UNL     1       4.483   5.713  17.138  0.00  0.00    +0.000 OA
ENDBRANCH   1   8
BRANCH   4   9
ATOM      9  N   UNL     1       1.051   9.031  20.341  0.00  0.00    +0.000 N 
ATOM     10  C   UNL     1       0.843   8.476  21.665  0.00  0.00    +0.000 C 
BRANCH   9  11
ATOM     11  C   UNL     1       0.304  10.167  19.920  0.00  0.00    +0.000 A 
ATOM     12  N   UNL     1       0.418  11.155  20.826  0.00  0.00    +0.000 NA
ATOM     13  C   UNL     1      -0.496  12.110  20.800  0.00  0.00    +0.000 A 
ATOM     14  C   UNL     1      -1.518  11.934  21.893  0.00  0.00    +0.000 C 
ATOM     15  N   UNL     1      -1.081  12.530  19.693  0.00  0.00    +0.000 NA
ATOM     16  C   UNL     1      -1.298  11.599  18.798  0.00  0.00    +0.000 A 
ATOM     17  C   UNL     1      -2.369  11.961  17.987  0.00  0.00    +0.000 A 
ATOM     18  C   UNL     1      -2.862  11.143  16.997  0.00  0.00    +0.000 A 
ATOM     19  C   UNL     1      -2.185   9.958  16.773  0.00  0.00    +0.000 A 
ATOM     20  C   UNL     1      -1.103   9.559  17.624  0.00  0.00    +0.000 A 
ATOM     21  C   UNL     1      -0.644  10.343  18.775  0.00  0.00    +0.000 A 
ENDBRANCH   9  11
ENDBRANCH   4   9
BRANCH   6  22
ATOM     22  O   UNL     1       3.563   4.893  19.717  0.00  0.00    +0.000 OA
BRANCH  22  23
ATOM     23  C   UNL     1       2.948   3.557  19.577  0.00  0.00    +0.000 C 
ATOM     24  C   UNL     1       1.888   3.611  18.386  0.00  0.00    +0.000 C 
ATOM     25  C   UNL     1       2.318   2.204  17.972  0.00  0.00    +0.000 C 
ATOM     26  C   UNL     1       3.647   2.442  18.719  0.00  0.00    +0.000 C 
BRANCH  23  27
ATOM     27  C   UNL     1       2.222   2.993  20.936  0.00  0.00    +0.000 C 
ATOM     28  N   UNL     1       0.826   3.040  20.952  0.00  0.00    +0.000 N 
ATOM     29  O   UNL     1       2.779   2.504  21.940  0.00  0.00    +0.000 OA
ATOM     30  H   UNL     1       0.374   3.557  20.213  0.00  0.00    +0.000 HD
ATOM     31  H   UNL     1       0.359   2.753  21.783  0.00  0.00    +0.000 HD
ENDBRANCH  23  27
ENDBRANCH  22  23
ENDBRANCH   6  22
TORSDOF 6
ENDMDL
MODEL 5
REMARK VINA RESULT:      -8.2      0.862      1.044
REMARK  Name = 
REMARK  9 active torsions:
REMARK  status: ('A' for Active; 'I' for Inactive)
REMARK    1  A    between atoms: C_1  and  O_2
REMARK    2  A    between atoms: O_2  and  C_3
REMARK    3  A    between atoms: C_6  and  N_7
REMARK    4  A    between atoms: N_7  and  C_8
REMARK    5  A    between atoms: N_7  and  C_9
REMARK    6  A    between atoms: C_11  and  C_12
REMARK    7  A    between atoms: C_21  and  O_22
REMARK    8  A    between atoms: O_22  and  C_23
REMARK    9  A    between atoms: C_23  and  C_24
REMARK                            x       y       z     vdW  Elec       q    Type
REMARK                         _______ _______ _______ _____ _____    ______ ____
ROOT
ATOM      1  C   UNL     1       3.051   7.162  18.058  0.00  0.00    +0.000 A 
ATOM      2  C   UNL     1       2.672   8.446  17.637  0.00  0.00    +0.000 A 
ATOM      3  C   UNL     1       1.876   9.308  18.462  0.00  0.00    +0.000 A 
ATOM      4  C   UNL     1       1.427   8.915  19.744  0.00  0.00    +0.000 A 
ATOM      5  C   UNL     1       1.807   7.606  20.128  0.00  0.00    +0.000 A 
ATOM      6  C   UNL     1       2.579   6.720  19.301  0.00  0.00    +0.000 A 
ENDROOT
BRANCH   1   8
ATOM      7  C   UNL     1       5.277   6.499  17.422  0.00  0.00    +0.000 C 
ATOM      8  O   UNL     1       3.861   6.321  17.346  0.00  0.00    +0.000 OA
ENDBRANCH   1   8
BRANCH   4   9
ATOM      9  N   UNL     1       0.648   9.789  20.616  0.00  0.00    +0.000 N 
ATOM     10  C   UNL     1       0.779   9.464  22.024  0.00  0.00    +0.000 C 
BRANCH   9  11
ATOM     11  C   UNL     1      -0.331  10.731  20.192  0.00  0.00    +0.000 A 
ATOM     12  N   UNL     1      -0.356  11.780  21.033  0.00  0.00    +0.000 NA
ATOM     13  C   UNL     1      -1.439  12.539  21.024  0.00  0.00    +0.000 A 
ATOM     14  C   UNL     1      -2.338  12.244  22.196  0.00  0.00    +0.000 C 
ATOM     15  N   UNL     1      -2.163  12.765  19.942  0.00  0.00    +0.000 NA
ATOM     16  C   UNL     1      -2.248  11.753  19.116  0.00  0.00    +0.000 A 
ATOM     17  C   UNL     1      -3.418  11.849  18.368  0.00  0.00    +0.000 A 
ATOM     18  C   UNL     1      -3.801  10.888  17.462  0.00  0.00    +0.000 A 
ATOM     19  C   UNL     1      -2.921   9.842  17.251  0.00  0.00    +0.000 A 
ATOM     20  C   UNL     1      -1.732   9.715  18.041  0.00  0.00    +0.000 A 
ATOM     21  C   UNL     1      -1.364  10.646  19.112  0.00  0.00    +0.000 A 
ENDBRANCH   9  11
ENDBRANCH   4   9
BRANCH   6  22
ATOM     22  O   UNL     1       2.923   5.527  19.926  0.00  0.00    +0.000 OA
BRANCH  22  23
ATOM     23  C   UNL     1       2.248   4.222  19.761  0.00  0.00    +0.000 C 
ATOM     24  C   UNL     1       2.947   3.168  20.733  0.00  0.00    +0.000 C 
ATOM     25  C   UNL     1       1.575   2.557  21.018  0.00  0.00    +0.000 C 
ATOM     26  C   UNL     1       0.942   3.892  20.569  0.00  0.00    +0.000 C 
BRANCH  23  27
ATOM     27  C   UNL     1       2.247   3.642  18.227  0.00  0.00    +0.000 C 
ATOM     28  N   UNL     1       3.452   3.102  17.773  0.00  0.00    +0.000 N 
ATOM     29  O   UNL     1       1.283   3.608  17.436  0.00  0.00    +0.000 OA
ATOM     30  H   UNL     1       4.269   3.251  18.347  0.00  0.00    +0.000 HD
ATOM     31  H   UNL     1       3.497   2.790  16.830  0.00  0.00    +0.000 HD
ENDBRANCH  23  27
ENDBRANCH  22  23
ENDBRANCH   6  22
TORSDOF 6
ENDMDL
MODEL 6
REMARK VINA RESULT:      -8.0      1.812      2.827
REMARK  Name = 
REMARK  9 active torsions:
REMARK  status: ('A' for Active; 'I' for Inactive)
REMARK    1  A    between atoms: C_1  and  O_2
REMARK    2  A    between atoms: O_2  and  C_3
REMARK    3  A    between atoms: C_6  and  N_7
REMARK    4  A    between atoms: N_7  and  C_8
REMARK    5  A    between atoms: N_7  and  C_9
REMARK    6  A    between atoms: C_11  and  C_12
REMARK    7  A    between atoms: C_21  and  O_22
REMARK    8  A    between atoms: O_22  and  C_23
REMARK    9  A    between atoms: C_23  and  C_24
REMARK                            x       y       z     vdW  Elec       q    Type
REMARK                         _______ _______ _______ _____ _____    ______ ____
ROOT
ATOM      1  C   UNL     1       3.472   6.608  17.906  0.00  0.00    +0.000 A 
ATOM      2  C   UNL     1       3.037   7.858  17.437  0.00  0.00    +0.000 A 
ATOM      3  C   UNL     1       2.207   8.716  18.231  0.00  0.00    +0.000 A 
ATOM      4  C   UNL     1       1.779   8.355  19.529  0.00  0.00    +0.000 A 
ATOM      5  C   UNL     1       2.215   7.080  19.962  0.00  0.00    +0.000 A 
ATOM      6  C   UNL     1       3.023   6.196  19.167  0.00  0.00    +0.000 A 
ENDROOT
BRANCH   1   8
ATOM      7  C   UNL     1       5.531   6.309  16.692  0.00  0.00    +0.000 C 
ATOM      8  O   UNL     1       4.316   5.776  17.224  0.00  0.00    +0.000 OA
ENDBRANCH   1   8
BRANCH   4   9
ATOM      9  N   UNL     1       0.965   9.229  20.370  0.00  0.00    +0.000 N 
ATOM     10  C   UNL     1       0.799   8.734  21.723  0.00  0.00    +0.000 C 
BRANCH   9  11
ATOM     11  C   UNL     1       0.200  10.341  19.921  0.00  0.00    +0.000 A 
ATOM     12  N   UNL     1      -1.014   9.931  19.513  0.00  0.00    +0.000 NA
ATOM     13  C   UNL     1      -1.693  10.742  18.719  0.00  0.00    +0.000 A 
ATOM     14  C   UNL     1      -1.634  10.295  17.282  0.00  0.00    +0.000 C 
ATOM     15  N   UNL     1      -1.622  12.059  18.789  0.00  0.00    +0.000 NA
ATOM     16  C   UNL     1      -0.442  12.531  19.103  0.00  0.00    +0.000 A 
ATOM     17  C   UNL     1      -0.301  13.823  18.605  0.00  0.00    +0.000 A 
ATOM     18  C   UNL     1       0.864  14.544  18.731  0.00  0.00    +0.000 A 
ATOM     19  C   UNL     1       1.884  13.960  19.461  0.00  0.00    +0.000 A 
ATOM     20  C   UNL     1       1.761  12.618  19.947  0.00  0.00    +0.000 A 
ATOM     21  C   UNL     1       0.588  11.772  19.710  0.00  0.00    +0.000 A 
ENDBRANCH   9  11
ENDBRANCH   4   9
BRANCH   6  22
ATOM     22  O   UNL     1       3.420   5.044  19.837  0.00  0.00    +0.000 OA
BRANCH  22  23
ATOM     23  C   UNL     1       2.877   3.683  19.642  0.00  0.00    +0.000 C 
ATOM     24  C   UNL     1       1.782   3.738  18.484  0.00  0.00    +0.000 C 
ATOM     25  C   UNL     1       2.278   2.381  17.983  0.00  0.00    +0.000 C 
ATOM     26  C   UNL     1       3.613   2.657  18.707  0.00  0.00    +0.000 C 
BRANCH  23  27
ATOM     27  C   UNL     1       2.225   3.008  20.988  0.00  0.00    +0.000 C 
ATOM     28  N   UNL     1       0.830   2.997  21.055  0.00  0.00    +0.000 N 
ATOM     29  O   UNL     1       2.837   2.482  21.939  0.00  0.00    +0.000 OA
ATOM     30  H   UNL     1       0.331   3.541  20.366  0.00  0.00    +0.000 HD
ATOM     31  H   UNL     1       0.406   2.642  21.882  0.00  0.00    +0.000 HD
ENDBRANCH  23  27
ENDBRANCH  22  23
ENDBRANCH   6  22
TORSDOF 6
ENDMDL
MODEL 7
REMARK VINA RESULT:      -7.9      2.971      8.370
REMARK  Name = 
REMARK  9 active torsions:
REMARK  status: ('A' for Active; 'I' for Inactive)
REMARK    1  A    between atoms: C_1  and  O_2
REMARK    2  A    between atoms: O_2  and  C_3
REMARK    3  A    between atoms: C_6  and  N_7
REMARK    4  A    between atoms: N_7  and  C_8
REMARK    5  A    between atoms: N_7  and  C_9
REMARK    6  A    between atoms: C_11  and  C_12
REMARK    7  A    between atoms: C_21  and  O_22
REMARK    8  A    between atoms: O_22  and  C_23
REMARK    9  A    between atoms: C_23  and  C_24
REMARK                            x       y       z     vdW  Elec       q    Type
REMARK                         _______ _______ _______ _____ _____    ______ ____
ROOT
ATOM      1  C   UNL     1      -0.138   9.944  20.891  0.00  0.00    +0.000 A 
ATOM      2  C   UNL     1       0.662   8.985  21.533  0.00  0.00    +0.000 A 
ATOM      3  C   UNL     1       1.591   8.169  20.807  0.00  0.00    +0.000 A 
ATOM      4  C   UNL     1       1.755   8.280  19.407  0.00  0.00    +0.000 A 
ATOM      5  C   UNL     1       0.916   9.239  18.789  0.00  0.00    +0.000 A 
ATOM      6  C   UNL     1      -0.040  10.044  19.498  0.00  0.00    +0.000 A 
ENDROOT
BRANCH   1   8
ATOM      7  C   UNL     1      -1.001  10.815  22.965  0.00  0.00    +0.000 C 
ATOM      8  O   UNL     1      -0.993  10.795  21.535  0.00  0.00    +0.000 OA
ENDBRANCH   1   8
BRANCH   4   9
ATOM      9  N   UNL     1       2.720   7.486  18.653  0.00  0.00    +0.000 N 
ATOM     10  C   UNL     1       2.963   7.992  17.316  0.00  0.00    +0.000 C 
BRANCH   9  11
ATOM     11  C   UNL     1       3.236   6.216  19.038  0.00  0.00    +0.000 A 
ATOM     12  N   UNL     1       4.497   6.077  18.592  0.00  0.00    +0.000 NA
ATOM     13  C   UNL     1       4.980   4.849  18.515  0.00  0.00    +0.000 A 
ATOM     14  C   UNL     1       4.977   4.335  17.099  0.00  0.00    +0.000 C 
ATOM     15  N   UNL     1       4.650   3.881  19.350  0.00  0.00    +0.000 NA
ATOM     16  C   UNL     1       3.407   3.910  19.762  0.00  0.00    +0.000 A 
ATOM     17  C   UNL     1       2.999   2.629  20.124  0.00  0.00    +0.000 A 
ATOM     18  C   UNL     1       1.717   2.348  20.537  0.00  0.00    +0.000 A 
ATOM     19  C   UNL     1       0.852   3.420  20.665  0.00  0.00    +0.000 A 
ATOM     20  C   UNL     1       1.253   4.736  20.261  0.00  0.00    +0.000 A 
ATOM     21  C   UNL     1       2.565   5.046  19.686  0.00  0.00    +0.000 A 
ENDBRANCH   9  11
ENDBRANCH   4   9
BRANCH   6  22
ATOM     22  O   UNL     1      -0.675  10.991  18.702  0.00  0.00    +0.000 OA
BRANCH  22  23
ATOM     23  C   UNL     1      -2.090  10.975  18.276  0.00  0.00    +0.000 C 
ATOM     24  C   UNL     1      -2.152  11.307  16.717  0.00  0.00    +0.000 C 
ATOM     25  C   UNL     1      -3.279  10.285  16.568  0.00  0.00    +0.000 C 
ATOM     26  C   UNL     1      -2.788   9.626  17.874  0.00  0.00    +0.000 C 
BRANCH  23  27
ATOM     27  C   UNL     1      -3.064  12.008  19.100  0.00  0.00    +0.000 C 
ATOM     28  N   UNL     1      -2.420  13.020  19.815  0.00  0.00    +0.000 N 
ATOM     29  O   UNL     1      -4.311  12.002  19.133  0.00  0.00    +0.000 OA
ATOM     30  H   UNL     1      -1.417  12.951  19.910  0.00  0.00    +0.000 HD
ATOM     31  H   UNL     1      -2.979  13.630  20.366  0.00  0.00    +0.000 HD
ENDBRANCH  23  27
ENDBRANCH  22  23
ENDBRANCH   6  22
TORSDOF 6
ENDMDL
MODEL 8
REMARK VINA RESULT:      -7.8      1.641      3.822
REMARK  Name = 
REMARK  9 active torsions:
REMARK  status: ('A' for Active; 'I' for Inactive)
REMARK    1  A    between atoms: C_1  and  O_2
REMARK    2  A    between atoms: O_2  and  C_3
REMARK    3  A    between atoms: C_6  and  N_7
REMARK    4  A    between atoms: N_7  and  C_8
REMARK    5  A    between atoms: N_7  and  C_9
REMARK    6  A    between atoms: C_11  and  C_12
REMARK    7  A    between atoms: C_21  and  O_22
REMARK    8  A    between atoms: O_22  and  C_23
REMARK    9  A    between atoms: C_23  and  C_24
REMARK                            x       y       z     vdW  Elec       q    Type
REMARK                         _______ _______ _______ _____ _____    ______ ____
ROOT
ATOM      1  C   UNL     1       2.457   5.568  19.904  0.00  0.00    +0.000 A 
ATOM      2  C   UNL     1       1.814   6.434  20.802  0.00  0.00    +0.000 A 
ATOM      3  C   UNL     1       1.451   7.772  20.433  0.00  0.00    +0.000 A 
ATOM      4  C   UNL     1       1.720   8.295  19.147  0.00  0.00    +0.000 A 
ATOM      5  C   UNL     1       2.390   7.404  18.275  0.00  0.00    +0.000 A 
ATOM      6  C   UNL     1       2.786   6.071  18.639  0.00  0.00    +0.000 A 
ENDROOT
BRANCH   1   8
ATOM      7  C   UNL     1       1.888   3.502  21.003  0.00  0.00    +0.000 C 
ATOM      8  O   UNL     1       2.768   4.264  20.174  0.00  0.00    +0.000 OA
ENDBRANCH   1   8
BRANCH   4   9
ATOM      9  N   UNL     1       1.327   9.640  18.737  0.00  0.00    +0.000 N 
ATOM     10  C   UNL     1       2.338  10.322  17.952  0.00  0.00    +0.000 C 
BRANCH   9  11
ATOM     11  C   UNL     1       0.189  10.355  19.207  0.00  0.00    +0.000 A 
ATOM     12  N   UNL     1      -0.362  11.056  18.201  0.00  0.00    +0.000 NA
ATOM     13  C   UNL     1      -1.162  12.057  18.527  0.00  0.00    +0.000 A 
ATOM     14  C   UNL     1      -0.475  13.391  18.384  0.00  0.00    +0.000 C 
ATOM     15  N   UNL     1      -1.933  12.056  19.599  0.00  0.00    +0.000 NA
ATOM     16  C   UNL     1      -1.420  11.459  20.645  0.00  0.00    +0.000 A 
ATOM     17  C   UNL     1      -1.977  11.980  21.809  0.00  0.00    +0.000 A 
ATOM     18  C   UNL     1      -1.580  11.583  23.065  0.00  0.00    +0.000 A 
ATOM     19  C   UNL     1      -0.648  10.563  23.132  0.00  0.00    +0.000 A 
ATOM     20  C   UNL     1      -0.043  10.045  21.941  0.00  0.00    +0.000 A 
ATOM     21  C   UNL     1      -0.341  10.542  20.595  0.00  0.00    +0.000 A 
ENDBRANCH   9  11
ENDBRANCH   4   9
BRANCH   6  22
ATOM     22  O   UNL     1       3.334   5.343  17.589  0.00  0.00    +0.000 OA
BRANCH  22  23
ATOM     23  C   UNL     1       4.756   5.312  17.188  0.00  0.00    +0.000 C 
ATOM     24  C   UNL     1       4.929   4.230  16.029  0.00  0.00    +0.000 C 
ATOM     25  C   UNL     1       5.935   5.157  15.346  0.00  0.00    +0.000 C 
ATOM     26  C   UNL     1       5.308   6.332  16.128  0.00  0.00    +0.000 C 
BRANCH  23  27
ATOM     27  C   UNL     1       5.803   4.987  18.408  0.00  0.00    +0.000 C 
ATOM     28  N   UNL     1       5.644   3.753  19.042  0.00  0.00    +0.000 N 
ATOM     29  O   UNL     1       6.739   5.708  18.810  0.00  0.00    +0.000 OA
ATOM     30  H   UNL     1       4.811   3.226  18.824  0.00  0.00    +0.000 HD
ATOM     31  H   UNL     1       6.230   3.548  19.820  0.00  0.00    +0.000 HD
ENDBRANCH  23  27
ENDBRANCH  22  23
ENDBRANCH   6  22
TORSDOF 6
ENDMDL
MODEL 9
REMARK VINA RESULT:      -7.7      3.386      8.367
REMARK  Name = 
REMARK  9 active torsions:
REMARK  status: ('A' for Active; 'I' for Inactive)
REMARK    1  A    between atoms: C_1  and  O_2
REMARK    2  A    between atoms: O_2  and  C_3
REMARK    3  A    between atoms: C_6  and  N_7
REMARK    4  A    between atoms: N_7  and  C_8
REMARK    5  A    between atoms: N_7  and  C_9
REMARK    6  A    between atoms: C_11  and  C_12
REMARK    7  A    between atoms: C_21  and  O_22
REMARK    8  A    between atoms: O_22  and  C_23
REMARK    9  A    between atoms: C_23  and  C_24
REMARK                            x       y       z     vdW  Elec       q    Type
REMARK                         _______ _______ _______ _____ _____    ______ ____
ROOT
ATOM      1  C   UNL     1       0.126   9.547  20.929  0.00  0.00    +0.000 A 
ATOM      2  C   UNL     1       0.750   8.422  21.492  0.00  0.00    +0.000 A 
ATOM      3  C   UNL     1       1.695   7.634  20.757  0.00  0.00    +0.000 A 
ATOM      4  C   UNL     1       2.053   7.942  19.424  0.00  0.00    +0.000 A 
ATOM      5  C   UNL     1       1.389   9.066  18.878  0.00  0.00    +0.000 A 
ATOM      6  C   UNL     1       0.418   9.849  19.593  0.00  0.00    +0.000 A 
ENDROOT
BRANCH   1   8
ATOM      7  C   UNL     1      -0.704  10.384  23.028  0.00  0.00    +0.000 C 
ATOM      8  O   UNL     1      -0.731  10.374  21.600  0.00  0.00    +0.000 OA
ENDBRANCH   1   8
BRANCH   4   9
ATOM      9  N   UNL     1       3.040   7.176  18.668  0.00  0.00    +0.000 N 
ATOM     10  C   UNL     1       3.377   7.773  17.390  0.00  0.00    +0.000 C 
BRANCH   9  11
ATOM     11  C   UNL     1       3.497   5.865  18.983  0.00  0.00    +0.000 A 
ATOM     12  N   UNL     1       4.832   5.870  19.146  0.00  0.00    +0.000 NA
ATOM     13  C   UNL     1       5.457   4.708  19.054  0.00  0.00    +0.000 A 
ATOM     14  C   UNL     1       6.144   4.547  17.722  0.00  0.00    +0.000 C 
ATOM     15  N   UNL     1       4.925   3.560  19.432  0.00  0.00    +0.000 NA
ATOM     16  C   UNL     1       3.636   3.458  19.226  0.00  0.00    +0.000 A 
ATOM     17  C   UNL     1       3.283   2.118  19.096  0.00  0.00    +0.000 A 
ATOM     18  C   UNL     1       1.999   1.712  18.811  0.00  0.00    +0.000 A 
ATOM     19  C   UNL     1       1.034   2.700  18.741  0.00  0.00    +0.000 A 
ATOM     20  C   UNL     1       1.393   4.084  18.838  0.00  0.00    +0.000 A 
ATOM     21  C   UNL     1       2.771   4.556  19.003  0.00  0.00    +0.000 A 
ENDBRANCH   9  11
ENDBRANCH   4   9
BRANCH   6  22
ATOM     22  O   UNL     1      -0.023  10.968  18.895  0.00  0.00    +0.000 OA
BRANCH  22  23
ATOM     23  C   UNL     1       0.426  12.362  19.096  0.00  0.00    +0.000 C 
ATOM     24  C   UNL     1      -0.473  13.317  18.188  0.00  0.00    +0.000 C 
ATOM     25  C   UNL     1      -0.464  14.354  19.311  0.00  0.00    +0.000 C 
ATOM     26  C   UNL     1      -0.127  13.213  20.295  0.00  0.00    +0.000 C 
BRANCH  23  27
ATOM     27  C   UNL     1       2.012  12.623  18.770  0.00  0.00    +0.000 C 
ATOM     28  N   UNL     1       2.460  12.195  17.518  0.00  0.00    +0.000 N 
ATOM     29  O   UNL     1       2.850  13.184  19.505  0.00  0.00    +0.000 OA
ATOM     30  H   UNL     1       1.834  11.619  16.976  0.00  0.00    +0.000 HD
ATOM     31  H   UNL     1       3.429  12.292  17.311  0.00  0.00    +0.000 HD
ENDBRANCH  23  27
ENDBRANCH  22  23
ENDBRANCH   6  22
TORSDOF 6
ENDMDL
