MODEL 1
REMARK VINA RESULT:      -8.8      0.000      0.000
REMARK  Name = 
REMARK  5 active torsions:
REMARK  status: ('A' for Active; 'I' for Inactive)
REMARK    1  A    between atoms: C_1  and  O_2
REMARK    2  A    between atoms: O_2  and  C_3
REMARK    3  A    between atoms: C_6  and  C_7
REMARK    4  A    between atoms: C_14  and  C_15
REMARK    5  A    between atoms: C_22  and  C_23
REMARK                            x       y       z     vdW  Elec       q    Type
REMARK                         _______ _______ _______ _____ _____    ______ ____
ROOT
ATOM      1  C   UNL     1       5.157   5.456  15.581  0.00  0.00    +0.000 C 
ATOM      2  O   UNL     1       5.073   6.680  15.640  0.00  0.00    +0.000 OA
ATOM      3  N   UNL     1       4.722   4.588  16.546  0.00  0.00    +0.000 N 
ATOM      4  C   UNL     1       4.042   4.935  17.704  0.00  0.00    +0.000 A 
ATOM      5  N   UNL     1       3.962   3.931  18.588  0.00  0.00    +0.000 NA
ATOM      6  C   UNL     1       3.361   4.210  19.755  0.00  0.00    +0.000 A 
ATOM      7  C   UNL     1       2.803   5.430  20.040  0.00  0.00    +0.000 A 
ATOM      8  C   UNL     1       2.862   6.389  19.043  0.00  0.00    +0.000 A 
ATOM      9  N   UNL     1       3.508   6.150  17.883  0.00  0.00    +0.000 NA
ATOM     10  H   UNL     1       4.978   3.614  16.543  0.00  0.00    +0.000 HD
ENDROOT
BRANCH   8  11
ATOM     11  C   UNL     1       2.186   7.704  19.174  0.00  0.00    +0.000 A 
ATOM     12  C   UNL     1       2.152   8.595  18.088  0.00  0.00    +0.000 A 
ATOM     13  C   UNL     1       1.521   9.841  18.166  0.00  0.00    +0.000 A 
ATOM     14  C   UNL     1       0.895  10.227  19.359  0.00  0.00    +0.000 A 
ATOM     15  N   UNL     1       0.228  11.418  19.559  0.00  0.00    +0.000 NA
ATOM     16  C   UNL     1      -0.300  11.442  20.758  0.00  0.00    +0.000 A 
ATOM     17  N   UNL     1      -1.028  12.535  21.133  0.00  0.00    +0.000 N 
ATOM     18  C   UNL     1      -1.858  12.846  22.150  0.00  0.00    +0.000 C 
ATOM     19  C   UNL     1      -2.331  11.883  23.201  0.00  0.00    +0.000 C 
ATOM     20  O   UNL     1      -2.300  14.003  22.177  0.00  0.00    +0.000 OA
ATOM     21  S   UNL     1       0.071  10.115  21.750  0.00  0.00    +0.000 S 
ATOM     22  C   UNL     1       0.929   9.362  20.453  0.00  0.00    +0.000 A 
ATOM     23  C   UNL     1       1.583   8.111  20.387  0.00  0.00    +0.000 A 
ATOM     24  H   UNL     1      -0.956  13.284  20.456  0.00  0.00    +0.000 HD
ENDBRANCH   8  11
BRANCH   1  28
ATOM     25  C   UNL     1       6.989   3.569  12.152  0.00  0.00    +0.000 A 
ATOM     26  C   UNL     1       5.687   3.263  12.546  0.00  0.00    +0.000 A 
ATOM     27  C   UNL     1       5.108   3.906  13.643  0.00  0.00    +0.000 A 
ATOM     28  C   UNL     1       5.829   4.852  14.384  0.00  0.00    +0.000 A 
ATOM     29  C   UNL     1       7.144   5.150  13.989  0.00  0.00    +0.000 A 
ATOM     30  C   UNL     1       7.716   4.514  12.876  0.00  0.00    +0.000 A 
BRANCH  25  32
ATOM     31  C   UNL     1       7.045   1.490  11.021  0.00  0.00    +0.000 C 
ATOM     32  O   UNL     1       7.455   2.850  11.089  0.00  0.00    +0.000 OA
ENDBRANCH  25  32
ENDBRANCH   1  28
TORSDOF 3
ENDMDL
MODEL 2
REMARK VINA RESULT:      -8.3      3.665     10.484
REMARK  Name = 
REMARK  5 active torsions:
REMARK  status: ('A' for Active; 'I' for Inactive)
REMARK    1  A    between atoms: C_1  and  O_2
REMARK    2  A    between atoms: O_2  and  C_3
REMARK    3  A    between atoms: C_6  and  C_7
REMARK    4  A    between atoms: C_14  and  C_15
REMARK    5  A    between atoms: C_22  and  C_23
REMARK                            x       y       z     vdW  Elec       q    Type
REMARK                         _______ _______ _______ _____ _____    ______ ____
ROOT
ATOM      1  C   UNL     1       1.030  12.863  19.335  0.00  0.00    +0.000 C 
ATOM      2  O   UNL     1       1.308  12.037  18.469  0.00  0.00    +0.000 OA
ATOM      3  N   UNL     1       0.562  12.566  20.587  0.00  0.00    +0.000 N 
ATOM      4  C   UNL     1       0.405  11.293  21.115  0.00  0.00    +0.000 A 
ATOM      5  N   UNL     1      -0.304  11.279  22.252  0.00  0.00    +0.000 NA
ATOM      6  C   UNL     1      -0.540  10.074  22.793  0.00  0.00    +0.000 A 
ATOM      7  C   UNL     1      -0.053   8.905  22.266  0.00  0.00    +0.000 A 
ATOM      8  C   UNL     1       0.734   9.014  21.132  0.00  0.00    +0.000 A 
ATOM      9  N   UNL     1       0.940  10.208  20.539  0.00  0.00    +0.000 NA
ATOM     10  H   UNL     1       0.172  13.270  21.192  0.00  0.00    +0.000 HD
ENDROOT
BRANCH   8  11
ATOM     11  C   UNL     1       1.425   7.843  20.538  0.00  0.00    +0.000 A 
ATOM     12  C   UNL     1       1.207   6.554  21.053  0.00  0.00    +0.000 A 
ATOM     13  C   UNL     1       1.833   5.423  20.519  0.00  0.00    +0.000 A 
ATOM     14  C   UNL     1       2.707   5.563  19.432  0.00  0.00    +0.000 A 
ATOM     15  N   UNL     1       3.372   4.528  18.807  0.00  0.00    +0.000 NA
ATOM     16  C   UNL     1       4.056   4.984  17.787  0.00  0.00    +0.000 A 
ATOM     17  N   UNL     1       4.763   4.101  17.022  0.00  0.00    +0.000 N 
ATOM     18  C   UNL     1       5.398   4.138  15.832  0.00  0.00    +0.000 C 
ATOM     19  C   UNL     1       5.376   5.300  14.880  0.00  0.00    +0.000 C 
ATOM     20  O   UNL     1       5.995   3.110  15.484  0.00  0.00    +0.000 OA
ATOM     21  S   UNL     1       4.046   6.671  17.592  0.00  0.00    +0.000 S 
ATOM     22  C   UNL     1       2.946   6.836  18.915  0.00  0.00    +0.000 A 
ATOM     23  C   UNL     1       2.333   7.985  19.463  0.00  0.00    +0.000 A 
ATOM     24  H   UNL     1       4.780   3.177  17.435  0.00  0.00    +0.000 HD
ENDBRANCH   8  11
BRANCH   1  28
ATOM     25  C   UNL     1       1.246  17.052  18.300  0.00  0.00    +0.000 A 
ATOM     26  C   UNL     1       0.051  16.461  18.704  0.00  0.00    +0.000 A 
ATOM     27  C   UNL     1       0.012  15.109  19.058  0.00  0.00    +0.000 A 
ATOM     28  C   UNL     1       1.165  14.317  18.993  0.00  0.00    +0.000 A 
ATOM     29  C   UNL     1       2.366  14.915  18.577  0.00  0.00    +0.000 A 
ATOM     30  C   UNL     1       2.404  16.277  18.237  0.00  0.00    +0.000 A 
BRANCH  25  32
ATOM     31  C   UNL     1       0.834  18.631  16.584  0.00  0.00    +0.000 C 
ATOM     32  O   UNL     1       1.149  18.368  17.946  0.00  0.00    +0.000 OA
ENDBRANCH  25  32
ENDBRANCH   1  28
TORSDOF 3
ENDMDL
MODEL 3
REMARK VINA RESULT:      -8.1      1.624      2.096
REMARK  Name = 
REMARK  5 active torsions:
REMARK  status: ('A' for Active; 'I' for Inactive)
REMARK    1  A    between atoms: C_1  and  O_2
REMARK    2  A    between atoms: O_2  and  C_3
REMARK    3  A    between atoms: C_6  and  C_7
REMARK    4  A    between atoms: C_14  and  C_15
REMARK    5  A    between atoms: C_22  and  C_23
REMARK                            x       y       z     vdW  Elec       q    Type
REMARK                         _______ _______ _______ _____ _____    ______ ____
ROOT
ATOM      1  C   UNL     1       5.124   5.113  15.889  0.00  0.00    +0.000 C 
ATOM      2  O   UNL     1       5.056   6.315  16.133  0.00  0.00    +0.000 OA
ATOM      3  N   UNL     1       4.667   4.114  16.707  0.00  0.00    +0.000 N 
ATOM      4  C   UNL     1       3.980   4.291  17.898  0.00  0.00    +0.000 A 
ATOM      5  N   UNL     1       3.877   3.165  18.619  0.00  0.00    +0.000 NA
ATOM      6  C   UNL     1       3.268   3.272  19.810  0.00  0.00    +0.000 A 
ATOM      7  C   UNL     1       2.723   4.442  20.273  0.00  0.00    +0.000 A 
ATOM      8  C   UNL     1       2.806   5.541  19.435  0.00  0.00    +0.000 A 
ATOM      9  N   UNL     1       3.460   5.473  18.257  0.00  0.00    +0.000 NA
ATOM     10  H   UNL     1       4.910   3.149  16.557  0.00  0.00    +0.000 HD
ENDROOT
BRANCH   8  11
ATOM     11  C   UNL     1       2.146   6.831  19.759  0.00  0.00    +0.000 A 
ATOM     12  C   UNL     1       1.394   6.965  20.939  0.00  0.00    +0.000 A 
ATOM     13  C   UNL     1       0.762   8.163  21.286  0.00  0.00    +0.000 A 
ATOM     14  C   UNL     1       0.875   9.277  20.442  0.00  0.00    +0.000 A 
ATOM     15  N   UNL     1       0.314  10.515  20.678  0.00  0.00    +0.000 NA
ATOM     16  C   UNL     1       0.662  11.354  19.734  0.00  0.00    +0.000 A 
ATOM     17  N   UNL     1       0.225  12.645  19.809  0.00  0.00    +0.000 N 
ATOM     18  C   UNL     1       0.510  13.805  19.181  0.00  0.00    +0.000 C 
ATOM     19  C   UNL     1       1.617  13.995  18.183  0.00  0.00    +0.000 C 
ATOM     20  O   UNL     1      -0.164  14.795  19.500  0.00  0.00    +0.000 OA
ATOM     21  S   UNL     1       1.564  10.690  18.459  0.00  0.00    +0.000 S 
ATOM     22  C   UNL     1       1.607   9.159  19.261  0.00  0.00    +0.000 A 
ATOM     23  C   UNL     1       2.231   7.946  18.894  0.00  0.00    +0.000 A 
ATOM     24  H   UNL     1      -0.456  12.769  20.548  0.00  0.00    +0.000 HD
ENDBRANCH   8  11
BRANCH   1  28
ATOM     25  C   UNL     1       6.978   3.735  12.238  0.00  0.00    +0.000 A 
ATOM     26  C   UNL     1       5.715   3.295  12.626  0.00  0.00    +0.000 A 
ATOM     27  C   UNL     1       5.125   3.775  13.799  0.00  0.00    +0.000 A 
ATOM     28  C   UNL     1       5.800   4.688  14.619  0.00  0.00    +0.000 A 
ATOM     29  C   UNL     1       7.077   5.123  14.229  0.00  0.00    +0.000 A 
ATOM     30  C   UNL     1       7.658   4.650  13.041  0.00  0.00    +0.000 A 
BRANCH  25  32
ATOM     31  C   UNL     1       7.267   1.765  10.956  0.00  0.00    +0.000 C 
ATOM     32  O   UNL     1       7.462   3.167  11.094  0.00  0.00    +0.000 OA
ENDBRANCH  25  32
ENDBRANCH   1  28
TORSDOF 3
ENDMDL
MODEL 4
REMARK VINA RESULT:      -7.9      3.269      6.009
REMARK  Name = 
REMARK  5 active torsions:
REMARK  status: ('A' for Active; 'I' for Inactive)
REMARK    1  A    between atoms: C_1  and  O_2
REMARK    2  A    between atoms: O_2  and  C_3
REMARK    3  A    between atoms: C_6  and  C_7
REMARK    4  A    between atoms: C_14  and  C_15
REMARK    5  A    between atoms: C_22  and  C_23
REMARK                            x       y       z     vdW  Elec       q    Type
REMARK                         _______ _______ _______ _____ _____    ______ ____
ROOT
ATOM      1  C   UNL     1       2.074   8.479  18.340  0.00  0.00    +0.000 C 
ATOM      2  O   UNL     1       0.998   8.197  18.862  0.00  0.00    +0.000 OA
ATOM      3  N   UNL     1       2.521   9.748  18.090  0.00  0.00    +0.000 N 
ATOM      4  C   UNL     1       1.881  10.922  18.457  0.00  0.00    +0.000 A 
ATOM      5  N   UNL     1       2.399  12.010  17.870  0.00  0.00    +0.000 NA
ATOM      6  C   UNL     1       1.796  13.178  18.139  0.00  0.00    +0.000 A 
ATOM      7  C   UNL     1       0.737  13.295  19.003  0.00  0.00    +0.000 A 
ATOM      8  C   UNL     1       0.310  12.135  19.625  0.00  0.00    +0.000 A 
ATOM      9  N   UNL     1       0.865  10.941  19.330  0.00  0.00    +0.000 NA
ATOM     10  H   UNL     1       3.314   9.927  17.496  0.00  0.00    +0.000 HD
ENDROOT
BRANCH   8  11
ATOM     11  C   UNL     1      -0.739  12.144  20.675  0.00  0.00    +0.000 A 
ATOM     12  C   UNL     1      -0.438  11.726  21.983  0.00  0.00    +0.000 A 
ATOM     13  C   UNL     1      -1.393  11.724  23.003  0.00  0.00    +0.000 A 
ATOM     14  C   UNL     1      -2.700  12.153  22.729  0.00  0.00    +0.000 A 
ATOM     15  N   UNL     1      -3.727  12.213  23.648  0.00  0.00    +0.000 NA
ATOM     16  C   UNL     1      -4.799  12.719  23.092  0.00  0.00    +0.000 A 
ATOM     17  N   UNL     1      -5.920  12.885  23.855  0.00  0.00    +0.000 N 
ATOM     18  C   UNL     1      -7.101  13.523  23.720  0.00  0.00    +0.000 C 
ATOM     19  C   UNL     1      -7.468  14.424  22.576  0.00  0.00    +0.000 C 
ATOM     20  O   UNL     1      -7.917  13.392  24.644  0.00  0.00    +0.000 OA
ATOM     21  S   UNL     1      -4.684  13.032  21.427  0.00  0.00    +0.000 S 
ATOM     22  C   UNL     1      -3.022  12.559  21.435  0.00  0.00    +0.000 A 
ATOM     23  C   UNL     1      -2.066  12.544  20.394  0.00  0.00    +0.000 A 
ATOM     24  H   UNL     1      -5.821  12.454  24.765  0.00  0.00    +0.000 HD
ENDBRANCH   8  11
BRANCH   1  28
ATOM     25  C   UNL     1       4.556   5.134  17.194  0.00  0.00    +0.000 A 
ATOM     26  C   UNL     1       3.353   4.951  17.872  0.00  0.00    +0.000 A 
ATOM     27  C   UNL     1       2.555   6.047  18.210  0.00  0.00    +0.000 A 
ATOM     28  C   UNL     1       2.958   7.352  17.895  0.00  0.00    +0.000 A 
ATOM     29  C   UNL     1       4.175   7.532  17.218  0.00  0.00    +0.000 A 
ATOM     30  C   UNL     1       4.966   6.426  16.867  0.00  0.00    +0.000 A 
BRANCH  25  32
ATOM     31  C   UNL     1       5.716   3.799  15.618  0.00  0.00    +0.000 C 
ATOM     32  O   UNL     1       5.263   3.990  16.952  0.00  0.00    +0.000 OA
ENDBRANCH  25  32
ENDBRANCH   1  28
TORSDOF 3
ENDMDL
MODEL 5
REMARK VINA RESULT:      -7.7      1.127      1.244
REMARK  Name = 
REMARK  5 active torsions:
REMARK  status: ('A' for Active; 'I' for Inactive)
REMARK    1  A    between atoms: C_1  and  O_2
REMARK    2  A    between atoms: O_2  and  C_3
REMARK    3  A    between atoms: C_6  and  C_7
REMARK    4  A    between atoms: C_14  and  C_15
REMARK    5  A    between atoms: C_22  and  C_23
REMARK                            x       y       z     vdW  Elec       q    Type
REMARK                         _______ _______ _______ _____ _____    ______ ____
ROOT
ATOM      1  C   UNL     1       4.637   5.860  16.654  0.00  0.00    +0.000 C 
ATOM      2  O   UNL     1       4.614   7.083  16.770  0.00  0.00    +0.000 OA
ATOM      3  N   UNL     1       4.078   4.973  17.534  0.00  0.00    +0.000 N 
ATOM      4  C   UNL     1       3.324   5.303  18.650  0.00  0.00    +0.000 A 
ATOM      5  N   UNL     1       3.117   4.264  19.471  0.00  0.00    +0.000 NA
ATOM      6  C   UNL     1       2.438   4.520  20.599  0.00  0.00    +0.000 A 
ATOM      7  C   UNL     1       1.923   5.755  20.902  0.00  0.00    +0.000 A 
ATOM      8  C   UNL     1       2.116   6.756  19.965  0.00  0.00    +0.000 A 
ATOM      9  N   UNL     1       2.842   6.537  18.850  0.00  0.00    +0.000 NA
ATOM     10  H   UNL     1       4.281   3.988  17.500  0.00  0.00    +0.000 HD
ENDROOT
BRANCH   8  11
ATOM     11  C   UNL     1       1.502   8.100  20.111  0.00  0.00    +0.000 A 
ATOM     12  C   UNL     1       1.650   9.060  19.095  0.00  0.00    +0.000 A 
ATOM     13  C   UNL     1       1.084  10.336  19.188  0.00  0.00    +0.000 A 
ATOM     14  C   UNL     1       0.339  10.682  20.325  0.00  0.00    +0.000 A 
ATOM     15  N   UNL     1      -0.281  11.897  20.530  0.00  0.00    +0.000 NA
ATOM     16  C   UNL     1      -0.948  11.876  21.657  0.00  0.00    +0.000 A 
ATOM     17  N   UNL     1      -1.655  12.986  22.022  0.00  0.00    +0.000 N 
ATOM     18  C   UNL     1      -2.585  13.282  22.955  0.00  0.00    +0.000 C 
ATOM     19  C   UNL     1      -3.235  12.285  23.870  0.00  0.00    +0.000 C 
ATOM     20  O   UNL     1      -2.963  14.461  23.013  0.00  0.00    +0.000 OA
ATOM     21  S   UNL     1      -0.775  10.467  22.587  0.00  0.00    +0.000 S 
ATOM     22  C   UNL     1       0.192   9.747  21.349  0.00  0.00    +0.000 A 
ATOM     23  C   UNL     1       0.779   8.464  21.270  0.00  0.00    +0.000 A 
ATOM     24  H   UNL     1      -1.460  13.772  21.415  0.00  0.00    +0.000 HD
ENDBRANCH   8  11
BRANCH   1  28
ATOM     25  C   UNL     1       6.651   4.034  13.295  0.00  0.00    +0.000 A 
ATOM     26  C   UNL     1       5.326   3.731  13.605  0.00  0.00    +0.000 A 
ATOM     27  C   UNL     1       4.689   4.354  14.681  0.00  0.00    +0.000 A 
ATOM     28  C   UNL     1       5.373   5.277  15.484  0.00  0.00    +0.000 A 
ATOM     29  C   UNL     1       6.711   5.573  15.173  0.00  0.00    +0.000 A 
ATOM     30  C   UNL     1       7.342   4.956  14.081  0.00  0.00    +0.000 A 
BRANCH  25  32
ATOM     31  C   UNL     1       6.267   2.501  11.531  0.00  0.00    +0.000 C 
ATOM     32  O   UNL     1       7.173   3.334  12.244  0.00  0.00    +0.000 OA
ENDBRANCH  25  32
ENDBRANCH   1  28
TORSDOF 3
ENDMDL
MODEL 6
REMARK VINA RESULT:      -7.5      4.557      6.180
REMARK  Name = 
REMARK  5 active torsions:
REMARK  status: ('A' for Active; 'I' for Inactive)
REMARK    1  A    between atoms: C_1  and  O_2
REMARK    2  A    between atoms: O_2  and  C_3
REMARK    3  A    between atoms: C_6  and  C_7
REMARK    4  A    between atoms: C_14  and  C_15
REMARK    5  A    between atoms: C_22  and  C_23
REMARK                            x       y       z     vdW  Elec       q    Type
REMARK                         _______ _______ _______ _____ _____    ______ ____
ROOT
ATOM      1  C   UNL     1       1.944   6.236  20.266  0.00  0.00    +0.000 C 
ATOM      2  O   UNL     1       0.937   6.361  20.958  0.00  0.00    +0.000 OA
ATOM      3  N   UNL     1       2.421   7.174  19.391  0.00  0.00    +0.000 N 
ATOM      4  C   UNL     1       1.903   8.446  19.201  0.00  0.00    +0.000 A 
ATOM      5  N   UNL     1       2.395   9.058  18.114  0.00  0.00    +0.000 NA
ATOM      6  C   UNL     1       1.899  10.274  17.838  0.00  0.00    +0.000 A 
ATOM      7  C   UNL     1       0.978  10.907  18.632  0.00  0.00    +0.000 A 
ATOM      8  C   UNL     1       0.578  10.239  19.776  0.00  0.00    +0.000 A 
ATOM      9  N   UNL     1       1.020   8.993  20.046  0.00  0.00    +0.000 NA
ATOM     10  H   UNL     1       3.134   6.957  18.713  0.00  0.00    +0.000 HD
ENDROOT
BRANCH   8  11
ATOM     11  C   UNL     1      -0.315  10.865  20.783  0.00  0.00    +0.000 A 
ATOM     12  C   UNL     1      -0.370  10.360  22.093  0.00  0.00    +0.000 A 
ATOM     13  C   UNL     1      -1.191  10.923  23.075  0.00  0.00    +0.000 A 
ATOM     14  C   UNL     1      -1.991  12.030  22.757  0.00  0.00    +0.000 A 
ATOM     15  N   UNL     1      -2.830  12.684  23.636  0.00  0.00    +0.000 NA
ATOM     16  C   UNL     1      -3.383  13.715  23.047  0.00  0.00    +0.000 A 
ATOM     17  N   UNL     1      -4.229  14.509  23.768  0.00  0.00    +0.000 N 
ATOM     18  C   UNL     1      -4.811  15.714  23.598  0.00  0.00    +0.000 C 
ATOM     19  C   UNL     1      -4.535  16.650  22.457  0.00  0.00    +0.000 C 
ATOM     20  O   UNL     1      -5.590  16.089  24.486  0.00  0.00    +0.000 OA
ATOM     21  S   UNL     1      -3.035  13.890  21.394  0.00  0.00    +0.000 S 
ATOM     22  C   UNL     1      -1.960  12.538  21.459  0.00  0.00    +0.000 A 
ATOM     23  C   UNL     1      -1.147  11.960  20.457  0.00  0.00    +0.000 A 
ATOM     24  H   UNL     1      -4.439  14.107  24.673  0.00  0.00    +0.000 HD
ENDBRANCH   8  11
BRANCH   1  28
ATOM     25  C   UNL     1       4.173   2.535  20.321  0.00  0.00    +0.000 A 
ATOM     26  C   UNL     1       4.593   3.629  19.567  0.00  0.00    +0.000 A 
ATOM     27  C   UNL     1       3.868   4.824  19.586  0.00  0.00    +0.000 A 
ATOM     28  C   UNL     1       2.695   4.940  20.343  0.00  0.00    +0.000 A 
ATOM     29  C   UNL     1       2.271   3.832  21.095  0.00  0.00    +0.000 A 
ATOM     30  C   UNL     1       3.011   2.639  21.085  0.00  0.00    +0.000 A 
BRANCH  25  32
ATOM     31  C   UNL     1       5.540   0.920  21.384  0.00  0.00    +0.000 C 
ATOM     32  O   UNL     1       4.943   1.414  20.192  0.00  0.00    +0.000 OA
ENDBRANCH  25  32
ENDBRANCH   1  28
TORSDOF 3
ENDMDL
MODEL 7
REMARK VINA RESULT:      -7.4      1.694      2.369
REMARK  Name = 
REMARK  5 active torsions:
REMARK  status: ('A' for Active; 'I' for Inactive)
REMARK    1  A    between atoms: C_1  and  O_2
REMARK    2  A    between atoms: O_2  and  C_3
REMARK    3  A    between atoms: C_6  and  C_7
REMARK    4  A    between atoms: C_14  and  C_15
REMARK    5  A    between atoms: C_22  and  C_23
REMARK                            x       y       z     vdW  Elec       q    Type
REMARK                         _______ _______ _______ _____ _____    ______ ____
ROOT
ATOM      1  C   UNL     1       4.801   5.181  16.250  0.00  0.00    +0.000 C 
ATOM      2  O   UNL     1       4.818   6.392  16.456  0.00  0.00    +0.000 OA
ATOM      3  N   UNL     1       4.264   4.244  17.092  0.00  0.00    +0.000 N 
ATOM      4  C   UNL     1       3.580   4.508  18.269  0.00  0.00    +0.000 A 
ATOM      5  N   UNL     1       3.388   3.415  19.022  0.00  0.00    +0.000 NA
ATOM      6  C   UNL     1       2.777   3.603  20.202  0.00  0.00    +0.000 A 
ATOM      7  C   UNL     1       2.314   4.824  20.622  0.00  0.00    +0.000 A 
ATOM      8  C   UNL     1       2.485   5.887  19.752  0.00  0.00    +0.000 A 
ATOM      9  N   UNL     1       3.144   5.735  18.585  0.00  0.00    +0.000 NA
ATOM     10  H   UNL     1       4.438   3.260  16.975  0.00  0.00    +0.000 HD
ENDROOT
BRANCH   8  11
ATOM     11  C   UNL     1       1.918   7.231  20.029  0.00  0.00    +0.000 A 
ATOM     12  C   UNL     1       1.180   7.461  21.203  0.00  0.00    +0.000 A 
ATOM     13  C   UNL     1       0.634   8.712  21.507  0.00  0.00    +0.000 A 
ATOM     14  C   UNL     1       0.822   9.783  20.621  0.00  0.00    +0.000 A 
ATOM     15  N   UNL     1       0.349  11.065  20.812  0.00  0.00    +0.000 NA
ATOM     16  C   UNL     1       0.752  11.842  19.837  0.00  0.00    +0.000 A 
ATOM     17  N   UNL     1       0.406  13.163  19.864  0.00  0.00    +0.000 N 
ATOM     18  C   UNL     1       0.769  14.276  19.193  0.00  0.00    +0.000 C 
ATOM     19  C   UNL     1       1.883  14.351  18.189  0.00  0.00    +0.000 C 
ATOM     20  O   UNL     1       0.167  15.321  19.476  0.00  0.00    +0.000 OA
ATOM     21  S   UNL     1       1.602  11.070  18.587  0.00  0.00    +0.000 S 
ATOM     22  C   UNL     1       1.540   9.571  19.445  0.00  0.00    +0.000 A 
ATOM     23  C   UNL     1       2.077   8.304  19.123  0.00  0.00    +0.000 A 
ATOM     24  H   UNL     1      -0.262  13.361  20.599  0.00  0.00    +0.000 HD
ENDBRANCH   8  11
BRANCH   1  28
ATOM     25  C   UNL     1       6.794   3.853  12.654  0.00  0.00    +0.000 A 
ATOM     26  C   UNL     1       7.431   4.678  13.579  0.00  0.00    +0.000 A 
ATOM     27  C   UNL     1       6.773   5.074  14.747  0.00  0.00    +0.000 A 
ATOM     28  C   UNL     1       5.456   4.669  15.002  0.00  0.00    +0.000 A 
ATOM     29  C   UNL     1       4.816   3.844  14.062  0.00  0.00    +0.000 A 
ATOM     30  C   UNL     1       5.486   3.437  12.898  0.00  0.00    +0.000 A 
BRANCH  25  32
ATOM     31  C   UNL     1       7.456   2.226  11.066  0.00  0.00    +0.000 C 
ATOM     32  O   UNL     1       7.526   3.566  11.537  0.00  0.00    +0.000 OA
ENDBRANCH  25  32
ENDBRANCH   1  28
TORSDOF 3
ENDMDL
MODEL 8
REMARK VINA RESULT:      -7.4      3.528     10.581
REMARK  Name = 
REMARK  5 active torsions:
REMARK  status: ('A' for Active; 'I' for Inactive)
REMARK    1  A    between atoms: C_1  and  O_2
REMARK    2  A    between atoms: O_2  and  C_3
REMARK    3  A    between atoms: C_6  and  C_7
REMARK    4  A    between atoms: C_14  and  C_15
REMARK    5  A    between atoms: C_22  and  C_23
REMARK                            x       y       z     vdW  Elec       q    Type
REMARK                         _______ _______ _______ _____ _____    ______ ____
ROOT
ATOM      1  C   UNL     1       1.316  12.438  19.732  0.00  0.00    +0.000 C 
ATOM      2  O   UNL     1       1.658  11.715  18.800  0.00  0.00    +0.000 OA
ATOM      3  N   UNL     1       0.755  12.003  20.903  0.00  0.00    +0.000 N 
ATOM      4  C   UNL     1       0.559  10.680  21.268  0.00  0.00    +0.000 A 
ATOM      5  N   UNL     1      -0.234  10.542  22.340  0.00  0.00    +0.000 NA
ATOM      6  C   UNL     1      -0.510   9.285  22.720  0.00  0.00    +0.000 A 
ATOM      7  C   UNL     1       0.015   8.180  22.100  0.00  0.00    +0.000 A 
ATOM      8  C   UNL     1       0.885   8.412  21.048  0.00  0.00    +0.000 A 
ATOM      9  N   UNL     1       1.135   9.664  20.613  0.00  0.00    +0.000 NA
ATOM     10  H   UNL     1       0.320  12.637  21.554  0.00  0.00    +0.000 HD
ENDROOT
BRANCH   8  11
ATOM     11  C   UNL     1       1.620   7.311  20.376  0.00  0.00    +0.000 A 
ATOM     12  C   UNL     1       1.423   5.978  20.777  0.00  0.00    +0.000 A 
ATOM     13  C   UNL     1       2.089   4.910  20.168  0.00  0.00    +0.000 A 
ATOM     14  C   UNL     1       2.985   5.161  19.119  0.00  0.00    +0.000 A 
ATOM     15  N   UNL     1       3.690   4.198  18.428  0.00  0.00    +0.000 NA
ATOM     16  C   UNL     1       4.386   4.753  17.467  0.00  0.00    +0.000 A 
ATOM     17  N   UNL     1       5.132   3.953  16.649  0.00  0.00    +0.000 N 
ATOM     18  C   UNL     1       5.794   4.104  15.483  0.00  0.00    +0.000 C 
ATOM     19  C   UNL     1       5.766   5.340  14.630  0.00  0.00    +0.000 C 
ATOM     20  O   UNL     1       6.425   3.122  15.067  0.00  0.00    +0.000 OA
ATOM     21  S   UNL     1       4.338   6.449  17.412  0.00  0.00    +0.000 S 
ATOM     22  C   UNL     1       3.203   6.478  18.715  0.00  0.00    +0.000 A 
ATOM     23  C   UNL     1       2.549   7.562  19.341  0.00  0.00    +0.000 A 
ATOM     24  H   UNL     1       5.163   2.998  16.985  0.00  0.00    +0.000 HD
ENDBRANCH   8  11
BRANCH   1  28
ATOM     25  C   UNL     1       1.911  16.703  19.387  0.00  0.00    +0.000 A 
ATOM     26  C   UNL     1       2.946  15.850  19.762  0.00  0.00    +0.000 A 
ATOM     27  C   UNL     1       2.735  14.471  19.842  0.00  0.00    +0.000 A 
ATOM     28  C   UNL     1       1.476  13.920  19.570  0.00  0.00    +0.000 A 
ATOM     29  C   UNL     1       0.433  14.785  19.201  0.00  0.00    +0.000 A 
ATOM     30  C   UNL     1       0.654  16.169  19.106  0.00  0.00    +0.000 A 
BRANCH  25  32
ATOM     31  C   UNL     1       2.462  18.629  20.650  0.00  0.00    +0.000 C 
ATOM     32  O   UNL     1       2.230  18.032  19.380  0.00  0.00    +0.000 OA
ENDBRANCH  25  32
ENDBRANCH   1  28
TORSDOF 3
ENDMDL
MODEL 9
REMARK VINA RESULT:      -7.4      4.156      6.746
REMARK  Name = 
REMARK  5 active torsions:
REMARK  status: ('A' for Active; 'I' for Inactive)
REMARK    1  A    between atoms: C_1  and  O_2
REMARK    2  A    between atoms: O_2  and  C_3
REMARK    3  A    between atoms: C_6  and  C_7
REMARK    4  A    between atoms: C_14  and  C_15
REMARK    5  A    between atoms: C_22  and  C_23
REMARK                            x       y       z     vdW  Elec       q    Type
REMARK                         _______ _______ _______ _____ _____    ______ ____
ROOT
ATOM      1  C   UNL     1       1.726   8.995  18.909  0.00  0.00    +0.000 C 
ATOM      2  O   UNL     1       0.639   8.881  19.469  0.00  0.00    +0.000 OA
ATOM      3  N   UNL     1       2.295  10.180  18.524  0.00  0.00    +0.000 N 
ATOM      4  C   UNL     1       1.785  11.444  18.774  0.00  0.00    +0.000 A 
ATOM      5  N   UNL     1       2.398  12.408  18.073  0.00  0.00    +0.000 NA
ATOM      6  C   UNL     1       1.922  13.653  18.226  0.00  0.00    +0.000 A 
ATOM      7  C   UNL     1       0.900  13.966  19.084  0.00  0.00    +0.000 A 
ATOM      8  C   UNL     1       0.371  12.925  19.828  0.00  0.00    +0.000 A 
ATOM      9  N   UNL     1       0.795  11.657  19.652  0.00  0.00    +0.000 NA
ATOM     10  H   UNL     1       3.089  10.214  17.907  0.00  0.00    +0.000 HD
ENDROOT
BRANCH   8  11
ATOM     11  C   UNL     1      -0.650  13.149  20.882  0.00  0.00    +0.000 A 
ATOM     12  C   UNL     1      -0.291  13.754  22.099  0.00  0.00    +0.000 A 
ATOM     13  C   UNL     1      -1.221  13.989  23.117  0.00  0.00    +0.000 A 
ATOM     14  C   UNL     1      -2.560  13.618  22.931  0.00  0.00    +0.000 A 
ATOM     15  N   UNL     1      -3.573  13.809  23.847  0.00  0.00    +0.000 NA
ATOM     16  C   UNL     1      -4.716  13.414  23.343  0.00  0.00    +0.000 A 
ATOM     17  N   UNL     1      -5.848  13.550  24.095  0.00  0.00    +0.000 N 
ATOM     18  C   UNL     1      -7.176  13.456  23.876  0.00  0.00    +0.000 C 
ATOM     19  C   UNL     1      -7.816  13.262  22.531  0.00  0.00    +0.000 C 
ATOM     20  O   UNL     1      -7.917  13.598  24.859  0.00  0.00    +0.000 OA
ATOM     21  S   UNL     1      -4.629  12.685  21.812  0.00  0.00    +0.000 S 
ATOM     22  C   UNL     1      -2.933  13.005  21.735  0.00  0.00    +0.000 A 
ATOM     23  C   UNL     1      -1.994  12.746  20.712  0.00  0.00    +0.000 A 
ATOM     24  H   UNL     1      -5.636  13.828  25.045  0.00  0.00    +0.000 HD
ENDBRANCH   8  11
BRANCH   1  28
ATOM     25  C   UNL     1       3.886   5.339  18.114  0.00  0.00    +0.000 A 
ATOM     26  C   UNL     1       2.950   5.424  19.142  0.00  0.00    +0.000 A 
ATOM     27  C   UNL     1       2.246   6.611  19.363  0.00  0.00    +0.000 A 
ATOM     28  C   UNL     1       2.482   7.743  18.573  0.00  0.00    +0.000 A 
ATOM     29  C   UNL     1       3.433   7.655  17.543  0.00  0.00    +0.000 A 
ATOM     30  C   UNL     1       4.126   6.456  17.315  0.00  0.00    +0.000 A 
BRANCH  25  32
ATOM     31  C   UNL     1       4.507   3.318  19.182  0.00  0.00    +0.000 C 
ATOM     32  O   UNL     1       4.535   4.140  18.021  0.00  0.00    +0.000 OA
ENDBRANCH  25  32
ENDBRANCH   1  28
TORSDOF 3
ENDMDL
