MODEL 1
REMARK VINA RESULT:      -7.9      0.000      0.000
REMARK  Name = 
REMARK  3 active torsions:
REMARK  status: ('A' for Active; 'I' for Inactive)
REMARK    1  A    between atoms: C_2  and  O_14
REMARK    2  A    between atoms: C_9  and  O_10
REMARK    3  A    between atoms: O_14  and  C_15
REMARK                            x       y       z     vdW  Elec       q    Type
REMARK                         _______ _______ _______ _____ _____    ______ ____
ROOT
ATOM      1  O   UNL     1       7.772   6.984  16.490  0.00  0.00    +0.000 OA
ATOM      2  C   UNL     1       6.988   6.095  16.812  0.00  0.00    +0.000 C 
ATOM      3  N   UNL     1       6.085   6.290  17.828  0.00  0.00    +0.000 N 
ATOM      4  C   UNL     1       5.059   5.427  18.089  0.00  0.00    +0.000 A 
ATOM      5  N   UNL     1       4.873   4.236  17.591  0.00  0.00    +0.000 NA
ATOM      6  C   UNL     1       3.675   3.723  18.033  0.00  0.00    +0.000 A 
ATOM      7  C   UNL     1       3.150   2.465  17.681  0.00  0.00    +0.000 A 
ATOM      8  C   UNL     1       1.915   2.062  18.194  0.00  0.00    +0.000 A 
ATOM      9  C   UNL     1       1.211   2.914  19.034  0.00  0.00    +0.000 A 
ATOM     10  C   UNL     1       1.701   4.169  19.399  0.00  0.00    +0.000 A 
ATOM     11  C   UNL     1       2.950   4.554  18.891  0.00  0.00    +0.000 A 
ATOM     12  S   UNL     1       3.859   6.004  19.150  0.00  0.00    +0.000 S 
ATOM     13  H   UNL     1       6.089   7.193  18.275  0.00  0.00    +0.000 HD
ENDROOT
BRANCH   9  14
ATOM     14  O   UNL     1      -0.001   2.542  19.544  0.00  0.00    +0.000 OA
ATOM     15  H   UNL     1      -0.121   2.969  20.408  0.00  0.00    +0.000 HD
ENDBRANCH   9  14
BRANCH   2  16
ATOM     16  O   UNL     1       6.908   4.849  16.203  0.00  0.00    +0.000 OA
BRANCH  16  17
ATOM     17  C   UNL     1       6.796   4.679  14.810  0.00  0.00    +0.000 A 
ATOM     18  C   UNL     1       7.754   5.332  14.035  0.00  0.00    +0.000 A 
ATOM     19  C   UNL     1       7.800   5.099  12.663  0.00  0.00    +0.000 A 
ATOM     20  C   UNL     1       6.902   4.205  12.079  0.00  0.00    +0.000 A 
ATOM     21  C   UNL     1       5.955   3.544  12.865  0.00  0.00    +0.000 A 
ATOM     22  C   UNL     1       5.901   3.776  14.240  0.00  0.00    +0.000 A 
ENDBRANCH  16  17
ENDBRANCH   2  16
TORSDOF 3
ENDMDL
MODEL 2
REMARK VINA RESULT:      -7.8      0.111      1.089
REMARK  Name = 
REMARK  3 active torsions:
REMARK  status: ('A' for Active; 'I' for Inactive)
REMARK    1  A    between atoms: C_2  and  O_14
REMARK    2  A    between atoms: C_9  and  O_10
REMARK    3  A    between atoms: O_14  and  C_15
REMARK                            x       y       z     vdW  Elec       q    Type
REMARK                         _______ _______ _______ _____ _____    ______ ____
ROOT
ATOM      1  O   UNL     1       7.705   7.018  16.512  0.00  0.00    +0.000 OA
ATOM      2  C   UNL     1       6.935   6.124  16.853  0.00  0.00    +0.000 C 
ATOM      3  N   UNL     1       5.998   6.340  17.833  0.00  0.00    +0.000 N 
ATOM      4  C   UNL     1       4.987   5.463  18.104  0.00  0.00    +0.000 A 
ATOM      5  N   UNL     1       4.846   4.246  17.657  0.00  0.00    +0.000 NA
ATOM      6  C   UNL     1       3.649   3.722  18.088  0.00  0.00    +0.000 A 
ATOM      7  C   UNL     1       3.166   2.436  17.779  0.00  0.00    +0.000 A 
ATOM      8  C   UNL     1       1.927   2.024  18.275  0.00  0.00    +0.000 A 
ATOM      9  C   UNL     1       1.178   2.893  19.056  0.00  0.00    +0.000 A 
ATOM     10  C   UNL     1       1.625   4.176  19.377  0.00  0.00    +0.000 A 
ATOM     11  C   UNL     1       2.879   4.571  18.886  0.00  0.00    +0.000 A 
ATOM     12  S   UNL     1       3.743   6.054  19.105  0.00  0.00    +0.000 S 
ATOM     13  H   UNL     1       5.966   7.262  18.239  0.00  0.00    +0.000 HD
ENDROOT
BRANCH   9  14
ATOM     14  O   UNL     1      -0.038   2.513  19.548  0.00  0.00    +0.000 OA
ATOM     15  H   UNL     1      -0.342   3.181  20.184  0.00  0.00    +0.000 HD
ENDBRANCH   9  14
BRANCH   2  16
ATOM     16  O   UNL     1       6.904   4.850  16.299  0.00  0.00    +0.000 OA
BRANCH  16  17
ATOM     17  C   UNL     1       6.985   4.611  14.914  0.00  0.00    +0.000 A 
ATOM     18  C   UNL     1       6.030   3.741  14.387  0.00  0.00    +0.000 A 
ATOM     19  C   UNL     1       5.951   3.565  13.008  0.00  0.00    +0.000 A 
ATOM     20  C   UNL     1       6.812   4.270  12.167  0.00  0.00    +0.000 A 
ATOM     21  C   UNL     1       7.756   5.150  12.702  0.00  0.00    +0.000 A 
ATOM     22  C   UNL     1       7.842   5.329  14.083  0.00  0.00    +0.000 A 
ENDBRANCH  16  17
ENDBRANCH   2  16
TORSDOF 3
ENDMDL
MODEL 3
REMARK VINA RESULT:      -7.7      2.411      3.862
REMARK  Name = 
REMARK  3 active torsions:
REMARK  status: ('A' for Active; 'I' for Inactive)
REMARK    1  A    between atoms: C_2  and  O_14
REMARK    2  A    between atoms: C_9  and  O_10
REMARK    3  A    between atoms: O_14  and  C_15
REMARK                            x       y       z     vdW  Elec       q    Type
REMARK                         _______ _______ _______ _____ _____    ______ ____
ROOT
ATOM      1  O   UNL     1       6.500   4.030  14.891  0.00  0.00    +0.000 OA
ATOM      2  C   UNL     1       5.702   4.216  15.806  0.00  0.00    +0.000 C 
ATOM      3  N   UNL     1       4.897   3.198  16.254  0.00  0.00    +0.000 N 
ATOM      4  C   UNL     1       4.150   3.285  17.394  0.00  0.00    +0.000 A 
ATOM      5  N   UNL     1       3.916   4.347  18.115  0.00  0.00    +0.000 NA
ATOM      6  C   UNL     1       3.195   4.004  19.236  0.00  0.00    +0.000 A 
ATOM      7  C   UNL     1       2.782   4.900  20.241  0.00  0.00    +0.000 A 
ATOM      8  C   UNL     1       2.058   4.424  21.337  0.00  0.00    +0.000 A 
ATOM      9  C   UNL     1       1.766   3.070  21.429  0.00  0.00    +0.000 A 
ATOM     10  C   UNL     1       2.164   2.155  20.453  0.00  0.00    +0.000 A 
ATOM     11  C   UNL     1       2.876   2.649  19.350  0.00  0.00    +0.000 A 
ATOM     12  S   UNL     1       3.494   1.820  17.962  0.00  0.00    +0.000 S 
ATOM     13  H   UNL     1       5.008   2.300  15.810  0.00  0.00    +0.000 HD
ENDROOT
BRANCH   9  14
ATOM     14  O   UNL     1       1.062   2.582  22.494  0.00  0.00    +0.000 OA
ATOM     15  H   UNL     1       0.439   1.909  22.176  0.00  0.00    +0.000 HD
ENDBRANCH   9  14
BRANCH   2  16
ATOM     16  O   UNL     1       5.540   5.419  16.484  0.00  0.00    +0.000 OA
BRANCH  16  17
ATOM     17  C   UNL     1       6.574   6.040  17.207  0.00  0.00    +0.000 A 
ATOM     18  C   UNL     1       6.876   7.351  16.839  0.00  0.00    +0.000 A 
ATOM     19  C   UNL     1       7.785   8.084  17.598  0.00  0.00    +0.000 A 
ATOM     20  C   UNL     1       8.371   7.510  18.726  0.00  0.00    +0.000 A 
ATOM     21  C   UNL     1       8.051   6.201  19.097  0.00  0.00    +0.000 A 
ATOM     22  C   UNL     1       7.144   5.460  18.339  0.00  0.00    +0.000 A 
ENDBRANCH  16  17
ENDBRANCH   2  16
TORSDOF 3
ENDMDL
MODEL 4
REMARK VINA RESULT:      -7.7      2.420      3.921
REMARK  Name = 
REMARK  3 active torsions:
REMARK  status: ('A' for Active; 'I' for Inactive)
REMARK    1  A    between atoms: C_2  and  O_14
REMARK    2  A    between atoms: C_9  and  O_10
REMARK    3  A    between atoms: O_14  and  C_15
REMARK                            x       y       z     vdW  Elec       q    Type
REMARK                         _______ _______ _______ _____ _____    ______ ____
ROOT
ATOM      1  O   UNL     1       6.760   4.152  15.163  0.00  0.00    +0.000 OA
ATOM      2  C   UNL     1       5.865   4.296  15.991  0.00  0.00    +0.000 C 
ATOM      3  N   UNL     1       5.135   3.220  16.430  0.00  0.00    +0.000 N 
ATOM      4  C   UNL     1       4.279   3.284  17.493  0.00  0.00    +0.000 A 
ATOM      5  N   UNL     1       3.867   4.350  18.122  0.00  0.00    +0.000 NA
ATOM      6  C   UNL     1       3.085   3.989  19.195  0.00  0.00    +0.000 A 
ATOM      7  C   UNL     1       2.487   4.885  20.103  0.00  0.00    +0.000 A 
ATOM      8  C   UNL     1       1.718   4.390  21.159  0.00  0.00    +0.000 A 
ATOM      9  C   UNL     1       1.564   3.019  21.311  0.00  0.00    +0.000 A 
ATOM     10  C   UNL     1       2.147   2.104  20.433  0.00  0.00    +0.000 A 
ATOM     11  C   UNL     1       2.903   2.615  19.366  0.00  0.00    +0.000 A 
ATOM     12  S   UNL     1       3.732   1.787  18.093  0.00  0.00    +0.000 S 
ATOM     13  H   UNL     1       5.381   2.317  16.055  0.00  0.00    +0.000 HD
ENDROOT
BRANCH   9  14
ATOM     14  O   UNL     1       0.820   2.513  22.339  0.00  0.00    +0.000 OA
ATOM     15  H   UNL     1       0.481   3.249  22.873  0.00  0.00    +0.000 HD
ENDBRANCH   9  14
BRANCH   2  16
ATOM     16  O   UNL     1       5.513   5.507  16.575  0.00  0.00    +0.000 OA
BRANCH  16  17
ATOM     17  C   UNL     1       6.409   6.288  17.328  0.00  0.00    +0.000 A 
ATOM     18  C   UNL     1       7.090   5.626  18.349  0.00  0.00    +0.000 A 
ATOM     19  C   UNL     1       8.097   6.289  19.044  0.00  0.00    +0.000 A 
ATOM     20  C   UNL     1       8.429   7.601  18.704  0.00  0.00    +0.000 A 
ATOM     21  C   UNL     1       7.752   8.253  17.670  0.00  0.00    +0.000 A 
ATOM     22  C   UNL     1       6.740   7.595  16.971  0.00  0.00    +0.000 A 
ENDBRANCH  16  17
ENDBRANCH   2  16
TORSDOF 3
ENDMDL
MODEL 5
REMARK VINA RESULT:      -7.4      4.672      7.508
REMARK  Name = 
REMARK  3 active torsions:
REMARK  status: ('A' for Active; 'I' for Inactive)
REMARK    1  A    between atoms: C_2  and  O_14
REMARK    2  A    between atoms: C_9  and  O_10
REMARK    3  A    between atoms: O_14  and  C_15
REMARK                            x       y       z     vdW  Elec       q    Type
REMARK                         _______ _______ _______ _____ _____    ______ ____
ROOT
ATOM      1  O   UNL     1       1.938  10.384  18.030  0.00  0.00    +0.000 OA
ATOM      2  C   UNL     1       1.956   9.198  18.346  0.00  0.00    +0.000 C 
ATOM      3  N   UNL     1       2.857   8.333  17.776  0.00  0.00    +0.000 N 
ATOM      4  C   UNL     1       3.065   7.063  18.236  0.00  0.00    +0.000 A 
ATOM      5  N   UNL     1       2.355   6.406  19.111  0.00  0.00    +0.000 NA
ATOM      6  C   UNL     1       2.943   5.190  19.374  0.00  0.00    +0.000 A 
ATOM      7  C   UNL     1       2.453   4.231  20.282  0.00  0.00    +0.000 A 
ATOM      8  C   UNL     1       3.149   3.033  20.465  0.00  0.00    +0.000 A 
ATOM      9  C   UNL     1       4.323   2.808  19.761  0.00  0.00    +0.000 A 
ATOM     10  C   UNL     1       4.838   3.739  18.857  0.00  0.00    +0.000 A 
ATOM     11  C   UNL     1       4.121   4.931  18.670  0.00  0.00    +0.000 A 
ATOM     12  S   UNL     1       4.445   6.273  17.627  0.00  0.00    +0.000 S 
ATOM     13  H   UNL     1       3.504   8.722  17.108  0.00  0.00    +0.000 HD
ENDROOT
BRANCH   9  14
ATOM     14  O   UNL     1       5.022   1.646  19.927  0.00  0.00    +0.000 OA
ATOM     15  H   UNL     1       5.742   1.801  20.560  0.00  0.00    +0.000 HD
ENDBRANCH   9  14
BRANCH   2  16
ATOM     16  O   UNL     1       1.120   8.616  19.292  0.00  0.00    +0.000 OA
BRANCH  16  17
ATOM     17  C   UNL     1       0.709   9.276  20.465  0.00  0.00    +0.000 A 
ATOM     18  C   UNL     1      -0.211  10.311  20.294  0.00  0.00    +0.000 A 
ATOM     19  C   UNL     1      -0.776  10.917  21.413  0.00  0.00    +0.000 A 
ATOM     20  C   UNL     1      -0.433  10.475  22.691  0.00  0.00    +0.000 A 
ATOM     21  C   UNL     1       0.478   9.428  22.853  0.00  0.00    +0.000 A 
ATOM     22  C   UNL     1       1.051   8.818  21.736  0.00  0.00    +0.000 A 
ENDBRANCH  16  17
ENDBRANCH   2  16
TORSDOF 3
ENDMDL
MODEL 6
REMARK VINA RESULT:      -7.4      1.699      2.036
REMARK  Name = 
REMARK  3 active torsions:
REMARK  status: ('A' for Active; 'I' for Inactive)
REMARK    1  A    between atoms: C_2  and  O_14
REMARK    2  A    between atoms: C_9  and  O_10
REMARK    3  A    between atoms: O_14  and  C_15
REMARK                            x       y       z     vdW  Elec       q    Type
REMARK                         _______ _______ _______ _____ _____    ______ ____
ROOT
ATOM      1  O   UNL     1       5.058   7.403  14.986  0.00  0.00    +0.000 OA
ATOM      2  C   UNL     1       4.961   6.573  15.886  0.00  0.00    +0.000 C 
ATOM      3  N   UNL     1       4.313   6.880  17.057  0.00  0.00    +0.000 N 
ATOM      4  C   UNL     1       3.992   5.945  17.999  0.00  0.00    +0.000 A 
ATOM      5  N   UNL     1       4.391   4.704  18.058  0.00  0.00    +0.000 NA
ATOM      6  C   UNL     1       3.774   4.062  19.108  0.00  0.00    +0.000 A 
ATOM      7  C   UNL     1       3.960   2.709  19.455  0.00  0.00    +0.000 A 
ATOM      8  C   UNL     1       3.267   2.173  20.543  0.00  0.00    +0.000 A 
ATOM      9  C   UNL     1       2.392   2.976  21.261  0.00  0.00    +0.000 A 
ATOM     10  C   UNL     1       2.181   4.319  20.941  0.00  0.00    +0.000 A 
ATOM     11  C   UNL     1       2.896   4.849  19.856  0.00  0.00    +0.000 A 
ATOM     12  S   UNL     1       2.904   6.452  19.205  0.00  0.00    +0.000 S 
ATOM     13  H   UNL     1       3.913   7.802  17.129  0.00  0.00    +0.000 HD
ENDROOT
BRANCH   9  14
ATOM     14  O   UNL     1       1.700   2.472  22.326  0.00  0.00    +0.000 OA
ATOM     15  H   UNL     1       2.328   2.055  22.939  0.00  0.00    +0.000 HD
ENDBRANCH   9  14
BRANCH   2  16
ATOM     16  O   UNL     1       5.454   5.275  15.825  0.00  0.00    +0.000 OA
BRANCH  16  17
ATOM     17  C   UNL     1       6.013   4.718  14.660  0.00  0.00    +0.000 A 
ATOM     18  C   UNL     1       5.182   3.873  13.926  0.00  0.00    +0.000 A 
ATOM     19  C   UNL     1       5.608   3.398  12.688  0.00  0.00    +0.000 A 
ATOM     20  C   UNL     1       6.851   3.782  12.187  0.00  0.00    +0.000 A 
ATOM     21  C   UNL     1       7.672   4.642  12.922  0.00  0.00    +0.000 A 
ATOM     22  C   UNL     1       7.252   5.119  14.164  0.00  0.00    +0.000 A 
ENDBRANCH  16  17
ENDBRANCH   2  16
TORSDOF 3
ENDMDL
MODEL 7
REMARK VINA RESULT:      -7.3      4.753      7.162
REMARK  Name = 
REMARK  3 active torsions:
REMARK  status: ('A' for Active; 'I' for Inactive)
REMARK    1  A    between atoms: C_2  and  O_14
REMARK    2  A    between atoms: C_9  and  O_10
REMARK    3  A    between atoms: O_14  and  C_15
REMARK                            x       y       z     vdW  Elec       q    Type
REMARK                         _______ _______ _______ _____ _____    ______ ____
ROOT
ATOM      1  O   UNL     1       3.875   5.696  17.175  0.00  0.00    +0.000 OA
ATOM      2  C   UNL     1       3.383   6.354  18.088  0.00  0.00    +0.000 C 
ATOM      3  N   UNL     1       2.888   7.614  17.858  0.00  0.00    +0.000 N 
ATOM      4  C   UNL     1       2.147   8.302  18.775  0.00  0.00    +0.000 A 
ATOM      5  N   UNL     1       1.952   8.002  20.030  0.00  0.00    +0.000 NA
ATOM      6  C   UNL     1       1.071   8.896  20.595  0.00  0.00    +0.000 A 
ATOM      7  C   UNL     1       0.623   8.861  21.930  0.00  0.00    +0.000 A 
ATOM      8  C   UNL     1      -0.281   9.825  22.382  0.00  0.00    +0.000 A 
ATOM      9  C   UNL     1      -0.740  10.799  21.505  0.00  0.00    +0.000 A 
ATOM     10  C   UNL     1      -0.320  10.859  20.175  0.00  0.00    +0.000 A 
ATOM     11  C   UNL     1       0.601   9.894  19.739  0.00  0.00    +0.000 A 
ATOM     12  S   UNL     1       1.345   9.686  18.190  0.00  0.00    +0.000 S 
ATOM     13  H   UNL     1       2.935   7.957  16.911  0.00  0.00    +0.000 HD
ENDROOT
BRANCH   9  14
ATOM     14  O   UNL     1      -1.628  11.749  21.924  0.00  0.00    +0.000 OA
ATOM     15  H   UNL     1      -1.206  12.621  21.860  0.00  0.00    +0.000 HD
ENDBRANCH   9  14
BRANCH   2  16
ATOM     16  O   UNL     1       3.252   5.915  19.400  0.00  0.00    +0.000 OA
BRANCH  16  17
ATOM     17  C   UNL     1       2.574   4.733  19.753  0.00  0.00    +0.000 A 
ATOM     18  C   UNL     1       2.676   4.344  21.088  0.00  0.00    +0.000 A 
ATOM     19  C   UNL     1       1.919   3.271  21.549  0.00  0.00    +0.000 A 
ATOM     20  C   UNL     1       1.055   2.605  20.679  0.00  0.00    +0.000 A 
ATOM     21  C   UNL     1       0.947   3.011  19.347  0.00  0.00    +0.000 A 
ATOM     22  C   UNL     1       1.705   4.084  18.878  0.00  0.00    +0.000 A 
ENDBRANCH  16  17
ENDBRANCH   2  16
TORSDOF 3
ENDMDL
MODEL 8
REMARK VINA RESULT:      -7.3      1.938      2.631
REMARK  Name = 
REMARK  3 active torsions:
REMARK  status: ('A' for Active; 'I' for Inactive)
REMARK    1  A    between atoms: C_2  and  O_14
REMARK    2  A    between atoms: C_9  and  O_10
REMARK    3  A    between atoms: O_14  and  C_15
REMARK                            x       y       z     vdW  Elec       q    Type
REMARK                         _______ _______ _______ _____ _____    ______ ____
ROOT
ATOM      1  O   UNL     1       8.043   5.590  13.322  0.00  0.00    +0.000 OA
ATOM      2  C   UNL     1       7.386   5.075  14.222  0.00  0.00    +0.000 C 
ATOM      3  N   UNL     1       7.269   5.689  15.445  0.00  0.00    +0.000 N 
ATOM      4  C   UNL     1       6.390   5.276  16.405  0.00  0.00    +0.000 A 
ATOM      5  N   UNL     1       5.688   4.176  16.423  0.00  0.00    +0.000 NA
ATOM      6  C   UNL     1       4.853   4.170  17.517  0.00  0.00    +0.000 A 
ATOM      7  C   UNL     1       3.944   3.144  17.840  0.00  0.00    +0.000 A 
ATOM      8  C   UNL     1       3.144   3.261  18.979  0.00  0.00    +0.000 A 
ATOM      9  C   UNL     1       3.243   4.395  19.773  0.00  0.00    +0.000 A 
ATOM     10  C   UNL     1       4.130   5.433  19.479  0.00  0.00    +0.000 A 
ATOM     11  C   UNL     1       4.940   5.295  18.341  0.00  0.00    +0.000 A 
ATOM     12  S   UNL     1       6.149   6.354  17.701  0.00  0.00    +0.000 S 
ATOM     13  H   UNL     1       7.730   6.579  15.555  0.00  0.00    +0.000 HD
ENDROOT
BRANCH   9  14
ATOM     14  O   UNL     1       2.468   4.533  20.889  0.00  0.00    +0.000 OA
ATOM     15  H   UNL     1       2.055   3.678  21.091  0.00  0.00    +0.000 HD
ENDBRANCH   9  14
BRANCH   2  16
ATOM     16  O   UNL     1       6.695   3.874  14.113  0.00  0.00    +0.000 OA
BRANCH  16  17
ATOM     17  C   UNL     1       6.026   3.476  12.941  0.00  0.00    +0.000 A 
ATOM     18  C   UNL     1       6.611   2.429  12.228  0.00  0.00    +0.000 A 
ATOM     19  C   UNL     1       5.938   1.880  11.140  0.00  0.00    +0.000 A 
ATOM     20  C   UNL     1       4.681   2.368  10.782  0.00  0.00    +0.000 A 
ATOM     21  C   UNL     1       4.095   3.407  11.510  0.00  0.00    +0.000 A 
ATOM     22  C   UNL     1       4.766   3.963  12.600  0.00  0.00    +0.000 A 
ENDBRANCH  16  17
ENDBRANCH   2  16
TORSDOF 3
ENDMDL
MODEL 9
REMARK VINA RESULT:      -7.3      1.471      2.025
REMARK  Name = 
REMARK  3 active torsions:
REMARK  status: ('A' for Active; 'I' for Inactive)
REMARK    1  A    between atoms: C_2  and  O_14
REMARK    2  A    between atoms: C_9  and  O_10
REMARK    3  A    between atoms: O_14  and  C_15
REMARK                            x       y       z     vdW  Elec       q    Type
REMARK                         _______ _______ _______ _____ _____    ______ ____
ROOT
ATOM      1  O   UNL     1       7.800   5.618  14.840  0.00  0.00    +0.000 OA
ATOM      2  C   UNL     1       6.786   5.108  15.308  0.00  0.00    +0.000 C 
ATOM      3  N   UNL     1       6.688   4.846  16.653  0.00  0.00    +0.000 N 
ATOM      4  C   UNL     1       5.519   4.480  17.257  0.00  0.00    +0.000 A 
ATOM      5  N   UNL     1       4.399   4.136  16.684  0.00  0.00    +0.000 NA
ATOM      6  C   UNL     1       3.429   3.926  17.638  0.00  0.00    +0.000 A 
ATOM      7  C   UNL     1       2.095   3.559  17.373  0.00  0.00    +0.000 A 
ATOM      8  C   UNL     1       1.202   3.383  18.433  0.00  0.00    +0.000 A 
ATOM      9  C   UNL     1       1.636   3.587  19.735  0.00  0.00    +0.000 A 
ATOM     10  C   UNL     1       2.949   3.956  20.032  0.00  0.00    +0.000 A 
ATOM     11  C   UNL     1       3.840   4.113  18.959  0.00  0.00    +0.000 A 
ATOM     12  S   UNL     1       5.519   4.531  18.959  0.00  0.00    +0.000 S 
ATOM     13  H   UNL     1       7.474   5.106  17.227  0.00  0.00    +0.000 HD
ENDROOT
BRANCH   9  14
ATOM     14  O   UNL     1       0.779   3.424  20.787  0.00  0.00    +0.000 OA
ATOM     15  H   UNL     1       0.895   2.532  21.151  0.00  0.00    +0.000 HD
ENDBRANCH   9  14
BRANCH   2  16
ATOM     16  O   UNL     1       5.656   4.770  14.572  0.00  0.00    +0.000 OA
BRANCH  16  17
ATOM     17  C   UNL     1       5.695   3.927  13.446  0.00  0.00    +0.000 A 
ATOM     18  C   UNL     1       4.479   3.714  12.799  0.00  0.00    +0.000 A 
ATOM     19  C   UNL     1       4.456   3.013  11.596  0.00  0.00    +0.000 A 
ATOM     20  C   UNL     1       5.647   2.545  11.042  0.00  0.00    +0.000 A 
ATOM     21  C   UNL     1       6.864   2.776  11.689  0.00  0.00    +0.000 A 
ATOM     22  C   UNL     1       6.893   3.475  12.896  0.00  0.00    +0.000 A 
ENDBRANCH  16  17
ENDBRANCH   2  16
TORSDOF 3
ENDMDL
