MODEL 1
REMARK VINA RESULT:      -6.2      0.000      0.000
REMARK  Name = 
REMARK  4 active torsions:
REMARK  status: ('A' for Active; 'I' for Inactive)
REMARK    1  A    between atoms: C_1  and  O_2
REMARK    2  A    between atoms: O_2  and  C_3
REMARK    3  A    between atoms: C_3  and  C_5
REMARK    4  A    between atoms: C_10  and  N_11
REMARK                            x       y       z     vdW  Elec       q    Type
REMARK                         _______ _______ _______ _____ _____    ______ ____
ROOT
ATOM      1  C   UNL     1       4.336   3.468  17.882  0.00  0.00    +0.000 A 
ATOM      2  C   UNL     1       4.951   3.749  19.099  0.00  0.00    +0.000 A 
ATOM      3  N   UNL     1       5.986   4.618  19.244  0.00  0.00    +0.000 NA
ATOM      4  C   UNL     1       6.432   5.245  18.129  0.00  0.00    +0.000 A 
ATOM      5 CL   UNL     1       7.698   6.357  18.458  0.00  0.00    +0.000 Cl
ATOM      6  C   UNL     1       5.873   5.023  16.886  0.00  0.00    +0.000 A 
ATOM      7  C   UNL     1       4.807   4.125  16.743  0.00  0.00    +0.000 A 
ENDROOT
BRANCH   6   8
ATOM      8  N   UNL     1       6.352   5.725  15.730  0.00  0.00    +0.000 N 
ATOM      9  O   UNL     1       7.444   5.379  15.263  0.00  0.00    +0.000 OA
ATOM     10  O   UNL     1       5.601   6.585  15.251  0.00  0.00    +0.000 OA
ENDBRANCH   6   8
BRANCH   1  11
ATOM     11  C   UNL     1       3.220   2.499  17.873  0.00  0.00    +0.000 C 
ATOM     12  O   UNL     1       3.299   1.386  18.365  0.00  0.00    +0.000 OA
BRANCH  11  14
ATOM     13  C   UNL     1       1.387   3.933  18.044  0.00  0.00    +0.000 C 
ATOM     14  O   UNL     1       2.143   3.022  17.241  0.00  0.00    +0.000 OA
ENDBRANCH  11  14
ENDBRANCH   1  11
TORSDOF 3
ENDMDL
MODEL 2
REMARK VINA RESULT:      -6.2      1.618      2.130
REMARK  Name = 
REMARK  4 active torsions:
REMARK  status: ('A' for Active; 'I' for Inactive)
REMARK    1  A    between atoms: C_1  and  O_2
REMARK    2  A    between atoms: O_2  and  C_3
REMARK    3  A    between atoms: C_3  and  C_5
REMARK    4  A    between atoms: C_10  and  N_11
REMARK                            x       y       z     vdW  Elec       q    Type
REMARK                         _______ _______ _______ _____ _____    ______ ____
ROOT
ATOM      1  C   UNL     1       3.683   4.431  17.340  0.00  0.00    +0.000 A 
ATOM      2  C   UNL     1       3.547   5.744  17.782  0.00  0.00    +0.000 A 
ATOM      3  N   UNL     1       4.559   6.652  17.790  0.00  0.00    +0.000 NA
ATOM      4  C   UNL     1       5.767   6.239  17.335  0.00  0.00    +0.000 A 
ATOM      5 CL   UNL     1       6.939   7.494  17.343  0.00  0.00    +0.000 Cl
ATOM      6  C   UNL     1       5.982   4.954  16.876  0.00  0.00    +0.000 A 
ATOM      7  C   UNL     1       4.935   4.024  16.871  0.00  0.00    +0.000 A 
ENDROOT
BRANCH   6   8
ATOM      8  N   UNL     1       7.267   4.560  16.374  0.00  0.00    +0.000 N 
ATOM      9  O   UNL     1       7.463   4.670  15.158  0.00  0.00    +0.000 OA
ATOM     10  O   UNL     1       8.104   4.200  17.212  0.00  0.00    +0.000 OA
ENDBRANCH   6   8
BRANCH   1  11
ATOM     11  C   UNL     1       2.495   3.553  17.388  0.00  0.00    +0.000 C 
ATOM     12  O   UNL     1       1.355   3.965  17.258  0.00  0.00    +0.000 OA
BRANCH  11  14
ATOM     13  C   UNL     1       2.748   1.858  18.972  0.00  0.00    +0.000 C 
ATOM     14  O   UNL     1       2.864   2.269  17.607  0.00  0.00    +0.000 OA
ENDBRANCH  11  14
ENDBRANCH   1  11
TORSDOF 3
ENDMDL
MODEL 3
REMARK VINA RESULT:      -6.1      2.373      4.581
REMARK  Name = 
REMARK  4 active torsions:
REMARK  status: ('A' for Active; 'I' for Inactive)
REMARK    1  A    between atoms: C_1  and  O_2
REMARK    2  A    between atoms: O_2  and  C_3
REMARK    3  A    between atoms: C_3  and  C_5
REMARK    4  A    between atoms: C_10  and  N_11
REMARK                            x       y       z     vdW  Elec       q    Type
REMARK                         _______ _______ _______ _____ _____    ______ ____
ROOT
ATOM      1  C   UNL     1       5.712   4.750  17.466  0.00  0.00    +0.000 A 
ATOM      2  C   UNL     1       5.722   5.362  18.717  0.00  0.00    +0.000 A 
ATOM      3  N   UNL     1       4.654   5.392  19.557  0.00  0.00    +0.000 NA
ATOM      4  C   UNL     1       3.519   4.782  19.139  0.00  0.00    +0.000 A 
ATOM      5 CL   UNL     1       2.268   4.839  20.314  0.00  0.00    +0.000 Cl
ATOM      6  C   UNL     1       3.429   4.150  17.914  0.00  0.00    +0.000 A 
ATOM      7  C   UNL     1       4.534   4.124  17.053  0.00  0.00    +0.000 A 
ENDROOT
BRANCH   6   8
ATOM      8  N   UNL     1       2.219   3.489  17.517  0.00  0.00    +0.000 N 
ATOM      9  O   UNL     1       1.236   4.197  17.270  0.00  0.00    +0.000 OA
ATOM     10  O   UNL     1       2.274   2.259  17.391  0.00  0.00    +0.000 OA
ENDBRANCH   6   8
BRANCH   1  11
ATOM     11  C   UNL     1       6.949   4.796  16.658  0.00  0.00    +0.000 C 
ATOM     12  O   UNL     1       7.981   4.234  16.984  0.00  0.00    +0.000 OA
BRANCH  11  14
ATOM     13  C   UNL     1       6.864   4.810  14.326  0.00  0.00    +0.000 C 
ATOM     14  O   UNL     1       6.760   5.547  15.547  0.00  0.00    +0.000 OA
ENDBRANCH  11  14
ENDBRANCH   1  11
TORSDOF 3
ENDMDL
MODEL 4
REMARK VINA RESULT:      -5.9      0.859      1.308
REMARK  Name = 
REMARK  4 active torsions:
REMARK  status: ('A' for Active; 'I' for Inactive)
REMARK    1  A    between atoms: C_1  and  O_2
REMARK    2  A    between atoms: O_2  and  C_3
REMARK    3  A    between atoms: C_3  and  C_5
REMARK    4  A    between atoms: C_10  and  N_11
REMARK                            x       y       z     vdW  Elec       q    Type
REMARK                         _______ _______ _______ _____ _____    ______ ____
ROOT
ATOM      1  C   UNL     1       3.983   3.573  18.080  0.00  0.00    +0.000 A 
ATOM      2  C   UNL     1       4.817   3.725  19.185  0.00  0.00    +0.000 A 
ATOM      3  N   UNL     1       5.939   4.492  19.191  0.00  0.00    +0.000 NA
ATOM      4  C   UNL     1       6.251   5.145  18.045  0.00  0.00    +0.000 A 
ATOM      5 CL   UNL     1       7.654   6.122  18.204  0.00  0.00    +0.000 Cl
ATOM      6  C   UNL     1       5.474   5.048  16.907  0.00  0.00    +0.000 A 
ATOM      7  C   UNL     1       4.319   4.256  16.908  0.00  0.00    +0.000 A 
ENDROOT
BRANCH   6   8
ATOM      8  N   UNL     1       5.820   5.777  15.720  0.00  0.00    +0.000 N 
ATOM      9  O   UNL     1       5.174   6.801  15.471  0.00  0.00    +0.000 OA
ATOM     10  O   UNL     1       6.784   5.353  15.070  0.00  0.00    +0.000 OA
ENDBRANCH   6   8
BRANCH   1  11
ATOM     11  C   UNL     1       2.794   2.706  18.217  0.00  0.00    +0.000 C 
ATOM     12  O   UNL     1       2.231   2.190  17.267  0.00  0.00    +0.000 OA
BRANCH  11  14
ATOM     13  C   UNL     1       1.129   3.092  19.806  0.00  0.00    +0.000 C 
ATOM     14  O   UNL     1       2.439   2.594  19.519  0.00  0.00    +0.000 OA
ENDBRANCH  11  14
ENDBRANCH   1  11
TORSDOF 3
ENDMDL
MODEL 5
REMARK VINA RESULT:      -5.9      0.956      1.319
REMARK  Name = 
REMARK  4 active torsions:
REMARK  status: ('A' for Active; 'I' for Inactive)
REMARK    1  A    between atoms: C_1  and  O_2
REMARK    2  A    between atoms: O_2  and  C_3
REMARK    3  A    between atoms: C_3  and  C_5
REMARK    4  A    between atoms: C_10  and  N_11
REMARK                            x       y       z     vdW  Elec       q    Type
REMARK                         _______ _______ _______ _____ _____    ______ ____
ROOT
ATOM      1  C   UNL     1       4.203   3.829  17.937  0.00  0.00    +0.000 A 
ATOM      2  C   UNL     1       4.605   4.037  19.254  0.00  0.00    +0.000 A 
ATOM      3  N   UNL     1       5.769   4.642  19.607  0.00  0.00    +0.000 NA
ATOM      4  C   UNL     1       6.577   5.066  18.605  0.00  0.00    +0.000 A 
ATOM      5 CL   UNL     1       7.984   5.863  19.184  0.00  0.00    +0.000 Cl
ATOM      6  C   UNL     1       6.249   4.900  17.274  0.00  0.00    +0.000 A 
ATOM      7  C   UNL     1       5.047   4.275  16.918  0.00  0.00    +0.000 A 
ENDROOT
BRANCH   6   8
ATOM      8  N   UNL     1       7.116   5.387  16.239  0.00  0.00    +0.000 N 
ATOM      9  O   UNL     1       7.492   4.579  15.382  0.00  0.00    +0.000 OA
ATOM     10  O   UNL     1       7.368   6.599  16.251  0.00  0.00    +0.000 OA
ENDBRANCH   6   8
BRANCH   1  11
ATOM     11  C   UNL     1       2.908   3.157  17.702  0.00  0.00    +0.000 C 
ATOM     12  O   UNL     1       2.112   3.520  16.853  0.00  0.00    +0.000 OA
BRANCH  11  14
ATOM     13  C   UNL     1       1.449   2.047  19.145  0.00  0.00    +0.000 C 
ATOM     14  O   UNL     1       2.751   2.120  18.559  0.00  0.00    +0.000 OA
ENDBRANCH  11  14
ENDBRANCH   1  11
TORSDOF 3
ENDMDL
MODEL 6
REMARK VINA RESULT:      -5.9      1.502      1.910
REMARK  Name = 
REMARK  4 active torsions:
REMARK  status: ('A' for Active; 'I' for Inactive)
REMARK    1  A    between atoms: C_1  and  O_2
REMARK    2  A    between atoms: O_2  and  C_3
REMARK    3  A    between atoms: C_3  and  C_5
REMARK    4  A    between atoms: C_10  and  N_11
REMARK                            x       y       z     vdW  Elec       q    Type
REMARK                         _______ _______ _______ _____ _____    ______ ____
ROOT
ATOM      1  C   UNL     1       3.421   4.270  18.121  0.00  0.00    +0.000 A 
ATOM      2  C   UNL     1       4.300   4.206  19.199  0.00  0.00    +0.000 A 
ATOM      3  N   UNL     1       5.652   4.280  19.082  0.00  0.00    +0.000 NA
ATOM      4  C   UNL     1       6.161   4.427  17.835  0.00  0.00    +0.000 A 
ATOM      5 CL   UNL     1       7.872   4.567  17.832  0.00  0.00    +0.000 Cl
ATOM      6  C   UNL     1       5.356   4.502  16.715  0.00  0.00    +0.000 A 
ATOM      7  C   UNL     1       3.963   4.425  16.843  0.00  0.00    +0.000 A 
ENDROOT
BRANCH   6   8
ATOM      8  N   UNL     1       5.928   4.687  15.412  0.00  0.00    +0.000 N 
ATOM      9  O   UNL     1       6.119   5.849  15.033  0.00  0.00    +0.000 OA
ATOM     10  O   UNL     1       6.244   3.663  14.794  0.00  0.00    +0.000 OA
ENDBRANCH   6   8
BRANCH   1  11
ATOM     11  C   UNL     1       1.972   4.176  18.397  0.00  0.00    +0.000 C 
ATOM     12  O   UNL     1       1.153   3.842  17.558  0.00  0.00    +0.000 OA
BRANCH  11  14
ATOM     13  C   UNL     1       1.002   3.521  20.416  0.00  0.00    +0.000 C 
ATOM     14  O   UNL     1       1.712   4.521  19.680  0.00  0.00    +0.000 OA
ENDBRANCH  11  14
ENDBRANCH   1  11
TORSDOF 3
ENDMDL
MODEL 7
REMARK VINA RESULT:      -5.8      2.259      4.636
REMARK  Name = 
REMARK  4 active torsions:
REMARK  status: ('A' for Active; 'I' for Inactive)
REMARK    1  A    between atoms: C_1  and  O_2
REMARK    2  A    between atoms: O_2  and  C_3
REMARK    3  A    between atoms: C_3  and  C_5
REMARK    4  A    between atoms: C_10  and  N_11
REMARK                            x       y       z     vdW  Elec       q    Type
REMARK                         _______ _______ _______ _____ _____    ______ ____
ROOT
ATOM      1  C   UNL     1       5.662   4.709  16.900  0.00  0.00    +0.000 A 
ATOM      2  C   UNL     1       6.211   4.597  18.175  0.00  0.00    +0.000 A 
ATOM      3  N   UNL     1       5.568   4.036  19.232  0.00  0.00    +0.000 NA
ATOM      4  C   UNL     1       4.318   3.558  19.017  0.00  0.00    +0.000 A 
ATOM      5 CL   UNL     1       3.642   2.824  20.414  0.00  0.00    +0.000 Cl
ATOM      6  C   UNL     1       3.705   3.629  17.781  0.00  0.00    +0.000 A 
ATOM      7  C   UNL     1       4.374   4.209  16.696  0.00  0.00    +0.000 A 
ENDROOT
BRANCH   6   8
ATOM      8  N   UNL     1       2.391   3.087  17.582  0.00  0.00    +0.000 N 
ATOM      9  O   UNL     1       1.465   3.887  17.404  0.00  0.00    +0.000 OA
ATOM     10  O   UNL     1       2.300   1.854  17.542  0.00  0.00    +0.000 OA
ENDBRANCH   6   8
BRANCH   1  11
ATOM     11  C   UNL     1       6.478   5.344  15.844  0.00  0.00    +0.000 C 
ATOM     12  O   UNL     1       7.502   5.965  16.074  0.00  0.00    +0.000 OA
BRANCH  11  14
ATOM     13  C   UNL     1       6.600   4.172  13.829  0.00  0.00    +0.000 C 
ATOM     14  O   UNL     1       5.917   5.143  14.628  0.00  0.00    +0.000 OA
ENDBRANCH  11  14
ENDBRANCH   1  11
TORSDOF 3
ENDMDL
MODEL 8
REMARK VINA RESULT:      -5.8      2.269      4.649
REMARK  Name = 
REMARK  4 active torsions:
REMARK  status: ('A' for Active; 'I' for Inactive)
REMARK    1  A    between atoms: C_1  and  O_2
REMARK    2  A    between atoms: O_2  and  C_3
REMARK    3  A    between atoms: C_3  and  C_5
REMARK    4  A    between atoms: C_10  and  N_11
REMARK                            x       y       z     vdW  Elec       q    Type
REMARK                         _______ _______ _______ _____ _____    ______ ____
ROOT
ATOM      1  C   UNL     1       5.743   4.875  17.229  0.00  0.00    +0.000 A 
ATOM      2  C   UNL     1       6.171   4.610  18.527  0.00  0.00    +0.000 A 
ATOM      3  N   UNL     1       5.422   3.960  19.456  0.00  0.00    +0.000 NA
ATOM      4  C   UNL     1       4.187   3.547  19.081  0.00  0.00    +0.000 A 
ATOM      5 CL   UNL     1       3.371   2.689  20.324  0.00  0.00    +0.000 Cl
ATOM      6  C   UNL     1       3.691   3.769  17.811  0.00  0.00    +0.000 A 
ATOM      7  C   UNL     1       4.468   4.441  16.859  0.00  0.00    +0.000 A 
ENDROOT
BRANCH   6   8
ATOM      8  N   UNL     1       2.389   3.293  17.439  0.00  0.00    +0.000 N 
ATOM      9  O   UNL     1       2.265   2.082  17.221  0.00  0.00    +0.000 OA
ATOM     10  O   UNL     1       1.476   4.128  17.426  0.00  0.00    +0.000 OA
ENDBRANCH   6   8
BRANCH   1  11
ATOM     11  C   UNL     1       6.665   5.593  16.324  0.00  0.00    +0.000 C 
ATOM     12  O   UNL     1       6.764   6.809  16.299  0.00  0.00    +0.000 OA
BRANCH  11  14
ATOM     13  C   UNL     1       6.964   4.745  14.171  0.00  0.00    +0.000 C 
ATOM     14  O   UNL     1       7.346   4.716  15.549  0.00  0.00    +0.000 OA
ENDBRANCH  11  14
ENDBRANCH   1  11
TORSDOF 3
ENDMDL
MODEL 9
REMARK VINA RESULT:      -5.8      1.217      1.552
REMARK  Name = 
REMARK  4 active torsions:
REMARK  status: ('A' for Active; 'I' for Inactive)
REMARK    1  A    between atoms: C_1  and  O_2
REMARK    2  A    between atoms: O_2  and  C_3
REMARK    3  A    between atoms: C_3  and  C_5
REMARK    4  A    between atoms: C_10  and  N_11
REMARK                            x       y       z     vdW  Elec       q    Type
REMARK                         _______ _______ _______ _____ _____    ______ ____
ROOT
ATOM      1  C   UNL     1       3.581   4.546  18.193  0.00  0.00    +0.000 A 
ATOM      2  C   UNL     1       4.171   4.902  19.403  0.00  0.00    +0.000 A 
ATOM      3  N   UNL     1       5.442   5.368  19.521  0.00  0.00    +0.000 NA
ATOM      4  C   UNL     1       6.167   5.490  18.383  0.00  0.00    +0.000 A 
ATOM      5 CL   UNL     1       7.730   6.143  18.663  0.00  0.00    +0.000 Cl
ATOM      6  C   UNL     1       5.653   5.161  17.144  0.00  0.00    +0.000 A 
ATOM      7  C   UNL     1       4.342   4.681  17.029  0.00  0.00    +0.000 A 
ENDROOT
BRANCH   6   8
ATOM      8  N   UNL     1       6.440   5.331  15.955  0.00  0.00    +0.000 N 
ATOM      9  O   UNL     1       7.442   4.618  15.828  0.00  0.00    +0.000 OA
ATOM     10  O   UNL     1       6.015   6.138  15.119  0.00  0.00    +0.000 OA
ENDBRANCH   6   8
BRANCH   1  11
ATOM     11  C   UNL     1       2.188   4.054  18.215  0.00  0.00    +0.000 C 
ATOM     12  O   UNL     1       1.412   4.203  17.286  0.00  0.00    +0.000 OA
BRANCH  11  14
ATOM     13  C   UNL     1       1.730   2.033  19.288  0.00  0.00    +0.000 C 
ATOM     14  O   UNL     1       1.919   3.447  19.395  0.00  0.00    +0.000 OA
ENDBRANCH  11  14
ENDBRANCH   1  11
TORSDOF 3
ENDMDL
