MODEL 1
REMARK VINA RESULT:      -7.6      0.000      0.000
REMARK  Name = 
REMARK  7 active torsions:
REMARK  status: ('A' for Active; 'I' for Inactive)
REMARK    1  A    between atoms: C_1  and  C_2
REMARK    2  A    between atoms: C_2  and  O_3
REMARK    3  A    between atoms: O_3  and  C_4
REMARK    4  A    between atoms: C_4  and  C_6
REMARK    5  A    between atoms: C_10  and  C_11
REMARK    6  A    between atoms: C_14  and  C_15
REMARK    7  A    between atoms: C_19  and  C_20
REMARK                            x       y       z     vdW  Elec       q    Type
REMARK                         _______ _______ _______ _____ _____    ______ ____
ROOT
ATOM      1  C   UNL     1       3.654   3.057  19.571  0.00  0.00    +0.000 C 
ATOM      2  C   UNL     1       2.321   3.339  18.929  0.00  0.00    +0.000 C 
ATOM      3  O   UNL     1       1.547   2.467  18.544  0.00  0.00    +0.000 OA
ATOM      4  C   UNL     1       1.885   4.763  18.837  0.00  0.00    +0.000 C 
ATOM      5  C   UNL     1       2.687   5.775  19.221  0.00  0.00    +0.000 C 
ATOM      6  C   UNL     1       4.068   5.521  19.788  0.00  0.00    +0.000 C 
ATOM      7  C   UNL     1       4.673   4.181  19.320  0.00  0.00    +0.000 C 
ENDROOT
BRANCH   5   8
ATOM      8  C   UNL     1       2.248   7.188  19.091  0.00  0.00    +0.000 A 
ATOM      9  C   UNL     1       2.402   7.892  17.887  0.00  0.00    +0.000 A 
ATOM     10  C   UNL     1       1.979   9.222  17.766  0.00  0.00    +0.000 A 
ATOM     11  C   UNL     1       1.390   9.880  18.848  0.00  0.00    +0.000 A 
ATOM     12  C   UNL     1       0.959  11.313  18.751  0.00  0.00    +0.000 C 
ATOM     13  C   UNL     1       1.211   9.182  20.044  0.00  0.00    +0.000 A 
ATOM     14  C   UNL     1       1.626   7.851  20.159  0.00  0.00    +0.000 A 
ENDBRANCH   5   8
BRANCH   7  15
ATOM     15  C   UNL     1       5.254   4.312  17.910  0.00  0.00    +0.000 A 
ATOM     16  C   UNL     1       6.569   4.792  17.770  0.00  0.00    +0.000 A 
ATOM     17  C   UNL     1       7.137   4.978  16.507  0.00  0.00    +0.000 A 
ATOM     18  C   UNL     1       6.401   4.696  15.360  0.00  0.00    +0.000 A 
ATOM     19  C   UNL     1       5.104   4.218  15.476  0.00  0.00    +0.000 A 
ATOM     20  C   UNL     1       4.537   4.028  16.738  0.00  0.00    +0.000 A 
ENDBRANCH   7  15
BRANCH   1  21
ATOM     21  C   UNL     1       4.296   1.724  19.327  0.00  0.00    +0.000 C 
ATOM     22  O   UNL     1       3.817   0.923  18.526  0.00  0.00    +0.000 OA
BRANCH  21  23
ATOM     23  O   UNL     1       5.349   1.454  20.139  0.00  0.00    +0.000 OA
BRANCH  23  25
ATOM     24  C   UNL     1       6.065   0.195  22.081  0.00  0.00    +0.000 C 
ATOM     25  C   UNL     1       5.004   1.107  21.489  0.00  0.00    +0.000 C 
ENDBRANCH  23  25
ENDBRANCH  21  23
ENDBRANCH   1  21
TORSDOF 5
ENDMDL
MODEL 2
REMARK VINA RESULT:      -7.3      2.058      4.527
REMARK  Name = 
REMARK  7 active torsions:
REMARK  status: ('A' for Active; 'I' for Inactive)
REMARK    1  A    between atoms: C_1  and  C_2
REMARK    2  A    between atoms: C_2  and  O_3
REMARK    3  A    between atoms: O_3  and  C_4
REMARK    4  A    between atoms: C_4  and  C_6
REMARK    5  A    between atoms: C_10  and  C_11
REMARK    6  A    between atoms: C_14  and  C_15
REMARK    7  A    between atoms: C_19  and  C_20
REMARK                            x       y       z     vdW  Elec       q    Type
REMARK                         _______ _______ _______ _____ _____    ______ ____
ROOT
ATOM      1  C   UNL     1       3.948   4.958  17.348  0.00  0.00    +0.000 C 
ATOM      2  C   UNL     1       4.644   6.003  18.178  0.00  0.00    +0.000 C 
ATOM      3  O   UNL     1       5.846   5.989  18.431  0.00  0.00    +0.000 OA
ATOM      4  C   UNL     1       3.837   7.168  18.644  0.00  0.00    +0.000 C 
ATOM      5  C   UNL     1       2.510   7.244  18.422  0.00  0.00    +0.000 C 
ATOM      6  C   UNL     1       1.770   6.162  17.666  0.00  0.00    +0.000 C 
ATOM      7  C   UNL     1       2.470   4.789  17.741  0.00  0.00    +0.000 C 
ENDROOT
BRANCH   5   8
ATOM      8  C   UNL     1       1.718   8.396  18.923  0.00  0.00    +0.000 A 
ATOM      9  C   UNL     1       1.387   8.518  20.281  0.00  0.00    +0.000 A 
ATOM     10  C   UNL     1       0.646   9.610  20.752  0.00  0.00    +0.000 A 
ATOM     11  C   UNL     1       0.219  10.608  19.873  0.00  0.00    +0.000 A 
ATOM     12  C   UNL     1      -0.602  11.769  20.349  0.00  0.00    +0.000 C 
ATOM     13  C   UNL     1       0.562  10.509  18.523  0.00  0.00    +0.000 A 
ATOM     14  C   UNL     1       1.310   9.422  18.058  0.00  0.00    +0.000 A 
ENDBRANCH   5   8
BRANCH   7  15
ATOM     15  C   UNL     1       2.164   4.097  19.071  0.00  0.00    +0.000 A 
ATOM     16  C   UNL     1       1.387   2.924  19.052  0.00  0.00    +0.000 A 
ATOM     17  C   UNL     1       1.035   2.274  20.238  0.00  0.00    +0.000 A 
ATOM     18  C   UNL     1       1.443   2.787  21.465  0.00  0.00    +0.000 A 
ATOM     19  C   UNL     1       2.213   3.940  21.506  0.00  0.00    +0.000 A 
ATOM     20  C   UNL     1       2.570   4.588  20.321  0.00  0.00    +0.000 A 
ENDBRANCH   7  15
BRANCH   1  21
ATOM     21  C   UNL     1       4.593   3.612  17.204  0.00  0.00    +0.000 C 
ATOM     22  O   UNL     1       4.825   2.909  18.187  0.00  0.00    +0.000 OA
BRANCH  21  23
ATOM     23  O   UNL     1       4.990   3.315  15.942  0.00  0.00    +0.000 OA
BRANCH  23  25
ATOM     24  C   UNL     1       6.179   4.021  13.952  0.00  0.00    +0.000 C 
ATOM     25  C   UNL     1       6.128   4.052  15.471  0.00  0.00    +0.000 C 
ENDBRANCH  23  25
ENDBRANCH  21  23
ENDBRANCH   1  21
TORSDOF 5
ENDMDL
MODEL 3
REMARK VINA RESULT:      -7.2      1.848      2.102
REMARK  Name = 
REMARK  7 active torsions:
REMARK  status: ('A' for Active; 'I' for Inactive)
REMARK    1  A    between atoms: C_1  and  C_2
REMARK    2  A    between atoms: C_2  and  O_3
REMARK    3  A    between atoms: O_3  and  C_4
REMARK    4  A    between atoms: C_4  and  C_6
REMARK    5  A    between atoms: C_10  and  C_11
REMARK    6  A    between atoms: C_14  and  C_15
REMARK    7  A    between atoms: C_19  and  C_20
REMARK                            x       y       z     vdW  Elec       q    Type
REMARK                         _______ _______ _______ _____ _____    ______ ____
ROOT
ATOM      1  C   UNL     1       2.730   4.216  19.012  0.00  0.00    +0.000 C 
ATOM      2  C   UNL     1       1.917   4.795  17.885  0.00  0.00    +0.000 C 
ATOM      3  O   UNL     1       1.441   4.128  16.969  0.00  0.00    +0.000 OA
ATOM      4  C   UNL     1       1.600   6.252  17.937  0.00  0.00    +0.000 C 
ATOM      5  C   UNL     1       2.100   7.051  18.899  0.00  0.00    +0.000 C 
ATOM      6  C   UNL     1       2.993   6.509  19.994  0.00  0.00    +0.000 C 
ATOM      7  C   UNL     1       3.742   5.226  19.580  0.00  0.00    +0.000 C 
ENDROOT
BRANCH   5   8
ATOM      8  C   UNL     1       1.800   8.506  18.915  0.00  0.00    +0.000 A 
ATOM      9  C   UNL     1       2.188   9.342  17.857  0.00  0.00    +0.000 A 
ATOM     10  C   UNL     1       1.897  10.713  17.872  0.00  0.00    +0.000 A 
ATOM     11  C   UNL     1       1.207  11.279  18.946  0.00  0.00    +0.000 A 
ATOM     12  C   UNL     1       0.912  12.748  18.998  0.00  0.00    +0.000 C 
ATOM     13  C   UNL     1       0.796  10.452  19.994  0.00  0.00    +0.000 A 
ATOM     14  C   UNL     1       1.081   9.083  19.972  0.00  0.00    +0.000 A 
ENDBRANCH   5   8
BRANCH   7  15
ATOM     15  C   UNL     1       4.964   5.564  18.723  0.00  0.00    +0.000 A 
ATOM     16  C   UNL     1       6.243   5.298  19.246  0.00  0.00    +0.000 A 
ATOM     17  C   UNL     1       7.397   5.628  18.530  0.00  0.00    +0.000 A 
ATOM     18  C   UNL     1       7.297   6.239  17.284  0.00  0.00    +0.000 A 
ATOM     19  C   UNL     1       6.046   6.508  16.749  0.00  0.00    +0.000 A 
ATOM     20  C   UNL     1       4.892   6.173  17.461  0.00  0.00    +0.000 A 
ENDBRANCH   7  15
BRANCH   1  21
ATOM     21  C   UNL     1       3.396   2.889  18.805  0.00  0.00    +0.000 C 
ATOM     22  O   UNL     1       4.085   2.671  17.810  0.00  0.00    +0.000 OA
BRANCH  21  23
ATOM     23  O   UNL     1       3.074   1.952  19.731  0.00  0.00    +0.000 OA
BRANCH  23  25
ATOM     24  C   UNL     1       1.996   2.570  21.811  0.00  0.00    +0.000 C 
ATOM     25  C   UNL     1       1.800   2.136  20.368  0.00  0.00    +0.000 C 
ENDBRANCH  23  25
ENDBRANCH  21  23
ENDBRANCH   1  21
TORSDOF 5
ENDMDL
MODEL 4
REMARK VINA RESULT:      -7.2      2.418      4.665
REMARK  Name = 
REMARK  7 active torsions:
REMARK  status: ('A' for Active; 'I' for Inactive)
REMARK    1  A    between atoms: C_1  and  C_2
REMARK    2  A    between atoms: C_2  and  O_3
REMARK    3  A    between atoms: O_3  and  C_4
REMARK    4  A    between atoms: C_4  and  C_6
REMARK    5  A    between atoms: C_10  and  C_11
REMARK    6  A    between atoms: C_14  and  C_15
REMARK    7  A    between atoms: C_19  and  C_20
REMARK                            x       y       z     vdW  Elec       q    Type
REMARK                         _______ _______ _______ _____ _____    ______ ____
ROOT
ATOM      1  C   UNL     1       5.848   5.469  16.297  0.00  0.00    +0.000 C 
ATOM      2  C   UNL     1       6.241   6.457  17.362  0.00  0.00    +0.000 C 
ATOM      3  O   UNL     1       7.404   6.702  17.675  0.00  0.00    +0.000 OA
ATOM      4  C   UNL     1       5.153   7.245  18.012  0.00  0.00    +0.000 C 
ATOM      5  C   UNL     1       3.854   7.020  17.735  0.00  0.00    +0.000 C 
ATOM      6  C   UNL     1       3.429   5.970  16.732  0.00  0.00    +0.000 C 
ATOM      7  C   UNL     1       4.468   4.843  16.562  0.00  0.00    +0.000 C 
ENDROOT
BRANCH   5   8
ATOM      8  C   UNL     1       2.785   7.792  18.416  0.00  0.00    +0.000 A 
ATOM      9  C   UNL     1       2.341   7.447  19.702  0.00  0.00    +0.000 A 
ATOM     10  C   UNL     1       1.337   8.182  20.345  0.00  0.00    +0.000 A 
ATOM     11  C   UNL     1       0.752   9.284  19.716  0.00  0.00    +0.000 A 
ATOM     12  C   UNL     1      -0.346  10.066  20.372  0.00  0.00    +0.000 C 
ATOM     13  C   UNL     1       1.202   9.651  18.446  0.00  0.00    +0.000 A 
ATOM     14  C   UNL     1       2.210   8.920  17.810  0.00  0.00    +0.000 A 
ENDBRANCH   5   8
BRANCH   7  15
ATOM     15  C   UNL     1       4.357   3.827  17.703  0.00  0.00    +0.000 A 
ATOM     16  C   UNL     1       3.575   2.676  17.499  0.00  0.00    +0.000 A 
ATOM     17  C   UNL     1       3.397   1.737  18.518  0.00  0.00    +0.000 A 
ATOM     18  C   UNL     1       3.988   1.934  19.763  0.00  0.00    +0.000 A 
ATOM     19  C   UNL     1       4.766   3.061  19.983  0.00  0.00    +0.000 A 
ATOM     20  C   UNL     1       4.949   3.997  18.963  0.00  0.00    +0.000 A 
ENDBRANCH   7  15
BRANCH   1  21
ATOM     21  C   UNL     1       6.827   4.400  15.916  0.00  0.00    +0.000 C 
ATOM     22  O   UNL     1       7.925   4.318  16.466  0.00  0.00    +0.000 OA
BRANCH  21  23
ATOM     23  O   UNL     1       6.443   3.639  14.862  0.00  0.00    +0.000 OA
BRANCH  23  25
ATOM     24  C   UNL     1       5.943   3.400  12.503  0.00  0.00    +0.000 C 
ATOM     25  C   UNL     1       6.589   4.261  13.576  0.00  0.00    +0.000 C 
ENDBRANCH  23  25
ENDBRANCH  21  23
ENDBRANCH   1  21
TORSDOF 5
ENDMDL
MODEL 5
REMARK VINA RESULT:      -7.2      0.345      1.391
REMARK  Name = 
REMARK  7 active torsions:
REMARK  status: ('A' for Active; 'I' for Inactive)
REMARK    1  A    between atoms: C_1  and  C_2
REMARK    2  A    between atoms: C_2  and  O_3
REMARK    3  A    between atoms: O_3  and  C_4
REMARK    4  A    between atoms: C_4  and  C_6
REMARK    5  A    between atoms: C_10  and  C_11
REMARK    6  A    between atoms: C_14  and  C_15
REMARK    7  A    between atoms: C_19  and  C_20
REMARK                            x       y       z     vdW  Elec       q    Type
REMARK                         _______ _______ _______ _____ _____    ______ ____
ROOT
ATOM      1  C   UNL     1       3.422   3.210  19.374  0.00  0.00    +0.000 C 
ATOM      2  C   UNL     1       2.195   3.551  18.571  0.00  0.00    +0.000 C 
ATOM      3  O   UNL     1       1.483   2.717  18.017  0.00  0.00    +0.000 OA
ATOM      4  C   UNL     1       1.775   4.983  18.522  0.00  0.00    +0.000 C 
ATOM      5  C   UNL     1       2.514   5.956  19.088  0.00  0.00    +0.000 C 
ATOM      6  C   UNL     1       3.800   5.648  19.826  0.00  0.00    +0.000 C 
ATOM      7  C   UNL     1       4.466   4.339  19.353  0.00  0.00    +0.000 C 
ENDROOT
BRANCH   5   8
ATOM      8  C   UNL     1       2.098   7.379  19.000  0.00  0.00    +0.000 A 
ATOM      9  C   UNL     1       1.501   8.033  20.089  0.00  0.00    +0.000 A 
ATOM     10  C   UNL     1       1.116   9.378  20.005  0.00  0.00    +0.000 A 
ATOM     11  C   UNL     1       1.320  10.101  18.828  0.00  0.00    +0.000 A 
ATOM     12  C   UNL     1       0.888  11.531  18.705  0.00  0.00    +0.000 C 
ATOM     13  C   UNL     1       1.934   9.467  17.746  0.00  0.00    +0.000 A 
ATOM     14  C   UNL     1       2.325   8.127  17.836  0.00  0.00    +0.000 A 
ENDBRANCH   5   8
BRANCH   7  15
ATOM     15  C   UNL     1       5.242   4.565  18.053  0.00  0.00    +0.000 A 
ATOM     16  C   UNL     1       4.750   3.985  16.870  0.00  0.00    +0.000 A 
ATOM     17  C   UNL     1       5.439   4.116  15.662  0.00  0.00    +0.000 A 
ATOM     18  C   UNL     1       6.638   4.821  15.614  0.00  0.00    +0.000 A 
ATOM     19  C   UNL     1       7.140   5.403  16.768  0.00  0.00    +0.000 A 
ATOM     20  C   UNL     1       6.448   5.277  17.975  0.00  0.00    +0.000 A 
ENDBRANCH   7  15
BRANCH   1  21
ATOM     21  C   UNL     1       4.093   1.892  19.128  0.00  0.00    +0.000 C 
ATOM     22  O   UNL     1       3.627   1.079  18.330  0.00  0.00    +0.000 OA
BRANCH  21  23
ATOM     23  O   UNL     1       5.156   1.647  19.933  0.00  0.00    +0.000 OA
BRANCH  23  25
ATOM     24  C   UNL     1       5.885   0.361  21.853  0.00  0.00    +0.000 C 
ATOM     25  C   UNL     1       4.827   1.293  21.286  0.00  0.00    +0.000 C 
ENDBRANCH  23  25
ENDBRANCH  21  23
ENDBRANCH   1  21
TORSDOF 5
ENDMDL
MODEL 6
REMARK VINA RESULT:      -7.1      2.029      4.332
REMARK  Name = 
REMARK  7 active torsions:
REMARK  status: ('A' for Active; 'I' for Inactive)
REMARK    1  A    between atoms: C_1  and  C_2
REMARK    2  A    between atoms: C_2  and  O_3
REMARK    3  A    between atoms: O_3  and  C_4
REMARK    4  A    between atoms: C_4  and  C_6
REMARK    5  A    between atoms: C_10  and  C_11
REMARK    6  A    between atoms: C_14  and  C_15
REMARK    7  A    between atoms: C_19  and  C_20
REMARK                            x       y       z     vdW  Elec       q    Type
REMARK                         _______ _______ _______ _____ _____    ______ ____
ROOT
ATOM      1  C   UNL     1       3.863   4.962  17.361  0.00  0.00    +0.000 C 
ATOM      2  C   UNL     1       4.588   5.960  18.224  0.00  0.00    +0.000 C 
ATOM      3  O   UNL     1       5.786   5.896  18.489  0.00  0.00    +0.000 OA
ATOM      4  C   UNL     1       3.819   7.144  18.709  0.00  0.00    +0.000 C 
ATOM      5  C   UNL     1       2.499   7.275  18.475  0.00  0.00    +0.000 C 
ATOM      6  C   UNL     1       1.728   6.239  17.685  0.00  0.00    +0.000 C 
ATOM      7  C   UNL     1       2.376   4.839  17.735  0.00  0.00    +0.000 C 
ENDROOT
BRANCH   5   8
ATOM      8  C   UNL     1       1.745   8.443  18.995  0.00  0.00    +0.000 A 
ATOM      9  C   UNL     1       1.359   9.496  18.151  0.00  0.00    +0.000 A 
ATOM     10  C   UNL     1       0.640  10.594  18.644  0.00  0.00    +0.000 A 
ATOM     11  C   UNL     1       0.289  10.662  19.994  0.00  0.00    +0.000 A 
ATOM     12  C   UNL     1      -0.452  11.842  20.550  0.00  0.00    +0.000 C 
ATOM     13  C   UNL     1       0.648   9.609  20.838  0.00  0.00    +0.000 A 
ATOM     14  C   UNL     1       1.357   8.511  20.342  0.00  0.00    +0.000 A 
ENDBRANCH   5   8
BRANCH   7  15
ATOM     15  C   UNL     1       2.029   4.128  19.045  0.00  0.00    +0.000 A 
ATOM     16  C   UNL     1       2.505   4.676  20.250  0.00  0.00    +0.000 A 
ATOM     17  C   UNL     1       2.262   4.046  21.474  0.00  0.00    +0.000 A 
ATOM     18  C   UNL     1       1.546   2.853  21.516  0.00  0.00    +0.000 A 
ATOM     19  C   UNL     1       1.064   2.298  20.340  0.00  0.00    +0.000 A 
ATOM     20  C   UNL     1       1.303   2.930  19.117  0.00  0.00    +0.000 A 
ENDBRANCH   7  15
BRANCH   1  21
ATOM     21  C   UNL     1       4.459   3.597  17.193  0.00  0.00    +0.000 C 
ATOM     22  O   UNL     1       4.624   2.850  18.156  0.00  0.00    +0.000 OA
BRANCH  21  23
ATOM     23  O   UNL     1       4.894   3.329  15.936  0.00  0.00    +0.000 OA
BRANCH  23  25
ATOM     24  C   UNL     1       6.241   4.071  14.064  0.00  0.00    +0.000 C 
ATOM     25  C   UNL     1       6.136   3.952  15.575  0.00  0.00    +0.000 C 
ENDBRANCH  23  25
ENDBRANCH  21  23
ENDBRANCH   1  21
TORSDOF 5
ENDMDL
MODEL 7
REMARK VINA RESULT:      -7.0      1.866      2.453
REMARK  Name = 
REMARK  7 active torsions:
REMARK  status: ('A' for Active; 'I' for Inactive)
REMARK    1  A    between atoms: C_1  and  C_2
REMARK    2  A    between atoms: C_2  and  O_3
REMARK    3  A    between atoms: O_3  and  C_4
REMARK    4  A    between atoms: C_4  and  C_6
REMARK    5  A    between atoms: C_10  and  C_11
REMARK    6  A    between atoms: C_14  and  C_15
REMARK    7  A    between atoms: C_19  and  C_20
REMARK                            x       y       z     vdW  Elec       q    Type
REMARK                         _______ _______ _______ _____ _____    ______ ____
ROOT
ATOM      1  C   UNL     1       2.737   4.253  19.031  0.00  0.00    +0.000 C 
ATOM      2  C   UNL     1       1.955   4.822  17.876  0.00  0.00    +0.000 C 
ATOM      3  O   UNL     1       1.512   4.148  16.950  0.00  0.00    +0.000 OA
ATOM      4  C   UNL     1       1.629   6.278  17.911  0.00  0.00    +0.000 C 
ATOM      5  C   UNL     1       2.096   7.085  18.884  0.00  0.00    +0.000 C 
ATOM      6  C   UNL     1       2.958   6.553  20.008  0.00  0.00    +0.000 C 
ATOM      7  C   UNL     1       3.726   5.271  19.624  0.00  0.00    +0.000 C 
ENDROOT
BRANCH   5   8
ATOM      8  C   UNL     1       1.788   8.537  18.883  0.00  0.00    +0.000 A 
ATOM      9  C   UNL     1       1.062   9.130  19.928  0.00  0.00    +0.000 A 
ATOM     10  C   UNL     1       0.780  10.502  19.927  0.00  0.00    +0.000 A 
ATOM     11  C   UNL     1       1.219  11.316  18.880  0.00  0.00    +0.000 A 
ATOM     12  C   UNL     1       0.902  12.781  18.843  0.00  0.00    +0.000 C 
ATOM     13  C   UNL     1       1.962  10.741  17.846  0.00  0.00    +0.000 A 
ATOM     14  C   UNL     1       2.249   9.372  17.854  0.00  0.00    +0.000 A 
ENDBRANCH   5   8
BRANCH   7  15
ATOM     15  C   UNL     1       4.972   5.612  18.802  0.00  0.00    +0.000 A 
ATOM     16  C   UNL     1       4.799   6.207  17.539  0.00  0.00    +0.000 A 
ATOM     17  C   UNL     1       5.895   6.498  16.723  0.00  0.00    +0.000 A 
ATOM     18  C   UNL     1       7.185   6.192  17.149  0.00  0.00    +0.000 A 
ATOM     19  C   UNL     1       7.378   5.608  18.392  0.00  0.00    +0.000 A 
ATOM     20  C   UNL     1       6.282   5.322  19.210  0.00  0.00    +0.000 A 
ENDBRANCH   7  15
BRANCH   1  21
ATOM     21  C   UNL     1       3.416   2.929  18.851  0.00  0.00    +0.000 C 
ATOM     22  O   UNL     1       4.115   2.701  17.864  0.00  0.00    +0.000 OA
BRANCH  21  23
ATOM     23  O   UNL     1       3.095   2.004  19.789  0.00  0.00    +0.000 OA
BRANCH  23  25
ATOM     24  C   UNL     1       1.880   2.563  21.810  0.00  0.00    +0.000 C 
ATOM     25  C   UNL     1       1.782   2.139  20.354  0.00  0.00    +0.000 C 
ENDBRANCH  23  25
ENDBRANCH  21  23
ENDBRANCH   1  21
TORSDOF 5
ENDMDL
MODEL 8
REMARK VINA RESULT:      -6.9      1.106      1.594
REMARK  Name = 
REMARK  7 active torsions:
REMARK  status: ('A' for Active; 'I' for Inactive)
REMARK    1  A    between atoms: C_1  and  C_2
REMARK    2  A    between atoms: C_2  and  O_3
REMARK    3  A    between atoms: O_3  and  C_4
REMARK    4  A    between atoms: C_4  and  C_6
REMARK    5  A    between atoms: C_10  and  C_11
REMARK    6  A    between atoms: C_14  and  C_15
REMARK    7  A    between atoms: C_19  and  C_20
REMARK                            x       y       z     vdW  Elec       q    Type
REMARK                         _______ _______ _______ _____ _____    ______ ____
ROOT
ATOM      1  C   UNL     1       3.221   3.698  19.108  0.00  0.00    +0.000 C 
ATOM      2  C   UNL     1       2.319   4.175  18.000  0.00  0.00    +0.000 C 
ATOM      3  O   UNL     1       1.869   3.445  17.121  0.00  0.00    +0.000 OA
ATOM      4  C   UNL     1       1.881   5.600  18.029  0.00  0.00    +0.000 C 
ATOM      5  C   UNL     1       2.346   6.466  18.951  0.00  0.00    +0.000 C 
ATOM      6  C   UNL     1       3.323   6.032  20.023  0.00  0.00    +0.000 C 
ATOM      7  C   UNL     1       4.163   4.805  19.611  0.00  0.00    +0.000 C 
ENDROOT
BRANCH   5   8
ATOM      8  C   UNL     1       1.923   7.889  18.943  0.00  0.00    +0.000 A 
ATOM      9  C   UNL     1       1.284   8.466  20.051  0.00  0.00    +0.000 A 
ATOM     10  C   UNL     1       0.893   9.812  20.043  0.00  0.00    +0.000 A 
ATOM     11  C   UNL     1       1.135  10.613  18.924  0.00  0.00    +0.000 A 
ATOM     12  C   UNL     1       0.697  12.047  18.881  0.00  0.00    +0.000 C 
ATOM     13  C   UNL     1       1.791  10.055  17.824  0.00  0.00    +0.000 A 
ATOM     14  C   UNL     1       2.187   8.714  17.839  0.00  0.00    +0.000 A 
ENDBRANCH   5   8
BRANCH   7  15
ATOM     15  C   UNL     1       5.319   5.222  18.698  0.00  0.00    +0.000 A 
ATOM     16  C   UNL     1       6.558   5.533  19.286  0.00  0.00    +0.000 A 
ATOM     17  C   UNL     1       7.637   5.965  18.510  0.00  0.00    +0.000 A 
ATOM     18  C   UNL     1       7.496   6.105  17.133  0.00  0.00    +0.000 A 
ATOM     19  C   UNL     1       6.284   5.801  16.532  0.00  0.00    +0.000 A 
ATOM     20  C   UNL     1       5.207   5.363  17.307  0.00  0.00    +0.000 A 
ENDBRANCH   7  15
BRANCH   1  21
ATOM     21  C   UNL     1       3.990   2.427  18.907  0.00  0.00    +0.000 C 
ATOM     22  O   UNL     1       3.656   1.609  18.052  0.00  0.00    +0.000 OA
BRANCH  21  23
ATOM     23  O   UNL     1       4.981   2.224  19.812  0.00  0.00    +0.000 OA
BRANCH  23  25
ATOM     24  C   UNL     1       5.579   0.557  21.465  0.00  0.00    +0.000 C 
ATOM     25  C   UNL     1       4.567   1.608  21.041  0.00  0.00    +0.000 C 
ENDBRANCH  23  25
ENDBRANCH  21  23
ENDBRANCH   1  21
TORSDOF 5
ENDMDL
MODEL 9
REMARK VINA RESULT:      -6.9      4.583      9.339
REMARK  Name = 
REMARK  7 active torsions:
REMARK  status: ('A' for Active; 'I' for Inactive)
REMARK    1  A    between atoms: C_1  and  C_2
REMARK    2  A    between atoms: C_2  and  O_3
REMARK    3  A    between atoms: O_3  and  C_4
REMARK    4  A    between atoms: C_4  and  C_6
REMARK    5  A    between atoms: C_10  and  C_11
REMARK    6  A    between atoms: C_14  and  C_15
REMARK    7  A    between atoms: C_19  and  C_20
REMARK                            x       y       z     vdW  Elec       q    Type
REMARK                         _______ _______ _______ _____ _____    ______ ____
ROOT
ATOM      1  C   UNL     1      -1.136  10.835  21.751  0.00  0.00    +0.000 C 
ATOM      2  C   UNL     1      -0.030  10.102  22.463  0.00  0.00    +0.000 C 
ATOM      3  O   UNL     1       0.133  10.122  23.681  0.00  0.00    +0.000 OA
ATOM      4  C   UNL     1       0.865   9.233  21.644  0.00  0.00    +0.000 C 
ATOM      5  C   UNL     1       0.760   9.175  20.303  0.00  0.00    +0.000 C 
ATOM      6  C   UNL     1      -0.287   9.971  19.554  0.00  0.00    +0.000 C 
ATOM      7  C   UNL     1      -0.744  11.231  20.317  0.00  0.00    +0.000 C 
ENDROOT
BRANCH   5   8
ATOM      8  C   UNL     1       1.682   8.329  19.502  0.00  0.00    +0.000 A 
ATOM      9  C   UNL     1       2.110   7.076  19.966  0.00  0.00    +0.000 A 
ATOM     10  C   UNL     1       2.974   6.277  19.204  0.00  0.00    +0.000 A 
ATOM     11  C   UNL     1       3.428   6.714  17.958  0.00  0.00    +0.000 A 
ATOM     12  C   UNL     1       4.377   5.890  17.140  0.00  0.00    +0.000 C 
ATOM     13  C   UNL     1       2.990   7.950  17.476  0.00  0.00    +0.000 A 
ATOM     14  C   UNL     1       2.121   8.741  18.235  0.00  0.00    +0.000 A 
ENDBRANCH   5   8
BRANCH   7  15
ATOM     15  C   UNL     1       0.269  12.365  20.146  0.00  0.00    +0.000 A 
ATOM     16  C   UNL     1      -0.037  13.408  19.253  0.00  0.00    +0.000 A 
ATOM     17  C   UNL     1       0.868  14.446  19.018  0.00  0.00    +0.000 A 
ATOM     18  C   UNL     1       2.101  14.458  19.664  0.00  0.00    +0.000 A 
ATOM     19  C   UNL     1       2.422  13.442  20.551  0.00  0.00    +0.000 A 
ATOM     20  C   UNL     1       1.515  12.407  20.790  0.00  0.00    +0.000 A 
ENDBRANCH   7  15
BRANCH   1  21
ATOM     21  C   UNL     1      -1.784  11.997  22.442  0.00  0.00    +0.000 C 
ATOM     22  O   UNL     1      -2.919  12.363  22.142  0.00  0.00    +0.000 OA
BRANCH  21  23
ATOM     23  O   UNL     1      -0.975  12.653  23.310  0.00  0.00    +0.000 OA
BRANCH  23  25
ATOM     24  C   UNL     1      -0.400  14.938  22.747  0.00  0.00    +0.000 C 
ATOM     25  C   UNL     1      -1.318  14.027  23.544  0.00  0.00    +0.000 C 
ENDBRANCH  23  25
ENDBRANCH  21  23
ENDBRANCH   1  21
TORSDOF 5
ENDMDL
