MODEL 1
REMARK VINA RESULT:      -8.0      0.000      0.000
REMARK  Name = 
REMARK  1 active torsions:
REMARK  status: ('A' for Active; 'I' for Inactive)
REMARK    1  A    between atoms: N_3  and  C_4
REMARK                            x       y       z     vdW  Elec       q    Type
REMARK                         _______ _______ _______ _____ _____    ______ ____
ROOT
ATOM      1  O   UNL     1       1.497   8.985  18.585  0.00  0.00    +0.000 OA
ATOM      2  C   UNL     1       1.423   8.748  19.787  0.00  0.00    +0.000 C 
ATOM      3  N   UNL     1       1.877   7.549  20.317  0.00  0.00    +0.000 N 
ATOM      4  N   UNL     1       0.823   9.621  20.723  0.00  0.00    +0.000 N 
ATOM      5  C   UNL     1       1.030   9.493  22.179  0.00  0.00    +0.000 C 
ATOM      6  C   UNL     1      -0.292   9.405  22.917  0.00  0.00    +0.000 C 
ATOM      7  S   UNL     1      -1.027  11.049  22.944  0.00  0.00    +0.000 S 
ATOM      8  C   UNL     1      -0.803  11.482  21.224  0.00  0.00    +0.000 A 
ATOM      9  N   UNL     1      -1.573  12.552  20.882  0.00  0.00    +0.000 NA
ATOM     10  C   UNL     1      -1.574  12.943  19.596  0.00  0.00    +0.000 A 
ATOM     11  C   UNL     1      -0.833  12.318  18.622  0.00  0.00    +0.000 A 
ATOM     12  C   UNL     1      -0.032  11.236  18.991  0.00  0.00    +0.000 A 
ATOM     13  C   UNL     1       0.016  10.773  20.315  0.00  0.00    +0.000 A 
ATOM     14  H   UNL     1       1.458   7.251  21.182  0.00  0.00    +0.000 HD
ENDROOT
BRANCH   3  15
ATOM     15  C   UNL     1       2.516   6.506  19.599  0.00  0.00    +0.000 A 
ATOM     16  C   UNL     1       3.130   6.681  18.354  0.00  0.00    +0.000 A 
ATOM     17  C   UNL     1       3.660   5.590  17.658  0.00  0.00    +0.000 A 
ATOM     18  C   UNL     1       3.596   4.318  18.211  0.00  0.00    +0.000 A 
ATOM     19  C   UNL     1       3.047   4.139  19.482  0.00  0.00    +0.000 A 
ATOM     20  C   UNL     1       2.505   5.228  20.172  0.00  0.00    +0.000 A 
ATOM     21  O   UNL     1       2.979   2.920  20.108  0.00  0.00    +0.000 OA
ATOM     22  C   UNL     1       3.815   1.953  19.459  0.00  0.00    +0.000 C 
ATOM     23  C   UNL     1       3.655   2.021  17.948  0.00  0.00    +0.000 C 
ATOM     24  O   UNL     1       4.095   3.291  17.454  0.00  0.00    +0.000 OA
ENDBRANCH   3  15
TORSDOF 1
ENDMDL
MODEL 2
REMARK VINA RESULT:      -7.9      1.419      2.232
REMARK  Name = 
REMARK  1 active torsions:
REMARK  status: ('A' for Active; 'I' for Inactive)
REMARK    1  A    between atoms: N_3  and  C_4
REMARK                            x       y       z     vdW  Elec       q    Type
REMARK                         _______ _______ _______ _____ _____    ______ ____
ROOT
ATOM      1  O   UNL     1       1.352   8.944  17.939  0.00  0.00    +0.000 OA
ATOM      2  C   UNL     1       1.467   8.675  19.131  0.00  0.00    +0.000 C 
ATOM      3  N   UNL     1       2.082   7.505  19.552  0.00  0.00    +0.000 N 
ATOM      4  N   UNL     1       0.939   9.476  20.170  0.00  0.00    +0.000 N 
ATOM      5  C   UNL     1       1.359   9.331  21.578  0.00  0.00    +0.000 C 
ATOM      6  C   UNL     1       0.166   9.120  22.490  0.00  0.00    +0.000 C 
ATOM      7  S   UNL     1      -0.683  10.698  22.674  0.00  0.00    +0.000 S 
ATOM      8  C   UNL     1      -0.738  11.186  20.955  0.00  0.00    +0.000 A 
ATOM      9  N   UNL     1      -1.629  12.198  20.760  0.00  0.00    +0.000 NA
ATOM     10  C   UNL     1      -1.842  12.617  19.500  0.00  0.00    +0.000 A 
ATOM     11  C   UNL     1      -1.199  12.076  18.412  0.00  0.00    +0.000 A 
ATOM     12  C   UNL     1      -0.274  11.054  18.629  0.00  0.00    +0.000 A 
ATOM     13  C   UNL     1      -0.003  10.567  19.918  0.00  0.00    +0.000 A 
ATOM     14  H   UNL     1       1.814   7.155  20.457  0.00  0.00    +0.000 HD
ENDROOT
BRANCH   3  15
ATOM     15  C   UNL     1       2.691   6.534  18.717  0.00  0.00    +0.000 A 
ATOM     16  C   UNL     1       2.277   5.200  18.644  0.00  0.00    +0.000 A 
ATOM     17  C   UNL     1       2.981   4.273  17.869  0.00  0.00    +0.000 A 
ATOM     18  C   UNL     1       4.095   4.679  17.146  0.00  0.00    +0.000 A 
ATOM     19  C   UNL     1       4.479   6.021  17.156  0.00  0.00    +0.000 A 
ATOM     20  C   UNL     1       3.783   6.944  17.941  0.00  0.00    +0.000 A 
ATOM     21  O   UNL     1       5.546   6.503  16.440  0.00  0.00    +0.000 OA
ATOM     22  C   UNL     1       5.989   5.555  15.460  0.00  0.00    +0.000 C 
ATOM     23  C   UNL     1       6.063   4.156  16.050  0.00  0.00    +0.000 C 
ATOM     24  O   UNL     1       4.761   3.708  16.445  0.00  0.00    +0.000 OA
ENDBRANCH   3  15
TORSDOF 1
ENDMDL
MODEL 3
REMARK VINA RESULT:      -7.8      2.097      3.484
REMARK  Name = 
REMARK  1 active torsions:
REMARK  status: ('A' for Active; 'I' for Inactive)
REMARK    1  A    between atoms: N_3  and  C_4
REMARK                            x       y       z     vdW  Elec       q    Type
REMARK                         _______ _______ _______ _____ _____    ______ ____
ROOT
ATOM      1  O   UNL     1       1.804   7.327  20.448  0.00  0.00    +0.000 OA
ATOM      2  C   UNL     1       1.760   8.167  19.553  0.00  0.00    +0.000 C 
ATOM      3  N   UNL     1       2.551   8.056  18.419  0.00  0.00    +0.000 N 
ATOM      4  N   UNL     1       0.968   9.336  19.613  0.00  0.00    +0.000 N 
ATOM      5  C   UNL     1       0.664  10.154  18.423  0.00  0.00    +0.000 C 
ATOM      6  C   UNL     1       1.046  11.606  18.641  0.00  0.00    +0.000 C 
ATOM      7  S   UNL     1      -0.176  12.348  19.735  0.00  0.00    +0.000 S 
ATOM      8  C   UNL     1      -0.240  11.072  20.986  0.00  0.00    +0.000 A 
ATOM      9  N   UNL     1      -0.845  11.524  22.120  0.00  0.00    +0.000 NA
ATOM     10  C   UNL     1      -0.893  10.701  23.181  0.00  0.00    +0.000 A 
ATOM     11  C   UNL     1      -0.367   9.431  23.168  0.00  0.00    +0.000 A 
ATOM     12  C   UNL     1       0.232   8.973  21.994  0.00  0.00    +0.000 A 
ATOM     13  C   UNL     1       0.318   9.780  20.848  0.00  0.00    +0.000 A 
ATOM     14  H   UNL     1       2.766   8.912  17.935  0.00  0.00    +0.000 HD
ENDROOT
BRANCH   3  15
ATOM     15  C   UNL     1       3.431   6.986  18.114  0.00  0.00    +0.000 A 
ATOM     16  C   UNL     1       3.643   5.889  18.954  0.00  0.00    +0.000 A 
ATOM     17  C   UNL     1       4.594   4.915  18.635  0.00  0.00    +0.000 A 
ATOM     18  C   UNL     1       5.327   5.022  17.460  0.00  0.00    +0.000 A 
ATOM     19  C   UNL     1       5.077   6.076  16.579  0.00  0.00    +0.000 A 
ATOM     20  C   UNL     1       4.136   7.057  16.906  0.00  0.00    +0.000 A 
ATOM     21  O   UNL     1       5.736   6.230  15.385  0.00  0.00    +0.000 OA
ATOM     22  C   UNL     1       6.441   5.036  15.020  0.00  0.00    +0.000 C 
ATOM     23  C   UNL     1       7.190   4.460  16.211  0.00  0.00    +0.000 C 
ATOM     24  O   UNL     1       6.271   4.056  17.233  0.00  0.00    +0.000 OA
ENDBRANCH   3  15
TORSDOF 1
ENDMDL
MODEL 4
REMARK VINA RESULT:      -7.7      1.687      2.471
REMARK  Name = 
REMARK  1 active torsions:
REMARK  status: ('A' for Active; 'I' for Inactive)
REMARK    1  A    between atoms: N_3  and  C_4
REMARK                            x       y       z     vdW  Elec       q    Type
REMARK                         _______ _______ _______ _____ _____    ______ ____
ROOT
ATOM      1  O   UNL     1       1.023   7.619  21.075  0.00  0.00    +0.000 OA
ATOM      2  C   UNL     1       1.353   8.263  20.083  0.00  0.00    +0.000 C 
ATOM      3  N   UNL     1       2.231   7.743  19.143  0.00  0.00    +0.000 N 
ATOM      4  N   UNL     1       0.936   9.591  19.835  0.00  0.00    +0.000 N 
ATOM      5  C   UNL     1       1.057  10.230  18.510  0.00  0.00    +0.000 C 
ATOM      6  C   UNL     1       1.810  11.543  18.598  0.00  0.00    +0.000 C 
ATOM      7  S   UNL     1       0.714  12.768  19.333  0.00  0.00    +0.000 S 
ATOM      8  C   UNL     1       0.103  11.804  20.709  0.00  0.00    +0.000 A 
ATOM      9  N   UNL     1      -0.499  12.599  21.637  0.00  0.00    +0.000 NA
ATOM     10  C   UNL     1      -0.936  12.026  22.772  0.00  0.00    +0.000 A 
ATOM     11  C   UNL     1      -0.806  10.681  23.029  0.00  0.00    +0.000 A 
ATOM     12  C   UNL     1      -0.206   9.876  22.061  0.00  0.00    +0.000 A 
ATOM     13  C   UNL     1       0.274  10.408  20.854  0.00  0.00    +0.000 A 
ATOM     14  H   UNL     1       2.753   8.408  18.597  0.00  0.00    +0.000 HD
ENDROOT
BRANCH   3  15
ATOM     15  C   UNL     1       2.795   6.442  19.156  0.00  0.00    +0.000 A 
ATOM     16  C   UNL     1       4.157   6.185  19.343  0.00  0.00    +0.000 A 
ATOM     17  C   UNL     1       4.660   4.883  19.252  0.00  0.00    +0.000 A 
ATOM     18  C   UNL     1       3.799   3.825  18.991  0.00  0.00    +0.000 A 
ATOM     19  C   UNL     1       2.428   4.059  18.870  0.00  0.00    +0.000 A 
ATOM     20  C   UNL     1       1.927   5.362  18.947  0.00  0.00    +0.000 A 
ATOM     21  O   UNL     1       1.513   3.061  18.646  0.00  0.00    +0.000 OA
ATOM     22  C   UNL     1       2.082   1.767  18.881  0.00  0.00    +0.000 C 
ATOM     23  C   UNL     1       3.464   1.659  18.256  0.00  0.00    +0.000 C 
ATOM     24  O   UNL     1       4.367   2.584  18.872  0.00  0.00    +0.000 OA
ENDBRANCH   3  15
TORSDOF 1
ENDMDL
MODEL 5
REMARK VINA RESULT:      -7.6      3.339      8.147
REMARK  Name = 
REMARK  1 active torsions:
REMARK  status: ('A' for Active; 'I' for Inactive)
REMARK    1  A    between atoms: N_3  and  C_4
REMARK                            x       y       z     vdW  Elec       q    Type
REMARK                         _______ _______ _______ _____ _____    ______ ____
ROOT
ATOM      1  O   UNL     1       3.283   7.946  18.088  0.00  0.00    +0.000 OA
ATOM      2  C   UNL     1       2.697   6.980  18.569  0.00  0.00    +0.000 C 
ATOM      3  N   UNL     1       1.823   7.124  19.637  0.00  0.00    +0.000 N 
ATOM      4  N   UNL     1       2.896   5.648  18.139  0.00  0.00    +0.000 N 
ATOM      5  C   UNL     1       1.966   4.554  18.479  0.00  0.00    +0.000 C 
ATOM      6  C   UNL     1       2.694   3.395  19.132  0.00  0.00    +0.000 C 
ATOM      7  S   UNL     1       3.608   2.517  17.853  0.00  0.00    +0.000 S 
ATOM      8  C   UNL     1       4.364   3.918  17.041  0.00  0.00    +0.000 A 
ATOM      9  N   UNL     1       5.386   3.524  16.230  0.00  0.00    +0.000 NA
ATOM     10  C   UNL     1       6.107   4.477  15.615  0.00  0.00    +0.000 A 
ATOM     11  C   UNL     1       5.854   5.820  15.762  0.00  0.00    +0.000 A 
ATOM     12  C   UNL     1       4.791   6.209  16.578  0.00  0.00    +0.000 A 
ATOM     13  C   UNL     1       3.997   5.267  17.253  0.00  0.00    +0.000 A 
ATOM     14  H   UNL     1       1.686   6.314  20.219  0.00  0.00    +0.000 HD
ENDROOT
BRANCH   3  15
ATOM     15  C   UNL     1       1.450   8.345  20.254  0.00  0.00    +0.000 A 
ATOM     16  C   UNL     1       1.392   8.531  21.639  0.00  0.00    +0.000 A 
ATOM     17  C   UNL     1       0.927   9.733  22.182  0.00  0.00    +0.000 A 
ATOM     18  C   UNL     1       0.535  10.766  21.340  0.00  0.00    +0.000 A 
ATOM     19  C   UNL     1       0.652  10.619  19.957  0.00  0.00    +0.000 A 
ATOM     20  C   UNL     1       1.104   9.412  19.415  0.00  0.00    +0.000 A 
ATOM     21  O   UNL     1       0.317  11.606  19.064  0.00  0.00    +0.000 OA
ATOM     22  C   UNL     1       0.159  12.871  19.720  0.00  0.00    +0.000 C 
ATOM     23  C   UNL     1      -0.648  12.724  21.000  0.00  0.00    +0.000 C 
ATOM     24  O   UNL     1       0.049  11.898  21.940  0.00  0.00    +0.000 OA
ENDBRANCH   3  15
TORSDOF 1
ENDMDL
MODEL 6
REMARK VINA RESULT:      -7.6      3.090      8.051
REMARK  Name = 
REMARK  1 active torsions:
REMARK  status: ('A' for Active; 'I' for Inactive)
REMARK    1  A    between atoms: N_3  and  C_4
REMARK                            x       y       z     vdW  Elec       q    Type
REMARK                         _______ _______ _______ _____ _____    ______ ____
ROOT
ATOM      1  O   UNL     1       2.198   8.129  19.403  0.00  0.00    +0.000 OA
ATOM      2  C   UNL     1       1.744   7.226  20.101  0.00  0.00    +0.000 C 
ATOM      3  N   UNL     1       0.852   7.489  21.131  0.00  0.00    +0.000 N 
ATOM      4  N   UNL     1       2.122   5.870  19.974  0.00  0.00    +0.000 N 
ATOM      5  C   UNL     1       1.344   4.767  20.572  0.00  0.00    +0.000 C 
ATOM      6  C   UNL     1       2.217   3.891  21.449  0.00  0.00    +0.000 C 
ATOM      7  S   UNL     1       3.249   2.876  20.377  0.00  0.00    +0.000 S 
ATOM      8  C   UNL     1       3.815   4.147  19.254  0.00  0.00    +0.000 A 
ATOM      9  N   UNL     1       4.886   3.719  18.528  0.00  0.00    +0.000 NA
ATOM     10  C   UNL     1       5.476   4.597  17.698  0.00  0.00    +0.000 A 
ATOM     11  C   UNL     1       5.044   5.893  17.548  0.00  0.00    +0.000 A 
ATOM     12  C   UNL     1       3.934   6.311  18.282  0.00  0.00    +0.000 A 
ATOM     13  C   UNL     1       3.270   5.449  19.169  0.00  0.00    +0.000 A 
ATOM     14  H   UNL     1       0.821   6.820  21.882  0.00  0.00    +0.000 HD
ENDROOT
BRANCH   3  15
ATOM     15  C   UNL     1       0.315   8.757  21.469  0.00  0.00    +0.000 A 
ATOM     16  C   UNL     1       0.107   9.189  22.783  0.00  0.00    +0.000 A 
ATOM     17  C   UNL     1      -0.512  10.416  23.044  0.00  0.00    +0.000 A 
ATOM     18  C   UNL     1      -0.911  11.228  21.991  0.00  0.00    +0.000 A 
ATOM     19  C   UNL     1      -0.648  10.840  20.676  0.00  0.00    +0.000 A 
ATOM     20  C   UNL     1      -0.042   9.608  20.415  0.00  0.00    +0.000 A 
ATOM     21  O   UNL     1      -0.981  11.605  19.586  0.00  0.00    +0.000 OA
ATOM     22  C   UNL     1      -1.313  12.946  19.969  0.00  0.00    +0.000 C 
ATOM     23  C   UNL     1      -2.223  12.954  21.187  0.00  0.00    +0.000 C 
ATOM     24  O   UNL     1      -1.550  12.394  22.320  0.00  0.00    +0.000 OA
ENDBRANCH   3  15
TORSDOF 1
ENDMDL
MODEL 7
REMARK VINA RESULT:      -7.6      3.273      8.210
REMARK  Name = 
REMARK  1 active torsions:
REMARK  status: ('A' for Active; 'I' for Inactive)
REMARK    1  A    between atoms: N_3  and  C_4
REMARK                            x       y       z     vdW  Elec       q    Type
REMARK                         _______ _______ _______ _____ _____    ______ ____
ROOT
ATOM      1  O   UNL     1       1.216   7.257  20.836  0.00  0.00    +0.000 OA
ATOM      2  C   UNL     1       1.940   7.377  19.852  0.00  0.00    +0.000 C 
ATOM      3  N   UNL     1       1.843   8.477  19.013  0.00  0.00    +0.000 N 
ATOM      4  N   UNL     1       2.879   6.401  19.445  0.00  0.00    +0.000 N 
ATOM      5  C   UNL     1       3.960   6.688  18.482  0.00  0.00    +0.000 C 
ATOM      6  C   UNL     1       3.940   5.709  17.324  0.00  0.00    +0.000 C 
ATOM      7  S   UNL     1       4.583   4.133  17.913  0.00  0.00    +0.000 S 
ATOM      8  C   UNL     1       3.644   3.999  19.428  0.00  0.00    +0.000 A 
ATOM      9  N   UNL     1       3.685   2.729  19.921  0.00  0.00    +0.000 NA
ATOM     10  C   UNL     1       2.955   2.453  21.015  0.00  0.00    +0.000 A 
ATOM     11  C   UNL     1       2.181   3.392  21.655  0.00  0.00    +0.000 A 
ATOM     12  C   UNL     1       2.165   4.693  21.152  0.00  0.00    +0.000 A 
ATOM     13  C   UNL     1       2.902   5.051  20.012  0.00  0.00    +0.000 A 
ATOM     14  H   UNL     1       2.152   8.349  18.064  0.00  0.00    +0.000 HD
ENDROOT
BRANCH   3  15
ATOM     15  C   UNL     1       0.986   9.593  19.193  0.00  0.00    +0.000 A 
ATOM     16  C   UNL     1      -0.026   9.949  18.296  0.00  0.00    +0.000 A 
ATOM     17  C   UNL     1      -0.775  11.115  18.487  0.00  0.00    +0.000 A 
ATOM     18  C   UNL     1      -0.528  11.924  19.589  0.00  0.00    +0.000 A 
ATOM     19  C   UNL     1       0.433  11.544  20.528  0.00  0.00    +0.000 A 
ATOM     20  C   UNL     1       1.190  10.386  20.329  0.00  0.00    +0.000 A 
ATOM     21  O   UNL     1       0.709  12.273  21.657  0.00  0.00    +0.000 OA
ATOM     22  C   UNL     1      -0.309  13.251  21.909  0.00  0.00    +0.000 C 
ATOM     23  C   UNL     1      -0.690  13.981  20.631  0.00  0.00    +0.000 C 
ATOM     24  O   UNL     1      -1.269  13.072  19.688  0.00  0.00    +0.000 OA
ENDBRANCH   3  15
TORSDOF 1
ENDMDL
MODEL 8
REMARK VINA RESULT:      -7.6      3.169      8.312
REMARK  Name = 
REMARK  1 active torsions:
REMARK  status: ('A' for Active; 'I' for Inactive)
REMARK    1  A    between atoms: N_3  and  C_4
REMARK                            x       y       z     vdW  Elec       q    Type
REMARK                         _______ _______ _______ _____ _____    ______ ____
ROOT
ATOM      1  O   UNL     1       1.173   5.880  20.869  0.00  0.00    +0.000 OA
ATOM      2  C   UNL     1       2.021   6.425  20.168  0.00  0.00    +0.000 C 
ATOM      3  N   UNL     1       2.107   7.806  20.079  0.00  0.00    +0.000 N 
ATOM      4  N   UNL     1       2.933   5.719  19.350  0.00  0.00    +0.000 N 
ATOM      5  C   UNL     1       4.143   6.346  18.782  0.00  0.00    +0.000 C 
ATOM      6  C   UNL     1       4.200   6.170  17.277  0.00  0.00    +0.000 C 
ATOM      7  S   UNL     1       4.653   4.461  16.931  0.00  0.00    +0.000 S 
ATOM      8  C   UNL     1       3.526   3.642  18.050  0.00  0.00    +0.000 A 
ATOM      9  N   UNL     1       3.416   2.317  17.754  0.00  0.00    +0.000 NA
ATOM     10  C   UNL     1       2.537   1.584  18.459  0.00  0.00    +0.000 A 
ATOM     11  C   UNL     1       1.757   2.110  19.461  0.00  0.00    +0.000 A 
ATOM     12  C   UNL     1       1.894   3.464  19.767  0.00  0.00    +0.000 A 
ATOM     13  C   UNL     1       2.791   4.289  19.070  0.00  0.00    +0.000 A 
ATOM     14  H   UNL     1       2.522   8.180  19.242  0.00  0.00    +0.000 HD
ENDROOT
BRANCH   3  15
ATOM     15  C   UNL     1       1.314   8.741  20.793  0.00  0.00    +0.000 A 
ATOM     16  C   UNL     1       1.110   8.694  22.175  0.00  0.00    +0.000 A 
ATOM     17  C   UNL     1       0.241   9.592  22.803  0.00  0.00    +0.000 A 
ATOM     18  C   UNL     1      -0.417  10.558  22.051  0.00  0.00    +0.000 A 
ATOM     19  C   UNL     1      -0.171  10.659  20.681  0.00  0.00    +0.000 A 
ATOM     20  C   UNL     1       0.687   9.752  20.053  0.00  0.00    +0.000 A 
ATOM     21  O   UNL     1      -0.757  11.608  19.880  0.00  0.00    +0.000 OA
ATOM     22  C   UNL     1      -1.365  12.646  20.659  0.00  0.00    +0.000 C 
ATOM     23  C   UNL     1      -2.156  12.063  21.819  0.00  0.00    +0.000 C 
ATOM     24  O   UNL     1      -1.287  11.375  22.724  0.00  0.00    +0.000 OA
ENDBRANCH   3  15
TORSDOF 1
ENDMDL
MODEL 9
REMARK VINA RESULT:      -7.5      3.271      8.192
REMARK  Name = 
REMARK  1 active torsions:
REMARK  status: ('A' for Active; 'I' for Inactive)
REMARK    1  A    between atoms: N_3  and  C_4
REMARK                            x       y       z     vdW  Elec       q    Type
REMARK                         _______ _______ _______ _____ _____    ______ ____
ROOT
ATOM      1  O   UNL     1       1.469   6.070  20.026  0.00  0.00    +0.000 OA
ATOM      2  C   UNL     1       2.323   6.545  19.283  0.00  0.00    +0.000 C 
ATOM      3  N   UNL     1       2.315   7.889  18.939  0.00  0.00    +0.000 N 
ATOM      4  N   UNL     1       3.339   5.780  18.665  0.00  0.00    +0.000 N 
ATOM      5  C   UNL     1       4.538   6.391  18.057  0.00  0.00    +0.000 C 
ATOM      6  C   UNL     1       4.712   5.945  16.618  0.00  0.00    +0.000 C 
ATOM      7  S   UNL     1       5.311   4.247  16.627  0.00  0.00    +0.000 S 
ATOM      8  C   UNL     1       4.170   3.556  17.816  0.00  0.00    +0.000 A 
ATOM      9  N   UNL     1       4.177   2.195  17.772  0.00  0.00    +0.000 NA
ATOM     10  C   UNL     1       3.306   1.533  18.553  0.00  0.00    +0.000 A 
ATOM     11  C   UNL     1       2.421   2.167  19.393  0.00  0.00    +0.000 A 
ATOM     12  C   UNL     1       2.439   3.561  19.444  0.00  0.00    +0.000 A 
ATOM     13  C   UNL     1       3.320   4.317  18.654  0.00  0.00    +0.000 A 
ATOM     14  H   UNL     1       2.760   8.135  18.070  0.00  0.00    +0.000 HD
ENDROOT
BRANCH   3  15
ATOM     15  C   UNL     1       1.408   8.869  19.417  0.00  0.00    +0.000 A 
ATOM     16  C   UNL     1       0.727   9.769  18.591  0.00  0.00    +0.000 A 
ATOM     17  C   UNL     1      -0.082  10.771  19.136  0.00  0.00    +0.000 A 
ATOM     18  C   UNL     1      -0.231  10.868  20.513  0.00  0.00    +0.000 A 
ATOM     19  C   UNL     1       0.389   9.934  21.346  0.00  0.00    +0.000 A 
ATOM     20  C   UNL     1       1.208   8.942  20.802  0.00  0.00    +0.000 A 
ATOM     21  O   UNL     1       0.261   9.945  22.713  0.00  0.00    +0.000 OA
ATOM     22  C   UNL     1      -0.816  10.794  23.130  0.00  0.00    +0.000 C 
ATOM     23  C   UNL     1      -0.790  12.115  22.378  0.00  0.00    +0.000 C 
ATOM     24  O   UNL     1      -1.002  11.899  20.979  0.00  0.00    +0.000 OA
ENDBRANCH   3  15
TORSDOF 1
ENDMDL
