MODEL 1
REMARK VINA RESULT:      -7.6      0.000      0.000
REMARK  Name = 
REMARK  7 active torsions:
REMARK  status: ('A' for Active; 'I' for Inactive)
REMARK    1  A    between atoms: C_1  and  C_2
REMARK    2  A    between atoms: C_5  and  N_6
REMARK    3  A    between atoms: C_13  and  C_14
REMARK    4  A    between atoms: N_16  and  C_17
REMARK    5  A    between atoms: C_18  and  C_19
REMARK    6  A    between atoms: C_21  and  C_22
REMARK    7  A    between atoms: C_24  and  C_25
REMARK                            x       y       z     vdW  Elec       q    Type
REMARK                         _______ _______ _______ _____ _____    ______ ____
ROOT
ATOM      1  N   UNL     1       1.785   7.683  20.538  0.00  0.00    +0.000 N 
ATOM      2  C   UNL     1       1.046   8.802  20.242  0.00  0.00    +0.000 C 
ATOM      3  O   UNL     1       0.798   9.194  19.105  0.00  0.00    +0.000 OA
ATOM      4  N   UNL     1       0.597   9.540  21.306  0.00  0.00    +0.000 N 
ATOM      5  C   UNL     1       0.774   9.340  22.732  0.00  0.00    +0.000 C 
ATOM      6  C   UNL     1      -0.534   9.849  23.309  0.00  0.00    +0.000 C 
ATOM      7  C   UNL     1      -0.915  11.020  22.407  0.00  0.00    +0.000 C 
ATOM      8  C   UNL     1      -0.189  10.761  21.077  0.00  0.00    +0.000 C 
ATOM      9  H   UNL     1       1.776   7.361  21.491  0.00  0.00    +0.000 HD
ENDROOT
BRANCH   1  14
ATOM     10  C   UNL     1       4.172   4.078  16.766  0.00  0.00    +0.000 C 
ATOM     11  C   UNL     1       3.569   5.032  17.752  0.00  0.00    +0.000 A 
ATOM     12  C   UNL     1       3.714   6.410  17.589  0.00  0.00    +0.000 A 
ATOM     13  C   UNL     1       3.143   7.296  18.506  0.00  0.00    +0.000 A 
ATOM     14  C   UNL     1       2.412   6.829  19.599  0.00  0.00    +0.000 A 
ATOM     15  C   UNL     1       2.292   5.447  19.782  0.00  0.00    +0.000 A 
ATOM     16  C   UNL     1       2.861   4.557  18.861  0.00  0.00    +0.000 A 
ENDBRANCH   1  14
BRANCH   8  17
ATOM     17  C   UNL     1       0.684  11.982  20.690  0.00  0.00    +0.000 C 
ATOM     18  O   UNL     1       1.463  12.498  21.493  0.00  0.00    +0.000 OA
ATOM     19  N   UNL     1       0.386  12.528  19.447  0.00  0.00    +0.000 N 
ATOM     20  H   UNL     1      -0.582  12.378  19.164  0.00  0.00    +0.000 HD
BRANCH  19  21
ATOM     21  C   UNL     1       1.040  13.666  18.934  0.00  0.00    +0.000 A 
ATOM     22  C   UNL     1       2.254  13.563  18.225  0.00  0.00    +0.000 A 
ATOM     23  C   UNL     1       2.889  12.255  17.836  0.00  0.00    +0.000 C 
ATOM     24  C   UNL     1       2.903  14.736  17.809  0.00  0.00    +0.000 A 
ATOM     25  C   UNL     1       2.344  15.995  18.039  0.00  0.00    +0.000 A 
ATOM     26  C   UNL     1       3.058  17.244  17.613  0.00  0.00    +0.000 C 
ATOM     27  C   UNL     1       1.104  16.079  18.681  0.00  0.00    +0.000 A 
ATOM     28  C   UNL     1       0.437  14.926  19.124  0.00  0.00    +0.000 A 
ATOM     29  C   UNL     1      -0.874  15.084  19.846  0.00  0.00    +0.000 C 
ENDBRANCH  19  21
ENDBRANCH   8  17
TORSDOF 3
ENDMDL
MODEL 2
REMARK VINA RESULT:      -7.6      0.192      1.687
REMARK  Name = 
REMARK  7 active torsions:
REMARK  status: ('A' for Active; 'I' for Inactive)
REMARK    1  A    between atoms: C_1  and  C_2
REMARK    2  A    between atoms: C_5  and  N_6
REMARK    3  A    between atoms: C_13  and  C_14
REMARK    4  A    between atoms: N_16  and  C_17
REMARK    5  A    between atoms: C_18  and  C_19
REMARK    6  A    between atoms: C_21  and  C_22
REMARK    7  A    between atoms: C_24  and  C_25
REMARK                            x       y       z     vdW  Elec       q    Type
REMARK                         _______ _______ _______ _____ _____    ______ ____
ROOT
ATOM      1  N   UNL     1       1.858   7.733  20.415  0.00  0.00    +0.000 N 
ATOM      2  C   UNL     1       1.097   8.844  20.147  0.00  0.00    +0.000 C 
ATOM      3  O   UNL     1       0.849   9.266  19.020  0.00  0.00    +0.000 OA
ATOM      4  N   UNL     1       0.624   9.540  21.229  0.00  0.00    +0.000 N 
ATOM      5  C   UNL     1       0.794   9.301  22.650  0.00  0.00    +0.000 C 
ATOM      6  C   UNL     1      -0.529   9.762  23.231  0.00  0.00    +0.000 C 
ATOM      7  C   UNL     1      -0.929  10.952  22.362  0.00  0.00    +0.000 C 
ATOM      8  C   UNL     1      -0.188  10.750  21.030  0.00  0.00    +0.000 C 
ATOM      9  H   UNL     1       1.848   7.382  21.357  0.00  0.00    +0.000 HD
ENDROOT
BRANCH   1  14
ATOM     10  C   UNL     1       4.348   4.301  16.549  0.00  0.00    +0.000 C 
ATOM     11  C   UNL     1       3.718   5.211  17.561  0.00  0.00    +0.000 A 
ATOM     12  C   UNL     1       3.870   6.593  17.467  0.00  0.00    +0.000 A 
ATOM     13  C   UNL     1       3.274   7.438  18.407  0.00  0.00    +0.000 A 
ATOM     14  C   UNL     1       2.510   6.923  19.455  0.00  0.00    +0.000 A 
ATOM     15  C   UNL     1       2.383   5.534  19.570  0.00  0.00    +0.000 A 
ATOM     16  C   UNL     1       2.977   4.686  18.625  0.00  0.00    +0.000 A 
ENDBRANCH   1  14
BRANCH   8  17
ATOM     17  C   UNL     1       0.662  12.001  20.688  0.00  0.00    +0.000 C 
ATOM     18  O   UNL     1       1.412  12.517  21.517  0.00  0.00    +0.000 OA
ATOM     19  N   UNL     1       0.374  12.568  19.452  0.00  0.00    +0.000 N 
ATOM     20  H   UNL     1      -0.586  12.401  19.148  0.00  0.00    +0.000 HD
BRANCH  19  21
ATOM     21  C   UNL     1       1.007  13.733  18.979  0.00  0.00    +0.000 A 
ATOM     22  C   UNL     1       0.480  15.016  19.234  0.00  0.00    +0.000 A 
ATOM     23  C   UNL     1      -0.704  15.273  20.127  0.00  0.00    +0.000 C 
ATOM     24  C   UNL     1       1.109  16.137  18.669  0.00  0.00    +0.000 A 
ATOM     25  C   UNL     1       2.270  16.009  17.903  0.00  0.00    +0.000 A 
ATOM     26  C   UNL     1       2.918  17.210  17.282  0.00  0.00    +0.000 C 
ATOM     27  C   UNL     1       2.821  14.738  17.717  0.00  0.00    +0.000 A 
ATOM     28  C   UNL     1       2.210  13.595  18.255  0.00  0.00    +0.000 A 
ATOM     29  C   UNL     1       2.829  12.250  17.985  0.00  0.00    +0.000 C 
ENDBRANCH  19  21
ENDBRANCH   8  17
TORSDOF 3
ENDMDL
MODEL 3
REMARK VINA RESULT:      -7.5      3.169      4.959
REMARK  Name = 
REMARK  7 active torsions:
REMARK  status: ('A' for Active; 'I' for Inactive)
REMARK    1  A    between atoms: C_1  and  C_2
REMARK    2  A    between atoms: C_5  and  N_6
REMARK    3  A    between atoms: C_13  and  C_14
REMARK    4  A    between atoms: N_16  and  C_17
REMARK    5  A    between atoms: C_18  and  C_19
REMARK    6  A    between atoms: C_21  and  C_22
REMARK    7  A    between atoms: C_24  and  C_25
REMARK                            x       y       z     vdW  Elec       q    Type
REMARK                         _______ _______ _______ _____ _____    ______ ____
ROOT
ATOM      1  N   UNL     1       2.443   7.660  18.431  0.00  0.00    +0.000 N 
ATOM      2  C   UNL     1       1.839   8.498  19.336  0.00  0.00    +0.000 C 
ATOM      3  O   UNL     1       1.403   8.148  20.430  0.00  0.00    +0.000 OA
ATOM      4  N   UNL     1       1.685   9.806  18.954  0.00  0.00    +0.000 N 
ATOM      5  C   UNL     1       2.059  10.477  17.724  0.00  0.00    +0.000 C 
ATOM      6  C   UNL     1       2.440  11.867  18.200  0.00  0.00    +0.000 C 
ATOM      7  C   UNL     1       1.479  12.148  19.352  0.00  0.00    +0.000 C 
ATOM      8  C   UNL     1       1.035  10.766  19.858  0.00  0.00    +0.000 C 
ATOM      9  H   UNL     1       2.916   8.085  17.651  0.00  0.00    +0.000 HD
ENDROOT
BRANCH   1  14
ATOM     10  C   UNL     1       3.113   1.978  18.857  0.00  0.00    +0.000 C 
ATOM     11  C   UNL     1       2.939   3.464  18.769  0.00  0.00    +0.000 A 
ATOM     12  C   UNL     1       3.768   4.320  19.493  0.00  0.00    +0.000 A 
ATOM     13  C   UNL     1       3.609   5.706  19.403  0.00  0.00    +0.000 A 
ATOM     14  C   UNL     1       2.626   6.265  18.585  0.00  0.00    +0.000 A 
ATOM     15  C   UNL     1       1.772   5.408  17.883  0.00  0.00    +0.000 A 
ATOM     16  C   UNL     1       1.933   4.017  17.970  0.00  0.00    +0.000 A 
ENDBRANCH   1  14
BRANCH   8  17
ATOM     17  C   UNL     1      -0.511  10.657  19.850  0.00  0.00    +0.000 C 
ATOM     18  O   UNL     1      -1.099   9.786  20.492  0.00  0.00    +0.000 OA
ATOM     19  N   UNL     1      -1.140  11.499  18.940  0.00  0.00    +0.000 N 
ATOM     20  H   UNL     1      -0.557  11.725  18.134  0.00  0.00    +0.000 HD
BRANCH  19  21
ATOM     21  C   UNL     1      -2.535  11.517  18.753  0.00  0.00    +0.000 A 
ATOM     22  C   UNL     1      -3.380  12.296  19.570  0.00  0.00    +0.000 A 
ATOM     23  C   UNL     1      -2.880  13.264  20.609  0.00  0.00    +0.000 C 
ATOM     24  C   UNL     1      -4.770  12.213  19.391  0.00  0.00    +0.000 A 
ATOM     25  C   UNL     1      -5.326  11.415  18.389  0.00  0.00    +0.000 A 
ATOM     26  C   UNL     1      -6.813  11.313  18.223  0.00  0.00    +0.000 C 
ATOM     27  C   UNL     1      -4.474  10.703  17.540  0.00  0.00    +0.000 A 
ATOM     28  C   UNL     1      -3.080  10.752  17.701  0.00  0.00    +0.000 A 
ATOM     29  C   UNL     1      -2.218   9.929  16.782  0.00  0.00    +0.000 C 
ENDBRANCH  19  21
ENDBRANCH   8  17
TORSDOF 3
ENDMDL
MODEL 4
REMARK VINA RESULT:      -7.5      5.763      9.890
REMARK  Name = 
REMARK  7 active torsions:
REMARK  status: ('A' for Active; 'I' for Inactive)
REMARK    1  A    between atoms: C_1  and  C_2
REMARK    2  A    between atoms: C_5  and  N_6
REMARK    3  A    between atoms: C_13  and  C_14
REMARK    4  A    between atoms: N_16  and  C_17
REMARK    5  A    between atoms: C_18  and  C_19
REMARK    6  A    between atoms: C_21  and  C_22
REMARK    7  A    between atoms: C_24  and  C_25
REMARK                            x       y       z     vdW  Elec       q    Type
REMARK                         _______ _______ _______ _____ _____    ______ ____
ROOT
ATOM      1  N   UNL     1       7.934   7.913  17.200  0.00  0.00    +0.000 N 
ATOM      2  C   UNL     1       6.657   7.416  17.115  0.00  0.00    +0.000 C 
ATOM      3  O   UNL     1       5.658   7.977  17.559  0.00  0.00    +0.000 OA
ATOM      4  N   UNL     1       6.514   6.187  16.525  0.00  0.00    +0.000 N 
ATOM      5  C   UNL     1       7.507   5.293  15.960  0.00  0.00    +0.000 C 
ATOM      6  C   UNL     1       6.766   4.652  14.802  0.00  0.00    +0.000 C 
ATOM      7  C   UNL     1       5.329   4.517  15.303  0.00  0.00    +0.000 C 
ATOM      8  C   UNL     1       5.182   5.576  16.407  0.00  0.00    +0.000 C 
ATOM      9  H   UNL     1       8.645   7.459  16.652  0.00  0.00    +0.000 HD
ENDROOT
BRANCH   1  14
ATOM     10  C   UNL     1       9.643  12.688  19.883  0.00  0.00    +0.000 C 
ATOM     11  C   UNL     1       9.175  11.450  19.178  0.00  0.00    +0.000 A 
ATOM     12  C   UNL     1       8.513  11.537  17.954  0.00  0.00    +0.000 A 
ATOM     13  C   UNL     1       8.086  10.382  17.296  0.00  0.00    +0.000 A 
ATOM     14  C   UNL     1       8.315   9.116  17.840  0.00  0.00    +0.000 A 
ATOM     15  C   UNL     1       8.951   9.029  19.083  0.00  0.00    +0.000 A 
ATOM     16  C   UNL     1       9.384  10.188  19.743  0.00  0.00    +0.000 A 
ENDBRANCH   1  14
BRANCH   8  17
ATOM     17  C   UNL     1       4.696   4.920  17.725  0.00  0.00    +0.000 C 
ATOM     18  O   UNL     1       5.485   4.399  18.515  0.00  0.00    +0.000 OA
ATOM     19  N   UNL     1       3.314   4.826  17.842  0.00  0.00    +0.000 N 
ATOM     20  H   UNL     1       2.838   4.771  16.942  0.00  0.00    +0.000 HD
BRANCH  19  21
ATOM     21  C   UNL     1       2.679   4.224  18.946  0.00  0.00    +0.000 A 
ATOM     22  C   UNL     1       2.242   4.983  20.050  0.00  0.00    +0.000 A 
ATOM     23  C   UNL     1       2.285   6.487  20.104  0.00  0.00    +0.000 C 
ATOM     24  C   UNL     1       1.690   4.321  21.159  0.00  0.00    +0.000 A 
ATOM     25  C   UNL     1       1.520   2.935  21.164  0.00  0.00    +0.000 A 
ATOM     26  C   UNL     1       0.953   2.235  22.363  0.00  0.00    +0.000 C 
ATOM     27  C   UNL     1       1.892   2.202  20.034  0.00  0.00    +0.000 A 
ATOM     28  C   UNL     1       2.462   2.831  18.916  0.00  0.00    +0.000 A 
ATOM     29  C   UNL     1       2.881   1.982  17.745  0.00  0.00    +0.000 C 
ENDBRANCH  19  21
ENDBRANCH   8  17
TORSDOF 3
ENDMDL
MODEL 5
REMARK VINA RESULT:      -7.4      3.186      4.736
REMARK  Name = 
REMARK  7 active torsions:
REMARK  status: ('A' for Active; 'I' for Inactive)
REMARK    1  A    between atoms: C_1  and  C_2
REMARK    2  A    between atoms: C_5  and  N_6
REMARK    3  A    between atoms: C_13  and  C_14
REMARK    4  A    between atoms: N_16  and  C_17
REMARK    5  A    between atoms: C_18  and  C_19
REMARK    6  A    between atoms: C_21  and  C_22
REMARK    7  A    between atoms: C_24  and  C_25
REMARK                            x       y       z     vdW  Elec       q    Type
REMARK                         _______ _______ _______ _____ _____    ______ ____
ROOT
ATOM      1  N   UNL     1       2.514   7.717  18.283  0.00  0.00    +0.000 N 
ATOM      2  C   UNL     1       1.870   8.506  19.204  0.00  0.00    +0.000 C 
ATOM      3  O   UNL     1       1.412   8.103  20.270  0.00  0.00    +0.000 OA
ATOM      4  N   UNL     1       1.701   9.825  18.872  0.00  0.00    +0.000 N 
ATOM      5  C   UNL     1       2.095  10.554  17.681  0.00  0.00    +0.000 C 
ATOM      6  C   UNL     1       2.435  11.929  18.223  0.00  0.00    +0.000 C 
ATOM      7  C   UNL     1       1.438  12.145  19.359  0.00  0.00    +0.000 C 
ATOM      8  C   UNL     1       1.008  10.735  19.796  0.00  0.00    +0.000 C 
ATOM      9  H   UNL     1       2.999   8.182  17.534  0.00  0.00    +0.000 HD
ENDROOT
BRANCH   1  14
ATOM     10  C   UNL     1       3.456   2.089  18.877  0.00  0.00    +0.000 C 
ATOM     11  C   UNL     1       3.204   3.556  18.699  0.00  0.00    +0.000 A 
ATOM     12  C   UNL     1       2.063   4.006  18.036  0.00  0.00    +0.000 A 
ATOM     13  C   UNL     1       1.827   5.374  17.879  0.00  0.00    +0.000 A 
ATOM     14  C   UNL     1       2.720   6.321  18.384  0.00  0.00    +0.000 A 
ATOM     15  C   UNL     1       3.882   5.871  19.021  0.00  0.00    +0.000 A 
ATOM     16  C   UNL     1       4.117   4.498  19.183  0.00  0.00    +0.000 A 
ENDBRANCH   1  14
BRANCH   8  17
ATOM     17  C   UNL     1      -0.535  10.598  19.741  0.00  0.00    +0.000 C 
ATOM     18  O   UNL     1      -1.119   9.664  20.293  0.00  0.00    +0.000 OA
ATOM     19  N   UNL     1      -1.160  11.502  18.891  0.00  0.00    +0.000 N 
ATOM     20  H   UNL     1      -0.564  11.807  18.122  0.00  0.00    +0.000 HD
BRANCH  19  21
ATOM     21  C   UNL     1      -2.551  11.510  18.672  0.00  0.00    +0.000 A 
ATOM     22  C   UNL     1      -3.134  10.795  17.606  0.00  0.00    +0.000 A 
ATOM     23  C   UNL     1      -2.369   9.867  16.701  0.00  0.00    +0.000 C 
ATOM     24  C   UNL     1      -4.517  10.904  17.386  0.00  0.00    +0.000 A 
ATOM     25  C   UNL     1      -5.328  11.666  18.230  0.00  0.00    +0.000 A 
ATOM     26  C   UNL     1      -6.799  11.798  17.971  0.00  0.00    +0.000 C 
ATOM     27  C   UNL     1      -4.747  12.313  19.325  0.00  0.00    +0.000 A 
ATOM     28  C   UNL     1      -3.366  12.237  19.565  0.00  0.00    +0.000 A 
ATOM     29  C   UNL     1      -2.794  12.990  20.735  0.00  0.00    +0.000 C 
ENDBRANCH  19  21
ENDBRANCH   8  17
TORSDOF 3
ENDMDL
MODEL 6
REMARK VINA RESULT:      -7.3      3.213      4.980
REMARK  Name = 
REMARK  7 active torsions:
REMARK  status: ('A' for Active; 'I' for Inactive)
REMARK    1  A    between atoms: C_1  and  C_2
REMARK    2  A    between atoms: C_5  and  N_6
REMARK    3  A    between atoms: C_13  and  C_14
REMARK    4  A    between atoms: N_16  and  C_17
REMARK    5  A    between atoms: C_18  and  C_19
REMARK    6  A    between atoms: C_21  and  C_22
REMARK    7  A    between atoms: C_24  and  C_25
REMARK                            x       y       z     vdW  Elec       q    Type
REMARK                         _______ _______ _______ _____ _____    ______ ____
ROOT
ATOM      1  N   UNL     1       2.188   8.945  18.743  0.00  0.00    +0.000 N 
ATOM      2  C   UNL     1       1.388   9.911  19.303  0.00  0.00    +0.000 C 
ATOM      3  O   UNL     1       0.503   9.695  20.127  0.00  0.00    +0.000 OA
ATOM      4  N   UNL     1       1.581  11.196  18.866  0.00  0.00    +0.000 N 
ATOM      5  C   UNL     1       2.509  11.728  17.886  0.00  0.00    +0.000 C 
ATOM      6  C   UNL     1       2.848  13.095  18.448  0.00  0.00    +0.000 C 
ATOM      7  C   UNL     1       1.550  13.570  19.097  0.00  0.00    +0.000 C 
ATOM      8  C   UNL     1       0.757  12.289  19.403  0.00  0.00    +0.000 C 
ATOM      9  H   UNL     1       2.988   9.253  18.219  0.00  0.00    +0.000 HD
ENDROOT
BRANCH   1  14
ATOM     10  C   UNL     1       1.970   3.270  19.565  0.00  0.00    +0.000 C 
ATOM     11  C   UNL     1       2.008   4.756  19.364  0.00  0.00    +0.000 A 
ATOM     12  C   UNL     1       1.849   5.623  20.444  0.00  0.00    +0.000 A 
ATOM     13  C   UNL     1       1.893   7.007  20.254  0.00  0.00    +0.000 A 
ATOM     14  C   UNL     1       2.102   7.553  18.986  0.00  0.00    +0.000 A 
ATOM     15  C   UNL     1       2.229   6.685  17.897  0.00  0.00    +0.000 A 
ATOM     16  C   UNL     1       2.189   5.296  18.086  0.00  0.00    +0.000 A 
ENDBRANCH   1  14
BRANCH   8  17
ATOM     17  C   UNL     1      -0.653  12.358  18.761  0.00  0.00    +0.000 C 
ATOM     18  O   UNL     1      -0.868  13.030  17.751  0.00  0.00    +0.000 OA
ATOM     19  N   UNL     1      -1.653  11.751  19.510  0.00  0.00    +0.000 N 
ATOM     20  H   UNL     1      -1.457  11.744  20.511  0.00  0.00    +0.000 HD
BRANCH  19  21
ATOM     21  C   UNL     1      -3.006  11.745  19.117  0.00  0.00    +0.000 A 
ATOM     22  C   UNL     1      -3.470  10.907  18.082  0.00  0.00    +0.000 A 
ATOM     23  C   UNL     1      -2.621   9.866  17.402  0.00  0.00    +0.000 C 
ATOM     24  C   UNL     1      -4.811  11.002  17.676  0.00  0.00    +0.000 A 
ATOM     25  C   UNL     1      -5.701  11.870  18.312  0.00  0.00    +0.000 A 
ATOM     26  C   UNL     1      -7.125  11.983  17.854  0.00  0.00    +0.000 C 
ATOM     27  C   UNL     1      -5.245  12.643  19.383  0.00  0.00    +0.000 A 
ATOM     28  C   UNL     1      -3.907  12.585  19.804  0.00  0.00    +0.000 A 
ATOM     29  C   UNL     1      -3.466  13.473  20.936  0.00  0.00    +0.000 C 
ENDBRANCH  19  21
ENDBRANCH   8  17
TORSDOF 3
ENDMDL
MODEL 7
REMARK VINA RESULT:      -7.2      3.523      8.590
REMARK  Name = 
REMARK  7 active torsions:
REMARK  status: ('A' for Active; 'I' for Inactive)
REMARK    1  A    between atoms: C_1  and  C_2
REMARK    2  A    between atoms: C_5  and  N_6
REMARK    3  A    between atoms: C_13  and  C_14
REMARK    4  A    between atoms: N_16  and  C_17
REMARK    5  A    between atoms: C_18  and  C_19
REMARK    6  A    between atoms: C_21  and  C_22
REMARK    7  A    between atoms: C_24  and  C_25
REMARK                            x       y       z     vdW  Elec       q    Type
REMARK                         _______ _______ _______ _____ _____    ______ ____
ROOT
ATOM      1  N   UNL     1       0.207   7.417  21.096  0.00  0.00    +0.000 N 
ATOM      2  C   UNL     1       1.490   6.941  20.984  0.00  0.00    +0.000 C 
ATOM      3  O   UNL     1       2.503   7.625  21.105  0.00  0.00    +0.000 OA
ATOM      4  N   UNL     1       1.627   5.612  20.675  0.00  0.00    +0.000 N 
ATOM      5  C   UNL     1       0.623   4.593  20.437  0.00  0.00    +0.000 C 
ATOM      6  C   UNL     1       1.271   3.342  21.000  0.00  0.00    +0.000 C 
ATOM      7  C   UNL     1       2.755   3.511  20.684  0.00  0.00    +0.000 C 
ATOM      8  C   UNL     1       2.966   5.025  20.522  0.00  0.00    +0.000 C 
ATOM      9  H   UNL     1      -0.535   6.740  21.153  0.00  0.00    +0.000 HD
ENDROOT
BRANCH   1  14
ATOM     10  C   UNL     1      -1.201  12.865  22.219  0.00  0.00    +0.000 C 
ATOM     11  C   UNL     1      -0.848  11.441  21.907  0.00  0.00    +0.000 A 
ATOM     12  C   UNL     1      -0.580  11.046  20.597  0.00  0.00    +0.000 A 
ATOM     13  C   UNL     1      -0.243   9.721  20.311  0.00  0.00    +0.000 A 
ATOM     14  C   UNL     1      -0.161   8.764  21.325  0.00  0.00    +0.000 A 
ATOM     15  C   UNL     1      -0.462   9.151  22.635  0.00  0.00    +0.000 A 
ATOM     16  C   UNL     1      -0.795  10.482  22.924  0.00  0.00    +0.000 A 
ENDBRANCH   1  14
BRANCH   8  17
ATOM     17  C   UNL     1       3.613   5.337  19.149  0.00  0.00    +0.000 C 
ATOM     18  O   UNL     1       3.097   6.129  18.358  0.00  0.00    +0.000 OA
ATOM     19  N   UNL     1       4.704   4.535  18.834  0.00  0.00    +0.000 N 
ATOM     20  H   UNL     1       4.668   3.618  19.277  0.00  0.00    +0.000 HD
BRANCH  19  21
ATOM     21  C   UNL     1       5.400   4.636  17.614  0.00  0.00    +0.000 A 
ATOM     22  C   UNL     1       6.604   5.363  17.509  0.00  0.00    +0.000 A 
ATOM     23  C   UNL     1       7.318   5.975  18.684  0.00  0.00    +0.000 C 
ATOM     24  C   UNL     1       7.212   5.499  16.251  0.00  0.00    +0.000 A 
ATOM     25  C   UNL     1       6.676   4.886  15.116  0.00  0.00    +0.000 A 
ATOM     26  C   UNL     1       7.319   5.058  13.772  0.00  0.00    +0.000 C 
ATOM     27  C   UNL     1       5.521   4.109  15.248  0.00  0.00    +0.000 A 
ATOM     28  C   UNL     1       4.879   3.966  16.487  0.00  0.00    +0.000 A 
ATOM     29  C   UNL     1       3.616   3.151  16.556  0.00  0.00    +0.000 C 
ENDBRANCH  19  21
ENDBRANCH   8  17
TORSDOF 3
ENDMDL
MODEL 8
REMARK VINA RESULT:      -7.1      5.840      9.866
REMARK  Name = 
REMARK  7 active torsions:
REMARK  status: ('A' for Active; 'I' for Inactive)
REMARK    1  A    between atoms: C_1  and  C_2
REMARK    2  A    between atoms: C_5  and  N_6
REMARK    3  A    between atoms: C_13  and  C_14
REMARK    4  A    between atoms: N_16  and  C_17
REMARK    5  A    between atoms: C_18  and  C_19
REMARK    6  A    between atoms: C_21  and  C_22
REMARK    7  A    between atoms: C_24  and  C_25
REMARK                            x       y       z     vdW  Elec       q    Type
REMARK                         _______ _______ _______ _____ _____    ______ ____
ROOT
ATOM      1  N   UNL     1       7.936   7.921  17.172  0.00  0.00    +0.000 N 
ATOM      2  C   UNL     1       6.671   7.389  17.127  0.00  0.00    +0.000 C 
ATOM      3  O   UNL     1       5.675   7.910  17.623  0.00  0.00    +0.000 OA
ATOM      4  N   UNL     1       6.540   6.169  16.516  0.00  0.00    +0.000 N 
ATOM      5  C   UNL     1       7.534   5.317  15.892  0.00  0.00    +0.000 C 
ATOM      6  C   UNL     1       6.765   4.679  14.750  0.00  0.00    +0.000 C 
ATOM      7  C   UNL     1       5.354   4.491  15.304  0.00  0.00    +0.000 C 
ATOM      8  C   UNL     1       5.221   5.521  16.437  0.00  0.00    +0.000 C 
ATOM      9  H   UNL     1       8.636   7.500  16.586  0.00  0.00    +0.000 HD
ENDROOT
BRANCH   1  14
ATOM     10  C   UNL     1       9.610  12.684  19.899  0.00  0.00    +0.000 C 
ATOM     11  C   UNL     1       9.151  11.449  19.182  0.00  0.00    +0.000 A 
ATOM     12  C   UNL     1       8.485  11.542  17.961  0.00  0.00    +0.000 A 
ATOM     13  C   UNL     1       8.066  10.390  17.292  0.00  0.00    +0.000 A 
ATOM     14  C   UNL     1       8.308   9.121  17.823  0.00  0.00    +0.000 A 
ATOM     15  C   UNL     1       8.948   9.027  19.063  0.00  0.00    +0.000 A 
ATOM     16  C   UNL     1       9.373  10.183  19.734  0.00  0.00    +0.000 A 
ENDBRANCH   1  14
BRANCH   8  17
ATOM     17  C   UNL     1       4.808   4.824  17.758  0.00  0.00    +0.000 C 
ATOM     18  O   UNL     1       5.642   4.307  18.503  0.00  0.00    +0.000 OA
ATOM     19  N   UNL     1       3.435   4.690  17.929  0.00  0.00    +0.000 N 
ATOM     20  H   UNL     1       2.924   4.641  17.048  0.00  0.00    +0.000 HD
BRANCH  19  21
ATOM     21  C   UNL     1       2.863   4.046  19.044  0.00  0.00    +0.000 A 
ATOM     22  C   UNL     1       2.786   2.641  19.126  0.00  0.00    +0.000 A 
ATOM     23  C   UNL     1       3.411   1.707  18.124  0.00  0.00    +0.000 C 
ATOM     24  C   UNL     1       2.131   2.056  20.222  0.00  0.00    +0.000 A 
ATOM     25  C   UNL     1       1.602   2.836  21.252  0.00  0.00    +0.000 A 
ATOM     26  C   UNL     1       0.881   2.203  22.405  0.00  0.00    +0.000 C 
ATOM     27  C   UNL     1       1.748   4.225  21.192  0.00  0.00    +0.000 A 
ATOM     28  C   UNL     1       2.383   4.843  20.104  0.00  0.00    +0.000 A 
ATOM     29  C   UNL     1       2.471   6.346  20.077  0.00  0.00    +0.000 C 
ENDBRANCH  19  21
ENDBRANCH   8  17
TORSDOF 3
ENDMDL
MODEL 9
REMARK VINA RESULT:      -7.1      3.208      5.071
REMARK  Name = 
REMARK  7 active torsions:
REMARK  status: ('A' for Active; 'I' for Inactive)
REMARK    1  A    between atoms: C_1  and  C_2
REMARK    2  A    between atoms: C_5  and  N_6
REMARK    3  A    between atoms: C_13  and  C_14
REMARK    4  A    between atoms: N_16  and  C_17
REMARK    5  A    between atoms: C_18  and  C_19
REMARK    6  A    between atoms: C_21  and  C_22
REMARK    7  A    between atoms: C_24  and  C_25
REMARK                            x       y       z     vdW  Elec       q    Type
REMARK                         _______ _______ _______ _____ _____    ______ ____
ROOT
ATOM      1  N   UNL     1       2.280   7.592  19.192  0.00  0.00    +0.000 N 
ATOM      2  C   UNL     1       1.689   8.614  19.895  0.00  0.00    +0.000 C 
ATOM      3  O   UNL     1       1.252   8.514  21.038  0.00  0.00    +0.000 OA
ATOM      4  N   UNL     1       1.554   9.811  19.240  0.00  0.00    +0.000 N 
ATOM      5  C   UNL     1       1.934  10.196  17.894  0.00  0.00    +0.000 C 
ATOM      6  C   UNL     1       2.336  11.649  18.059  0.00  0.00    +0.000 C 
ATOM      7  C   UNL     1       1.381  12.187  19.123  0.00  0.00    +0.000 C 
ATOM      8  C   UNL     1       0.919  10.952  19.915  0.00  0.00    +0.000 C 
ATOM      9  H   UNL     1       2.756   7.831  18.339  0.00  0.00    +0.000 HD
ENDROOT
BRANCH   1  14
ATOM     10  C   UNL     1       3.153   2.223  21.017  0.00  0.00    +0.000 C 
ATOM     11  C   UNL     1       2.903   3.620  20.535  0.00  0.00    +0.000 A 
ATOM     12  C   UNL     1       1.745   4.303  20.905  0.00  0.00    +0.000 A 
ATOM     13  C   UNL     1       1.518   5.608  20.461  0.00  0.00    +0.000 A 
ATOM     14  C   UNL     1       2.443   6.261  19.644  0.00  0.00    +0.000 A 
ATOM     15  C   UNL     1       3.590   5.566  19.244  0.00  0.00    +0.000 A 
ATOM     16  C   UNL     1       3.820   4.258  19.693  0.00  0.00    +0.000 A 
ENDBRANCH   1  14
BRANCH   8  17
ATOM     17  C   UNL     1      -0.628  10.866  19.930  0.00  0.00    +0.000 C 
ATOM     18  O   UNL     1      -1.223  10.078  20.667  0.00  0.00    +0.000 OA
ATOM     19  N   UNL     1      -1.253  11.616  18.940  0.00  0.00    +0.000 N 
ATOM     20  H   UNL     1      -0.674  11.746  18.111  0.00  0.00    +0.000 HD
BRANCH  19  21
ATOM     21  C   UNL     1      -2.650  11.635  18.762  0.00  0.00    +0.000 A 
ATOM     22  C   UNL     1      -3.488  12.415  19.585  0.00  0.00    +0.000 A 
ATOM     23  C   UNL     1      -2.981  13.384  20.619  0.00  0.00    +0.000 C 
ATOM     24  C   UNL     1      -4.880  12.333  19.415  0.00  0.00    +0.000 A 
ATOM     25  C   UNL     1      -5.443  11.534  18.418  0.00  0.00    +0.000 A 
ATOM     26  C   UNL     1      -6.931  11.433  18.262  0.00  0.00    +0.000 C 
ATOM     27  C   UNL     1      -4.597  10.821  17.563  0.00  0.00    +0.000 A 
ATOM     28  C   UNL     1      -3.202  10.869  17.715  0.00  0.00    +0.000 A 
ATOM     29  C   UNL     1      -2.347  10.045  16.790  0.00  0.00    +0.000 C 
ENDBRANCH  19  21
ENDBRANCH   8  17
TORSDOF 3
ENDMDL
