MODEL 1
REMARK VINA RESULT:      -9.3      0.000      0.000
REMARK  Name = 
REMARK  11 active torsions:
REMARK  status: ('A' for Active; 'I' for Inactive)
REMARK    1  A    between atoms: C_1  and  C_2
REMARK    2  A    between atoms: C_2  and  C_17
REMARK    3  A    between atoms: C_3  and  C_4
REMARK    4  A    between atoms: C_4  and  O_5
REMARK    5  A    between atoms: O_5  and  C_6
REMARK    6  A    between atoms: C_18  and  C_19
REMARK    7  A    between atoms: C_19  and  N_20
REMARK    8  A    between atoms: C_24  and  C_25
REMARK    9  A    between atoms: C_25  and  O_27
REMARK   10  A    between atoms: C_30  and  C_31
REMARK   11  A    between atoms: C_30  and  C_32
REMARK                            x       y       z     vdW  Elec       q    Type
REMARK                         _______ _______ _______ _____ _____    ______ ____
ROOT
ATOM      1  C   UNL     1       3.000   5.254  18.984  0.00  0.00    +0.000 C 
ATOM      2  C   UNL     1       4.244   4.767  19.139  0.00  0.00    +0.000 C 
ATOM      3  C   UNL     1       3.926   3.360  19.352  0.00  0.00    +0.000 C 
ATOM      4  O   UNL     1       4.667   2.585  19.940  0.00  0.00    +0.000 OA
ATOM      5  C   UNL     1       2.538   3.032  18.868  0.00  0.00    +0.000 C 
ATOM      6  C   UNL     1       1.842   2.113  19.865  0.00  0.00    +0.000 C 
ATOM      7  C   UNL     1       2.566   2.434  17.467  0.00  0.00    +0.000 C 
ATOM      8  O   UNL     1       1.940   4.346  18.868  0.00  0.00    +0.000 OA
ENDROOT
BRANCH   1  10
ATOM      9  C   UNL     1       2.003   7.152  20.318  0.00  0.00    +0.000 C 
ATOM     10  C   UNL     1       2.610   6.654  19.031  0.00  0.00    +0.000 C 
ATOM     11  C   UNL     1       2.780   7.450  17.961  0.00  0.00    +0.000 C 
BRANCH  11  12
ATOM     12  C   UNL     1       2.465   8.907  17.892  0.00  0.00    +0.000 C 
BRANCH  12  13
ATOM     13  O   UNL     1       1.091   9.050  17.535  0.00  0.00    +0.000 OA
BRANCH  13  14
ATOM     14  C   UNL     1       0.427   9.987  18.279  0.00  0.00    +0.000 A 
ATOM     15  C   UNL     1      -0.950  10.091  18.068  0.00  0.00    +0.000 A 
ATOM     16  C   UNL     1      -1.706  11.040  18.771  0.00  0.00    +0.000 A 
ATOM     17  C   UNL     1      -1.085  11.892  19.682  0.00  0.00    +0.000 A 
ATOM     18  C   UNL     1      -1.799  12.909  20.435  0.00  0.00    +0.000 A 
ATOM     19  C   UNL     1      -1.134  13.681  21.302  0.00  0.00    +0.000 A 
ATOM     20  C   UNL     1       0.316  13.538  21.540  0.00  0.00    +0.000 A 
ATOM     21  O   UNL     1       0.886  14.243  22.373  0.00  0.00    +0.000 OA
ATOM     22  O   UNL     1       0.981  12.591  20.785  0.00  0.00    +0.000 OA
ATOM     23  C   UNL     1       0.296  11.778  19.869  0.00  0.00    +0.000 A 
ATOM     24  C   UNL     1       1.052  10.844  19.176  0.00  0.00    +0.000 A 
ENDBRANCH  13  14
ENDBRANCH  12  13
ENDBRANCH  11  12
ENDBRANCH   1  10
BRANCH   2  25
ATOM     25  C   UNL     1       5.556   5.431  19.417  0.00  0.00    +0.000 C 
BRANCH  25  26
ATOM     26  N   UNL     1       6.721   5.337  18.503  0.00  0.00    +0.000 NA
ATOM     27  C   UNL     1       7.973   5.888  19.033  0.00  0.00    +0.000 C 
ATOM     28  C   UNL     1       8.051   7.299  18.493  0.00  0.00    +0.000 C 
ATOM     29  C   UNL     1       7.501   7.142  17.088  0.00  0.00    +0.000 C 
ATOM     30  C   UNL     1       6.505   5.978  17.169  0.00  0.00    +0.000 C 
BRANCH  30  31
ATOM     31  C   UNL     1       6.790   4.973  16.033  0.00  0.00    +0.000 C 
ATOM     32  O   UNL     1       7.448   5.224  15.041  0.00  0.00    +0.000 OA
BRANCH  31  33
ATOM     33  O   UNL     1       6.239   3.746  16.254  0.00  0.00    +0.000 OA
ATOM     34  H   UNL     1       5.261   3.860  16.233  0.00  0.00    +0.000 HD
ENDBRANCH  31  33
ENDBRANCH  30  31
ENDBRANCH  25  26
ENDBRANCH   2  25
TORSDOF 8
ENDMDL
MODEL 2
REMARK VINA RESULT:      -9.2      1.961      2.418
REMARK  Name = 
REMARK  11 active torsions:
REMARK  status: ('A' for Active; 'I' for Inactive)
REMARK    1  A    between atoms: C_1  and  C_2
REMARK    2  A    between atoms: C_2  and  C_17
REMARK    3  A    between atoms: C_3  and  C_4
REMARK    4  A    between atoms: C_4  and  O_5
REMARK    5  A    between atoms: O_5  and  C_6
REMARK    6  A    between atoms: C_18  and  C_19
REMARK    7  A    between atoms: C_19  and  N_20
REMARK    8  A    between atoms: C_24  and  C_25
REMARK    9  A    between atoms: C_25  and  O_27
REMARK   10  A    between atoms: C_30  and  C_31
REMARK   11  A    between atoms: C_30  and  C_32
REMARK                            x       y       z     vdW  Elec       q    Type
REMARK                         _______ _______ _______ _____ _____    ______ ____
ROOT
ATOM      1  C   UNL     1       3.019   5.333  18.957  0.00  0.00    +0.000 C 
ATOM      2  C   UNL     1       4.252   4.825  19.138  0.00  0.00    +0.000 C 
ATOM      3  C   UNL     1       3.903   3.428  19.369  0.00  0.00    +0.000 C 
ATOM      4  O   UNL     1       4.620   2.648  19.978  0.00  0.00    +0.000 OA
ATOM      5  C   UNL     1       2.516   3.120  18.870  0.00  0.00    +0.000 C 
ATOM      6  C   UNL     1       1.788   2.230  19.870  0.00  0.00    +0.000 C 
ATOM      7  C   UNL     1       2.552   2.499  17.478  0.00  0.00    +0.000 C 
ATOM      8  O   UNL     1       1.944   4.445  18.840  0.00  0.00    +0.000 OA
ENDROOT
BRANCH   1  10
ATOM      9  C   UNL     1       3.100   7.579  17.804  0.00  0.00    +0.000 C 
ATOM     10  C   UNL     1       2.657   6.742  18.977  0.00  0.00    +0.000 C 
ATOM     11  C   UNL     1       1.968   7.258  20.009  0.00  0.00    +0.000 C 
BRANCH  11  12
ATOM     12  C   UNL     1       1.498   8.669  20.132  0.00  0.00    +0.000 C 
BRANCH  12  13
ATOM     13  O   UNL     1       1.300   8.954  21.516  0.00  0.00    +0.000 OA
BRANCH  13  14
ATOM     14  C   UNL     1       0.512  10.050  21.741  0.00  0.00    +0.000 A 
ATOM     15  C   UNL     1       0.911  11.242  21.132  0.00  0.00    +0.000 A 
ATOM     16  C   UNL     1       0.175  12.420  21.326  0.00  0.00    +0.000 A 
ATOM     17  C   UNL     1      -0.959  12.410  22.136  0.00  0.00    +0.000 A 
ATOM     18  C   UNL     1      -1.763  13.592  22.396  0.00  0.00    +0.000 A 
ATOM     19  C   UNL     1      -2.847  13.499  23.175  0.00  0.00    +0.000 A 
ATOM     20  C   UNL     1      -3.277  12.225  23.786  0.00  0.00    +0.000 A 
ATOM     21  O   UNL     1      -4.301  12.172  24.467  0.00  0.00    +0.000 OA
ATOM     22  O   UNL     1      -2.476  11.123  23.556  0.00  0.00    +0.000 OA
ATOM     23  C   UNL     1      -1.334  11.208  22.745  0.00  0.00    +0.000 A 
ATOM     24  C   UNL     1      -0.610  10.039  22.560  0.00  0.00    +0.000 A 
ENDBRANCH  13  14
ENDBRANCH  12  13
ENDBRANCH  11  12
ENDBRANCH   1  10
BRANCH   2  25
ATOM     25  C   UNL     1       5.573   5.468  19.424  0.00  0.00    +0.000 C 
BRANCH  25  26
ATOM     26  N   UNL     1       6.737   5.366  18.511  0.00  0.00    +0.000 NA
ATOM     27  C   UNL     1       7.993   5.908  19.043  0.00  0.00    +0.000 C 
ATOM     28  C   UNL     1       8.081   7.318  18.503  0.00  0.00    +0.000 C 
ATOM     29  C   UNL     1       7.532   7.165  17.098  0.00  0.00    +0.000 C 
ATOM     30  C   UNL     1       6.527   6.009  17.177  0.00  0.00    +0.000 C 
BRANCH  30  31
ATOM     31  C   UNL     1       6.806   5.003  16.041  0.00  0.00    +0.000 C 
ATOM     32  O   UNL     1       7.419   5.266  15.023  0.00  0.00    +0.000 OA
BRANCH  31  33
ATOM     33  O   UNL     1       6.307   3.760  16.294  0.00  0.00    +0.000 OA
ATOM     34  H   UNL     1       6.540   3.192  15.524  0.00  0.00    +0.000 HD
ENDBRANCH  31  33
ENDBRANCH  30  31
ENDBRANCH  25  26
ENDBRANCH   2  25
TORSDOF 8
ENDMDL
MODEL 3
REMARK VINA RESULT:      -9.2      2.244      4.379
REMARK  Name = 
REMARK  11 active torsions:
REMARK  status: ('A' for Active; 'I' for Inactive)
REMARK    1  A    between atoms: C_1  and  C_2
REMARK    2  A    between atoms: C_2  and  C_17
REMARK    3  A    between atoms: C_3  and  C_4
REMARK    4  A    between atoms: C_4  and  O_5
REMARK    5  A    between atoms: O_5  and  C_6
REMARK    6  A    between atoms: C_18  and  C_19
REMARK    7  A    between atoms: C_19  and  N_20
REMARK    8  A    between atoms: C_24  and  C_25
REMARK    9  A    between atoms: C_25  and  O_27
REMARK   10  A    between atoms: C_30  and  C_31
REMARK   11  A    between atoms: C_30  and  C_32
REMARK                            x       y       z     vdW  Elec       q    Type
REMARK                         _______ _______ _______ _____ _____    ______ ____
ROOT
ATOM      1  C   UNL     1       3.157   6.832  18.153  0.00  0.00    +0.000 C 
ATOM      2  C   UNL     1       3.022   5.494  18.180  0.00  0.00    +0.000 C 
ATOM      3  C   UNL     1       4.056   5.130  17.219  0.00  0.00    +0.000 C 
ATOM      4  O   UNL     1       4.054   4.079  16.595  0.00  0.00    +0.000 OA
ATOM      5  C   UNL     1       5.037   6.255  17.016  0.00  0.00    +0.000 C 
ATOM      6  C   UNL     1       5.380   6.387  15.537  0.00  0.00    +0.000 C 
ATOM      7  C   UNL     1       6.283   6.065  17.874  0.00  0.00    +0.000 C 
ATOM      8  O   UNL     1       4.251   7.377  17.471  0.00  0.00    +0.000 OA
ENDROOT
BRANCH   1  10
ATOM      9  C   UNL     1       1.942   7.769  20.160  0.00  0.00    +0.000 C 
ATOM     10  C   UNL     1       2.210   7.804  18.676  0.00  0.00    +0.000 C 
ATOM     11  C   UNL     1       1.602   8.679  17.857  0.00  0.00    +0.000 C 
BRANCH  11  12
ATOM     12  C   UNL     1       0.648   9.750  18.269  0.00  0.00    +0.000 C 
BRANCH  12  13
ATOM     13  O   UNL     1      -0.436   9.764  17.341  0.00  0.00    +0.000 OA
BRANCH  13  14
ATOM     14  C   UNL     1      -1.561  10.375  17.825  0.00  0.00    +0.000 A 
ATOM     15  C   UNL     1      -2.777   9.985  17.257  0.00  0.00    +0.000 A 
ATOM     16  C   UNL     1      -3.977  10.575  17.676  0.00  0.00    +0.000 A 
ATOM     17  C   UNL     1      -3.965  11.563  18.659  0.00  0.00    +0.000 A 
ATOM     18  C   UNL     1      -5.166  12.229  19.133  0.00  0.00    +0.000 A 
ATOM     19  C   UNL     1      -5.075  13.159  20.090  0.00  0.00    +0.000 A 
ATOM     20  C   UNL     1      -3.787  13.539  20.705  0.00  0.00    +0.000 A 
ATOM     21  O   UNL     1      -3.747  14.373  21.610  0.00  0.00    +0.000 OA
ATOM     22  O   UNL     1      -2.654  12.919  20.212  0.00  0.00    +0.000 OA
ATOM     23  C   UNL     1      -2.737  11.946  19.205  0.00  0.00    +0.000 A 
ATOM     24  C   UNL     1      -1.544  11.369  18.794  0.00  0.00    +0.000 A 
ENDBRANCH  13  14
ENDBRANCH  12  13
ENDBRANCH  11  12
ENDBRANCH   1  10
BRANCH   2  25
ATOM     25  C   UNL     1       1.933   4.603  18.691  0.00  0.00    +0.000 C 
BRANCH  25  26
ATOM     26  N   UNL     1       2.186   3.249  19.240  0.00  0.00    +0.000 NA
ATOM     27  C   UNL     1       1.026   2.605  19.867  0.00  0.00    +0.000 C 
ATOM     28  C   UNL     1       1.157   2.896  21.345  0.00  0.00    +0.000 C 
ATOM     29  C   UNL     1       2.652   2.781  21.570  0.00  0.00    +0.000 C 
ATOM     30  C   UNL     1       3.297   3.192  20.241  0.00  0.00    +0.000 C 
BRANCH  30  31
ATOM     31  C   UNL     1       4.346   2.139  19.826  0.00  0.00    +0.000 C 
ATOM     32  O   UNL     1       5.146   1.628  20.588  0.00  0.00    +0.000 OA
BRANCH  31  33
ATOM     33  O   UNL     1       4.283   1.813  18.505  0.00  0.00    +0.000 OA
ATOM     34  H   UNL     1       4.912   1.071  18.359  0.00  0.00    +0.000 HD
ENDBRANCH  31  33
ENDBRANCH  30  31
ENDBRANCH  25  26
ENDBRANCH   2  25
TORSDOF 8
ENDMDL
MODEL 4
REMARK VINA RESULT:      -9.1      1.561      2.039
REMARK  Name = 
REMARK  11 active torsions:
REMARK  status: ('A' for Active; 'I' for Inactive)
REMARK    1  A    between atoms: C_1  and  C_2
REMARK    2  A    between atoms: C_2  and  C_17
REMARK    3  A    between atoms: C_3  and  C_4
REMARK    4  A    between atoms: C_4  and  O_5
REMARK    5  A    between atoms: O_5  and  C_6
REMARK    6  A    between atoms: C_18  and  C_19
REMARK    7  A    between atoms: C_19  and  N_20
REMARK    8  A    between atoms: C_24  and  C_25
REMARK    9  A    between atoms: C_25  and  O_27
REMARK   10  A    between atoms: C_30  and  C_31
REMARK   11  A    between atoms: C_30  and  C_32
REMARK                            x       y       z     vdW  Elec       q    Type
REMARK                         _______ _______ _______ _____ _____    ______ ____
ROOT
ATOM      1  C   UNL     1       2.905   5.307  19.067  0.00  0.00    +0.000 C 
ATOM      2  C   UNL     1       4.159   4.828  19.163  0.00  0.00    +0.000 C 
ATOM      3  C   UNL     1       3.860   3.419  19.392  0.00  0.00    +0.000 C 
ATOM      4  O   UNL     1       4.633   2.650  19.944  0.00  0.00    +0.000 OA
ATOM      5  C   UNL     1       2.452   3.083  18.975  0.00  0.00    +0.000 C 
ATOM      6  C   UNL     1       1.811   2.160  20.003  0.00  0.00    +0.000 C 
ATOM      7  C   UNL     1       2.418   2.484  17.573  0.00  0.00    +0.000 C 
ATOM      8  O   UNL     1       1.848   4.393  19.002  0.00  0.00    +0.000 OA
ENDROOT
BRANCH   1  10
ATOM      9  C   UNL     1       1.920   7.189  20.433  0.00  0.00    +0.000 C 
ATOM     10  C   UNL     1       2.510   6.705  19.132  0.00  0.00    +0.000 C 
ATOM     11  C   UNL     1       2.660   7.511  18.067  0.00  0.00    +0.000 C 
BRANCH  11  12
ATOM     12  C   UNL     1       2.336   8.967  18.015  0.00  0.00    +0.000 C 
BRANCH  12  13
ATOM     13  O   UNL     1       1.010   9.112  17.510  0.00  0.00    +0.000 OA
BRANCH  13  14
ATOM     14  C   UNL     1       0.225   9.941  18.264  0.00  0.00    +0.000 A 
ATOM     15  C   UNL     1       0.814  10.491  19.405  0.00  0.00    +0.000 A 
ATOM     16  C   UNL     1       0.076  11.334  20.248  0.00  0.00    +0.000 A 
ATOM     17  C   UNL     1      -1.255  11.624  19.956  0.00  0.00    +0.000 A 
ATOM     18  C   UNL     1      -2.086  12.476  20.789  0.00  0.00    +0.000 A 
ATOM     19  C   UNL     1      -3.354  12.717  20.435  0.00  0.00    +0.000 A 
ATOM     20  C   UNL     1      -3.954  12.156  19.208  0.00  0.00    +0.000 A 
ATOM     21  O   UNL     1      -5.113  12.431  18.895  0.00  0.00    +0.000 OA
ATOM     22  O   UNL     1      -3.156  11.318  18.451  0.00  0.00    +0.000 OA
ATOM     23  C   UNL     1      -1.827  11.053  18.815  0.00  0.00    +0.000 A 
ATOM     24  C   UNL     1      -1.106  10.216  17.977  0.00  0.00    +0.000 A 
ENDBRANCH  13  14
ENDBRANCH  12  13
ENDBRANCH  11  12
ENDBRANCH   1  10
BRANCH   2  25
ATOM     25  C   UNL     1       5.478   5.501  19.378  0.00  0.00    +0.000 C 
BRANCH  25  26
ATOM     26  N   UNL     1       6.597   5.418  18.407  0.00  0.00    +0.000 NA
ATOM     27  C   UNL     1       7.915   5.776  18.945  0.00  0.00    +0.000 C 
ATOM     28  C   UNL     1       8.113   7.231  18.584  0.00  0.00    +0.000 C 
ATOM     29  C   UNL     1       7.503   7.311  17.198  0.00  0.00    +0.000 C 
ATOM     30  C   UNL     1       6.400   6.246  17.176  0.00  0.00    +0.000 C 
BRANCH  30  31
ATOM     31  C   UNL     1       6.546   5.376  15.910  0.00  0.00    +0.000 C 
ATOM     32  O   UNL     1       7.554   4.764  15.608  0.00  0.00    +0.000 OA
BRANCH  31  33
ATOM     33  O   UNL     1       5.414   5.340  15.152  0.00  0.00    +0.000 OA
ATOM     34  H   UNL     1       4.803   6.021  15.513  0.00  0.00    +0.000 HD
ENDBRANCH  31  33
ENDBRANCH  30  31
ENDBRANCH  25  26
ENDBRANCH   2  25
TORSDOF 8
ENDMDL
MODEL 5
REMARK VINA RESULT:      -9.1      1.276      1.748
REMARK  Name = 
REMARK  11 active torsions:
REMARK  status: ('A' for Active; 'I' for Inactive)
REMARK    1  A    between atoms: C_1  and  C_2
REMARK    2  A    between atoms: C_2  and  C_17
REMARK    3  A    between atoms: C_3  and  C_4
REMARK    4  A    between atoms: C_4  and  O_5
REMARK    5  A    between atoms: O_5  and  C_6
REMARK    6  A    between atoms: C_18  and  C_19
REMARK    7  A    between atoms: C_19  and  N_20
REMARK    8  A    between atoms: C_24  and  C_25
REMARK    9  A    between atoms: C_25  and  O_27
REMARK   10  A    between atoms: C_30  and  C_31
REMARK   11  A    between atoms: C_30  and  C_32
REMARK                            x       y       z     vdW  Elec       q    Type
REMARK                         _______ _______ _______ _____ _____    ______ ____
ROOT
ATOM      1  C   UNL     1       2.428   5.403  19.533  0.00  0.00    +0.000 C 
ATOM      2  C   UNL     1       3.590   4.726  19.515  0.00  0.00    +0.000 C 
ATOM      3  C   UNL     1       3.131   3.448  20.047  0.00  0.00    +0.000 C 
ATOM      4  O   UNL     1       3.869   2.647  20.602  0.00  0.00    +0.000 OA
ATOM      5  C   UNL     1       1.636   3.311  19.929  0.00  0.00    +0.000 C 
ATOM      6  C   UNL     1       1.068   2.691  21.200  0.00  0.00    +0.000 C 
ATOM      7  C   UNL     1       1.249   2.516  18.687  0.00  0.00    +0.000 C 
ATOM      8  O   UNL     1       1.251   4.696  19.808  0.00  0.00    +0.000 OA
ENDROOT
BRANCH   1  10
ATOM      9  C   UNL     1       1.867   7.604  20.637  0.00  0.00    +0.000 C 
ATOM     10  C   UNL     1       2.266   6.842  19.399  0.00  0.00    +0.000 C 
ATOM     11  C   UNL     1       2.457   7.446  18.213  0.00  0.00    +0.000 C 
BRANCH  11  12
ATOM     12  C   UNL     1       2.366   8.913  17.952  0.00  0.00    +0.000 C 
BRANCH  12  13
ATOM     13  O   UNL     1       1.009   9.229  17.649  0.00  0.00    +0.000 OA
BRANCH  13  14
ATOM     14  C   UNL     1       0.471  10.178  18.475  0.00  0.00    +0.000 A 
ATOM     15  C   UNL     1      -0.923  10.236  18.536  0.00  0.00    +0.000 A 
ATOM     16  C   UNL     1      -1.559  11.193  19.340  0.00  0.00    +0.000 A 
ATOM     17  C   UNL     1      -0.802  12.099  20.080  0.00  0.00    +0.000 A 
ATOM     18  C   UNL     1      -1.390  13.126  20.923  0.00  0.00    +0.000 A 
ATOM     19  C   UNL     1      -0.596  13.951  21.614  0.00  0.00    +0.000 A 
ATOM     20  C   UNL     1       0.877  13.858  21.566  0.00  0.00    +0.000 A 
ATOM     21  O   UNL     1       1.575  14.612  22.246  0.00  0.00    +0.000 OA
ATOM     22  O   UNL     1       1.414  12.898  20.729  0.00  0.00    +0.000 OA
ATOM     23  C   UNL     1       0.591  12.030  19.995  0.00  0.00    +0.000 A 
ATOM     24  C   UNL     1       1.229  11.089  19.200  0.00  0.00    +0.000 A 
ENDBRANCH  13  14
ENDBRANCH  12  13
ENDBRANCH  11  12
ENDBRANCH   1  10
BRANCH   2  25
ATOM     25  C   UNL     1       5.013   5.174  19.388  0.00  0.00    +0.000 C 
BRANCH  25  26
ATOM     26  N   UNL     1       5.569   5.759  18.144  0.00  0.00    +0.000 NA
ATOM     27  C   UNL     1       4.999   5.229  16.899  0.00  0.00    +0.000 C 
ATOM     28  C   UNL     1       5.953   4.144  16.453  0.00  0.00    +0.000 C 
ATOM     29  C   UNL     1       7.306   4.732  16.805  0.00  0.00    +0.000 C 
ATOM     30  C   UNL     1       7.054   5.633  18.019  0.00  0.00    +0.000 C 
BRANCH  30  31
ATOM     31  C   UNL     1       7.696   7.016  17.780  0.00  0.00    +0.000 C 
ATOM     32  O   UNL     1       7.555   7.674  16.766  0.00  0.00    +0.000 OA
BRANCH  31  33
ATOM     33  O   UNL     1       8.439   7.451  18.836  0.00  0.00    +0.000 OA
ATOM     34  H   UNL     1       7.854   8.019  19.387  0.00  0.00    +0.000 HD
ENDBRANCH  31  33
ENDBRANCH  30  31
ENDBRANCH  25  26
ENDBRANCH   2  25
TORSDOF 8
ENDMDL
MODEL 6
REMARK VINA RESULT:      -9.0      1.276      1.576
REMARK  Name = 
REMARK  11 active torsions:
REMARK  status: ('A' for Active; 'I' for Inactive)
REMARK    1  A    between atoms: C_1  and  C_2
REMARK    2  A    between atoms: C_2  and  C_17
REMARK    3  A    between atoms: C_3  and  C_4
REMARK    4  A    between atoms: C_4  and  O_5
REMARK    5  A    between atoms: O_5  and  C_6
REMARK    6  A    between atoms: C_18  and  C_19
REMARK    7  A    between atoms: C_19  and  N_20
REMARK    8  A    between atoms: C_24  and  C_25
REMARK    9  A    between atoms: C_25  and  O_27
REMARK   10  A    between atoms: C_30  and  C_31
REMARK   11  A    between atoms: C_30  and  C_32
REMARK                            x       y       z     vdW  Elec       q    Type
REMARK                         _______ _______ _______ _____ _____    ______ ____
ROOT
ATOM      1  C   UNL     1       3.141   5.068  18.952  0.00  0.00    +0.000 C 
ATOM      2  C   UNL     1       4.356   4.530  19.157  0.00  0.00    +0.000 C 
ATOM      3  C   UNL     1       3.971   3.139  19.365  0.00  0.00    +0.000 C 
ATOM      4  O   UNL     1       4.656   2.338  19.984  0.00  0.00    +0.000 OA
ATOM      5  C   UNL     1       2.589   2.868  18.831  0.00  0.00    +0.000 C 
ATOM      6  C   UNL     1       1.818   1.985  19.804  0.00  0.00    +0.000 C 
ATOM      7  C   UNL     1       2.645   2.260  17.434  0.00  0.00    +0.000 C 
ATOM      8  O   UNL     1       2.049   4.205  18.801  0.00  0.00    +0.000 OA
ENDROOT
BRANCH   1  10
ATOM      9  C   UNL     1       3.234   7.308  17.788  0.00  0.00    +0.000 C 
ATOM     10  C   UNL     1       2.810   6.484  18.978  0.00  0.00    +0.000 C 
ATOM     11  C   UNL     1       2.164   7.019  20.029  0.00  0.00    +0.000 C 
BRANCH  11  12
ATOM     12  C   UNL     1       1.729   8.440  20.161  0.00  0.00    +0.000 C 
BRANCH  12  13
ATOM     13  O   UNL     1       0.488   8.463  20.864  0.00  0.00    +0.000 OA
BRANCH  13  14
ATOM     14  C   UNL     1      -0.082   9.706  20.926  0.00  0.00    +0.000 A 
ATOM     15  C   UNL     1      -0.711  10.164  19.766  0.00  0.00    +0.000 A 
ATOM     16  C   UNL     1      -1.301  11.435  19.734  0.00  0.00    +0.000 A 
ATOM     17  C   UNL     1      -1.258  12.255  20.859  0.00  0.00    +0.000 A 
ATOM     18  C   UNL     1      -1.834  13.589  20.896  0.00  0.00    +0.000 A 
ATOM     19  C   UNL     1      -1.763  14.311  22.019  0.00  0.00    +0.000 A 
ATOM     20  C   UNL     1      -1.124  13.802  23.250  0.00  0.00    +0.000 A 
ATOM     21  O   UNL     1      -1.111  14.482  24.276  0.00  0.00    +0.000 OA
ATOM     22  O   UNL     1      -0.550  12.547  23.180  0.00  0.00    +0.000 OA
ATOM     23  C   UNL     1      -0.613  11.781  22.005  0.00  0.00    +0.000 A 
ATOM     24  C   UNL     1      -0.024  10.526  22.046  0.00  0.00    +0.000 A 
ENDBRANCH  13  14
ENDBRANCH  12  13
ENDBRANCH  11  12
ENDBRANCH   1  10
BRANCH   2  25
ATOM     25  C   UNL     1       5.684   5.140  19.481  0.00  0.00    +0.000 C 
BRANCH  25  26
ATOM     26  N   UNL     1       6.827   5.140  18.535  0.00  0.00    +0.000 NA
ATOM     27  C   UNL     1       8.067   5.727  19.058  0.00  0.00    +0.000 C 
ATOM     28  C   UNL     1       8.064   7.161  18.578  0.00  0.00    +0.000 C 
ATOM     29  C   UNL     1       7.485   7.038  17.182  0.00  0.00    +0.000 C 
ATOM     30  C   UNL     1       6.546   5.826  17.236  0.00  0.00    +0.000 C 
BRANCH  30  31
ATOM     31  C   UNL     1       6.847   4.885  16.051  0.00  0.00    +0.000 C 
ATOM     32  O   UNL     1       7.523   5.188  15.085  0.00  0.00    +0.000 OA
BRANCH  31  33
ATOM     33  O   UNL     1       6.290   3.649  16.194  0.00  0.00    +0.000 OA
ATOM     34  H   UNL     1       5.393   3.779  16.578  0.00  0.00    +0.000 HD
ENDBRANCH  31  33
ENDBRANCH  30  31
ENDBRANCH  25  26
ENDBRANCH   2  25
TORSDOF 8
ENDMDL
MODEL 7
REMARK VINA RESULT:      -8.9      1.923      2.678
REMARK  Name = 
REMARK  11 active torsions:
REMARK  status: ('A' for Active; 'I' for Inactive)
REMARK    1  A    between atoms: C_1  and  C_2
REMARK    2  A    between atoms: C_2  and  C_17
REMARK    3  A    between atoms: C_3  and  C_4
REMARK    4  A    between atoms: C_4  and  O_5
REMARK    5  A    between atoms: O_5  and  C_6
REMARK    6  A    between atoms: C_18  and  C_19
REMARK    7  A    between atoms: C_19  and  N_20
REMARK    8  A    between atoms: C_24  and  C_25
REMARK    9  A    between atoms: C_25  and  O_27
REMARK   10  A    between atoms: C_30  and  C_31
REMARK   11  A    between atoms: C_30  and  C_32
REMARK                            x       y       z     vdW  Elec       q    Type
REMARK                         _______ _______ _______ _____ _____    ______ ____
ROOT
ATOM      1  C   UNL     1       2.454   5.325  19.584  0.00  0.00    +0.000 C 
ATOM      2  C   UNL     1       3.624   4.660  19.575  0.00  0.00    +0.000 C 
ATOM      3  C   UNL     1       3.172   3.373  20.088  0.00  0.00    +0.000 C 
ATOM      4  O   UNL     1       3.911   2.574  20.644  0.00  0.00    +0.000 OA
ATOM      5  C   UNL     1       1.680   3.221  19.950  0.00  0.00    +0.000 C 
ATOM      6  C   UNL     1       1.103   2.582  21.207  0.00  0.00    +0.000 C 
ATOM      7  C   UNL     1       1.317   2.434  18.695  0.00  0.00    +0.000 C 
ATOM      8  O   UNL     1       1.282   4.603  19.837  0.00  0.00    +0.000 OA
ENDROOT
BRANCH   1  10
ATOM      9  C   UNL     1       1.831   7.505  20.697  0.00  0.00    +0.000 C 
ATOM     10  C   UNL     1       2.279   6.763  19.462  0.00  0.00    +0.000 C 
ATOM     11  C   UNL     1       2.499   7.385  18.291  0.00  0.00    +0.000 C 
BRANCH  11  12
ATOM     12  C   UNL     1       2.399   8.853  18.044  0.00  0.00    +0.000 C 
BRANCH  12  13
ATOM     13  O   UNL     1       1.156   9.112  17.393  0.00  0.00    +0.000 OA
BRANCH  13  14
ATOM     14  C   UNL     1       0.332   9.945  18.100  0.00  0.00    +0.000 A 
ATOM     15  C   UNL     1       0.905  10.623  19.178  0.00  0.00    +0.000 A 
ATOM     16  C   UNL     1       0.129  11.480  19.971  0.00  0.00    +0.000 A 
ATOM     17  C   UNL     1      -1.225  11.657  19.692  0.00  0.00    +0.000 A 
ATOM     18  C   UNL     1      -2.095  12.516  20.477  0.00  0.00    +0.000 A 
ATOM     19  C   UNL     1      -3.382  12.643  20.138  0.00  0.00    +0.000 A 
ATOM     20  C   UNL     1      -3.968  11.946  18.975  0.00  0.00    +0.000 A 
ATOM     21  O   UNL     1      -5.149  12.118  18.672  0.00  0.00    +0.000 OA
ATOM     22  O   UNL     1      -3.131  11.106  18.266  0.00  0.00    +0.000 OA
ATOM     23  C   UNL     1      -1.780  10.959  18.615  0.00  0.00    +0.000 A 
ATOM     24  C   UNL     1      -1.020  10.107  17.827  0.00  0.00    +0.000 A 
ENDBRANCH  13  14
ENDBRANCH  12  13
ENDBRANCH  11  12
ENDBRANCH   1  10
BRANCH   2  25
ATOM     25  C   UNL     1       5.043   5.125  19.470  0.00  0.00    +0.000 C 
BRANCH  25  26
ATOM     26  N   UNL     1       5.608   5.730  18.239  0.00  0.00    +0.000 NA
ATOM     27  C   UNL     1       5.011   5.258  16.984  0.00  0.00    +0.000 C 
ATOM     28  C   UNL     1       5.924   4.156  16.495  0.00  0.00    +0.000 C 
ATOM     29  C   UNL     1       7.298   4.687  16.853  0.00  0.00    +0.000 C 
ATOM     30  C   UNL     1       7.087   5.558  18.097  0.00  0.00    +0.000 C 
BRANCH  30  31
ATOM     31  C   UNL     1       7.773   6.926  17.894  0.00  0.00    +0.000 C 
ATOM     32  O   UNL     1       8.428   7.501  18.744  0.00  0.00    +0.000 OA
BRANCH  31  33
ATOM     33  O   UNL     1       7.589   7.436  16.643  0.00  0.00    +0.000 OA
ATOM     34  H   UNL     1       8.470   7.732  16.319  0.00  0.00    +0.000 HD
ENDBRANCH  31  33
ENDBRANCH  30  31
ENDBRANCH  25  26
ENDBRANCH   2  25
TORSDOF 8
ENDMDL
MODEL 8
REMARK VINA RESULT:      -8.9      2.353      4.686
REMARK  Name = 
REMARK  11 active torsions:
REMARK  status: ('A' for Active; 'I' for Inactive)
REMARK    1  A    between atoms: C_1  and  C_2
REMARK    2  A    between atoms: C_2  and  C_17
REMARK    3  A    between atoms: C_3  and  C_4
REMARK    4  A    between atoms: C_4  and  O_5
REMARK    5  A    between atoms: O_5  and  C_6
REMARK    6  A    between atoms: C_18  and  C_19
REMARK    7  A    between atoms: C_19  and  N_20
REMARK    8  A    between atoms: C_24  and  C_25
REMARK    9  A    between atoms: C_25  and  O_27
REMARK   10  A    between atoms: C_30  and  C_31
REMARK   11  A    between atoms: C_30  and  C_32
REMARK                            x       y       z     vdW  Elec       q    Type
REMARK                         _______ _______ _______ _____ _____    ______ ____
ROOT
ATOM      1  C   UNL     1       4.046   6.084  17.841  0.00  0.00    +0.000 C 
ATOM      2  C   UNL     1       3.843   4.796  17.506  0.00  0.00    +0.000 C 
ATOM      3  C   UNL     1       4.984   4.597  16.621  0.00  0.00    +0.000 C 
ATOM      4  O   UNL     1       5.019   3.737  15.753  0.00  0.00    +0.000 OA
ATOM      5  C   UNL     1       6.038   5.651  16.838  0.00  0.00    +0.000 C 
ATOM      6  C   UNL     1       6.593   6.117  15.498  0.00  0.00    +0.000 C 
ATOM      7  C   UNL     1       7.138   5.151  17.767  0.00  0.00    +0.000 C 
ATOM      8  O   UNL     1       5.252   6.686  17.464  0.00  0.00    +0.000 OA
ENDROOT
BRANCH   1  10
ATOM      9  C   UNL     1       2.490   6.515  19.784  0.00  0.00    +0.000 C 
ATOM     10  C   UNL     1       3.083   6.971  18.474  0.00  0.00    +0.000 C 
ATOM     11  C   UNL     1       2.741   8.136  17.897  0.00  0.00    +0.000 C 
BRANCH  11  12
ATOM     12  C   UNL     1       1.804   9.152  18.460  0.00  0.00    +0.000 C 
BRANCH  12  13
ATOM     13  O   UNL     1       0.713   9.303  17.553  0.00  0.00    +0.000 OA
BRANCH  13  14
ATOM     14  C   UNL     1      -0.309  10.065  18.050  0.00  0.00    +0.000 A 
ATOM     15  C   UNL     1      -0.000  10.897  19.129  0.00  0.00    +0.000 A 
ATOM     16  C   UNL     1      -0.992  11.696  19.716  0.00  0.00    +0.000 A 
ATOM     17  C   UNL     1      -2.297  11.660  19.229  0.00  0.00    +0.000 A 
ATOM     18  C   UNL     1      -3.380  12.447  19.795  0.00  0.00    +0.000 A 
ATOM     19  C   UNL     1      -4.605  12.368  19.264  0.00  0.00    +0.000 A 
ATOM     20  C   UNL     1      -4.911  11.509  18.101  0.00  0.00    +0.000 A 
ATOM     21  O   UNL     1      -6.043  11.491  17.617  0.00  0.00    +0.000 OA
ATOM     22  O   UNL     1      -3.875  10.741  17.605  0.00  0.00    +0.000 OA
ATOM     23  C   UNL     1      -2.586  10.812  18.156  0.00  0.00    +0.000 A 
ATOM     24  C   UNL     1      -1.612  10.016  17.572  0.00  0.00    +0.000 A 
ENDBRANCH  13  14
ENDBRANCH  12  13
ENDBRANCH  11  12
ENDBRANCH   1  10
BRANCH   2  25
ATOM     25  C   UNL     1       2.650   3.901  17.631  0.00  0.00    +0.000 C 
BRANCH  25  26
ATOM     26  N   UNL     1       2.615   2.720  18.527  0.00  0.00    +0.000 NA
ATOM     27  C   UNL     1       1.280   2.343  19.007  0.00  0.00    +0.000 C 
ATOM     28  C   UNL     1       1.143   2.995  20.364  0.00  0.00    +0.000 C 
ATOM     29  C   UNL     1       2.534   2.838  20.945  0.00  0.00    +0.000 C 
ATOM     30  C   UNL     1       3.482   2.846  19.740  0.00  0.00    +0.000 C 
BRANCH  30  31
ATOM     31  C   UNL     1       4.454   1.651  19.837  0.00  0.00    +0.000 C 
ATOM     32  O   UNL     1       5.219   1.459  20.764  0.00  0.00    +0.000 OA
BRANCH  31  33
ATOM     33  O   UNL     1       4.365   0.802  18.775  0.00  0.00    +0.000 OA
ATOM     34  H   UNL     1       3.586   0.221  18.933  0.00  0.00    +0.000 HD
ENDBRANCH  31  33
ENDBRANCH  30  31
ENDBRANCH  25  26
ENDBRANCH   2  25
TORSDOF 8
ENDMDL
MODEL 9
REMARK VINA RESULT:      -8.9      2.385      3.061
REMARK  Name = 
REMARK  11 active torsions:
REMARK  status: ('A' for Active; 'I' for Inactive)
REMARK    1  A    between atoms: C_1  and  C_2
REMARK    2  A    between atoms: C_2  and  C_17
REMARK    3  A    between atoms: C_3  and  C_4
REMARK    4  A    between atoms: C_4  and  O_5
REMARK    5  A    between atoms: O_5  and  C_6
REMARK    6  A    between atoms: C_18  and  C_19
REMARK    7  A    between atoms: C_19  and  N_20
REMARK    8  A    between atoms: C_24  and  C_25
REMARK    9  A    between atoms: C_25  and  O_27
REMARK   10  A    between atoms: C_30  and  C_31
REMARK   11  A    between atoms: C_30  and  C_32
REMARK                            x       y       z     vdW  Elec       q    Type
REMARK                         _______ _______ _______ _____ _____    ______ ____
ROOT
ATOM      1  C   UNL     1       2.445   5.350  19.574  0.00  0.00    +0.000 C 
ATOM      2  C   UNL     1       3.637   4.729  19.518  0.00  0.00    +0.000 C 
ATOM      3  C   UNL     1       3.234   3.397  19.953  0.00  0.00    +0.000 C 
ATOM      4  O   UNL     1       4.006   2.593  20.455  0.00  0.00    +0.000 OA
ATOM      5  C   UNL     1       1.748   3.201  19.814  0.00  0.00    +0.000 C 
ATOM      6  C   UNL     1       1.203   2.467  21.033  0.00  0.00    +0.000 C 
ATOM      7  C   UNL     1       1.403   2.480  18.516  0.00  0.00    +0.000 C 
ATOM      8  O   UNL     1       1.300   4.572  19.789  0.00  0.00    +0.000 OA
ENDROOT
BRANCH   1  10
ATOM      9  C   UNL     1       2.465   7.488  18.231  0.00  0.00    +0.000 C 
ATOM     10  C   UNL     1       2.218   6.786  19.542  0.00  0.00    +0.000 C 
ATOM     11  C   UNL     1       1.819   7.442  20.645  0.00  0.00    +0.000 C 
BRANCH  11  12
ATOM     12  C   UNL     1       1.511   8.899  20.736  0.00  0.00    +0.000 C 
BRANCH  12  13
ATOM     13  O   UNL     1       0.983   9.164  22.035  0.00  0.00    +0.000 OA
BRANCH  13  14
ATOM     14  C   UNL     1       0.116  10.223  22.067  0.00  0.00    +0.000 A 
ATOM     15  C   UNL     1       0.369  11.264  21.171  0.00  0.00    +0.000 A 
ATOM     16  C   UNL     1      -0.455  12.399  21.152  0.00  0.00    +0.000 A 
ATOM     17  C   UNL     1      -1.530  12.498  22.033  0.00  0.00    +0.000 A 
ATOM     18  C   UNL     1      -2.417  13.648  22.081  0.00  0.00    +0.000 A 
ATOM     19  C   UNL     1      -3.436  13.663  22.947  0.00  0.00    +0.000 A 
ATOM     20  C   UNL     1      -3.712  12.540  23.866  0.00  0.00    +0.000 A 
ATOM     21  O   UNL     1      -4.682  12.575  24.623  0.00  0.00    +0.000 OA
ATOM     22  O   UNL     1      -2.833  11.475  23.829  0.00  0.00    +0.000 OA
ATOM     23  C   UNL     1      -1.757  11.449  22.928  0.00  0.00    +0.000 A 
ATOM     24  C   UNL     1      -0.946  10.324  22.957  0.00  0.00    +0.000 A 
ENDBRANCH  13  14
ENDBRANCH  12  13
ENDBRANCH  11  12
ENDBRANCH   1  10
BRANCH   2  25
ATOM     25  C   UNL     1       5.038   5.249  19.435  0.00  0.00    +0.000 C 
BRANCH  25  26
ATOM     26  N   UNL     1       5.621   5.807  18.190  0.00  0.00    +0.000 NA
ATOM     27  C   UNL     1       5.076   5.252  16.945  0.00  0.00    +0.000 C 
ATOM     28  C   UNL     1       6.036   4.155  16.541  0.00  0.00    +0.000 C 
ATOM     29  C   UNL     1       7.383   4.747  16.909  0.00  0.00    +0.000 C 
ATOM     30  C   UNL     1       7.109   5.675  18.099  0.00  0.00    +0.000 C 
BRANCH  30  31
ATOM     31  C   UNL     1       7.760   7.051  17.844  0.00  0.00    +0.000 C 
ATOM     32  O   UNL     1       7.624   7.697  16.822  0.00  0.00    +0.000 OA
BRANCH  31  33
ATOM     33  O   UNL     1       8.502   7.494  18.897  0.00  0.00    +0.000 OA
ATOM     34  H   UNL     1       9.380   7.052  18.839  0.00  0.00    +0.000 HD
ENDBRANCH  31  33
ENDBRANCH  30  31
ENDBRANCH  25  26
ENDBRANCH   2  25
TORSDOF 8
ENDMDL
