MODEL 1
REMARK VINA RESULT:      -8.0      0.000      0.000
REMARK  Name = 
REMARK  2 active torsions:
REMARK  status: ('A' for Active; 'I' for Inactive)
REMARK    1  A    between atoms: N_3  and  C_4
REMARK    2  A    between atoms: N_17  and  C_18
REMARK                            x       y       z     vdW  Elec       q    Type
REMARK                         _______ _______ _______ _____ _____    ______ ____
ROOT
ATOM      1  O   UNL     1       2.324   8.632  17.288  0.00  0.00    +0.000 OA
ATOM      2  C   UNL     1       1.948   8.321  18.415  0.00  0.00    +0.000 C 
ATOM      3  N   UNL     1       2.400   7.201  19.059  0.00  0.00    +0.000 N 
ATOM      4  N   UNL     1       1.061   9.098  19.134  0.00  0.00    +0.000 N 
ATOM      5  C   UNL     1       0.608   8.885  20.516  0.00  0.00    +0.000 C 
ATOM      6  C   UNL     1       1.126   9.994  21.454  0.00  0.00    +0.000 C 
ATOM      7  N   UNL     1       0.740  11.310  20.919  0.00  0.00    +0.000 N 
ATOM      8  C   UNL     1       1.178  11.556  19.530  0.00  0.00    +0.000 C 
ATOM      9  C   UNL     1       0.700  10.422  18.598  0.00  0.00    +0.000 C 
ATOM     10  H   UNL     1       1.776   6.803  19.738  0.00  0.00    +0.000 HD
ENDROOT
BRANCH   3  11
ATOM     11  C   UNL     1       3.375   6.256  18.499  0.00  0.00    +0.000 C 
ATOM     12  C   UNL     1       4.422   6.969  17.605  0.00  0.00    +0.000 C 
ATOM     13  C   UNL     1       5.477   5.970  17.107  0.00  0.00    +0.000 C 
ATOM     14  C   UNL     1       6.185   5.342  18.318  0.00  0.00    +0.000 C 
ATOM     15  C   UNL     1       5.168   4.585  19.187  0.00  0.00    +0.000 C 
ATOM     16  C   UNL     1       4.110   5.578  19.685  0.00  0.00    +0.000 C 
ATOM     17  C   UNL     1       4.479   3.497  18.348  0.00  0.00    +0.000 C 
ATOM     18  C   UNL     1       3.746   4.137  17.157  0.00  0.00    +0.000 C 
ATOM     19  C   UNL     1       2.695   5.139  17.672  0.00  0.00    +0.000 C 
ATOM     20  C   UNL     1       4.780   4.871  16.287  0.00  0.00    +0.000 C 
ENDBRANCH   3  11
BRANCH   7  21
ATOM     21  C   UNL     1      -0.002  12.211  21.652  0.00  0.00    +0.000 A 
ATOM     22  C   UNL     1       0.364  13.562  21.760  0.00  0.00    +0.000 A 
ATOM     23  C   UNL     1      -0.393  14.483  22.494  0.00  0.00    +0.000 A 
ATOM     24  C   UNL     1      -1.545  14.071  23.149  0.00  0.00    +0.000 A 
ATOM     25  C   UNL     1      -1.931  12.738  23.063  0.00  0.00    +0.000 A 
ATOM     26 CL   UNL     1      -3.353  12.206  23.878  0.00  0.00    +0.000 Cl
ATOM     27  C   UNL     1      -1.173  11.824  22.326  0.00  0.00    +0.000 A 
ENDBRANCH   7  21
TORSDOF 2
ENDMDL
MODEL 2
REMARK VINA RESULT:      -7.9      0.125      1.462
REMARK  Name = 
REMARK  2 active torsions:
REMARK  status: ('A' for Active; 'I' for Inactive)
REMARK    1  A    between atoms: N_3  and  C_4
REMARK    2  A    between atoms: N_17  and  C_18
REMARK                            x       y       z     vdW  Elec       q    Type
REMARK                         _______ _______ _______ _____ _____    ______ ____
ROOT
ATOM      1  O   UNL     1       2.428   8.590  17.324  0.00  0.00    +0.000 OA
ATOM      2  C   UNL     1       2.021   8.274  18.439  0.00  0.00    +0.000 C 
ATOM      3  N   UNL     1       2.447   7.145  19.085  0.00  0.00    +0.000 N 
ATOM      4  N   UNL     1       1.122   9.053  19.140  0.00  0.00    +0.000 N 
ATOM      5  C   UNL     1       0.632   8.834  20.509  0.00  0.00    +0.000 C 
ATOM      6  C   UNL     1       1.135   9.931  21.468  0.00  0.00    +0.000 C 
ATOM      7  N   UNL     1       0.774  11.255  20.933  0.00  0.00    +0.000 N 
ATOM      8  C   UNL     1       1.249  11.506  19.558  0.00  0.00    +0.000 C 
ATOM      9  C   UNL     1       0.786  10.383  18.605  0.00  0.00    +0.000 C 
ATOM     10  H   UNL     1       1.803   6.748  19.745  0.00  0.00    +0.000 HD
ENDROOT
BRANCH   3  11
ATOM     11  C   UNL     1       3.428   6.196  18.544  0.00  0.00    +0.000 C 
ATOM     12  C   UNL     1       4.247   5.509  19.668  0.00  0.00    +0.000 C 
ATOM     13  C   UNL     1       5.200   4.459  19.078  0.00  0.00    +0.000 C 
ATOM     14  C   UNL     1       4.378   3.400  18.327  0.00  0.00    +0.000 C 
ATOM     15  C   UNL     1       3.603   4.058  17.174  0.00  0.00    +0.000 C 
ATOM     16  C   UNL     1       2.650   5.108  17.758  0.00  0.00    +0.000 C 
ATOM     17  C   UNL     1       4.585   4.750  16.216  0.00  0.00    +0.000 C 
ATOM     18  C   UNL     1       5.380   5.830  16.968  0.00  0.00    +0.000 C 
ATOM     19  C   UNL     1       4.410   6.871  17.558  0.00  0.00    +0.000 C 
ATOM     20  C   UNL     1       6.168   5.153  18.103  0.00  0.00    +0.000 C 
ENDBRANCH   3  11
BRANCH   7  21
ATOM     21  C   UNL     1       0.020  12.157  21.654  0.00  0.00    +0.000 A 
ATOM     22  C   UNL     1       0.368  13.514  21.739  0.00  0.00    +0.000 A 
ATOM     23  C   UNL     1      -0.400  14.436  22.461  0.00  0.00    +0.000 A 
ATOM     24  C   UNL     1      -1.545  14.018  23.125  0.00  0.00    +0.000 A 
ATOM     25  C   UNL     1      -1.912  12.678  23.060  0.00  0.00    +0.000 A 
ATOM     26 CL   UNL     1      -3.326  12.140  23.886  0.00  0.00    +0.000 Cl
ATOM     27  C   UNL     1      -1.143  11.764  22.336  0.00  0.00    +0.000 A 
ENDBRANCH   7  21
TORSDOF 2
ENDMDL
MODEL 3
REMARK VINA RESULT:      -7.8      1.084      1.429
REMARK  Name = 
REMARK  2 active torsions:
REMARK  status: ('A' for Active; 'I' for Inactive)
REMARK    1  A    between atoms: N_3  and  C_4
REMARK    2  A    between atoms: N_17  and  C_18
REMARK                            x       y       z     vdW  Elec       q    Type
REMARK                         _______ _______ _______ _____ _____    ______ ____
ROOT
ATOM      1  O   UNL     1       2.422   8.585  17.293  0.00  0.00    +0.000 OA
ATOM      2  C   UNL     1       2.009   8.273  18.406  0.00  0.00    +0.000 C 
ATOM      3  N   UNL     1       2.407   7.130  19.045  0.00  0.00    +0.000 N 
ATOM      4  N   UNL     1       1.131   9.071  19.114  0.00  0.00    +0.000 N 
ATOM      5  C   UNL     1       0.639   8.856  20.482  0.00  0.00    +0.000 C 
ATOM      6  C   UNL     1       1.171   9.935  21.447  0.00  0.00    +0.000 C 
ATOM      7  N   UNL     1       0.843  11.270  20.920  0.00  0.00    +0.000 N 
ATOM      8  C   UNL     1       1.322  11.518  19.546  0.00  0.00    +0.000 C 
ATOM      9  C   UNL     1       0.828  10.412  18.587  0.00  0.00    +0.000 C 
ATOM     10  H   UNL     1       1.754   6.746  19.704  0.00  0.00    +0.000 HD
ENDROOT
BRANCH   3  11
ATOM     11  C   UNL     1       3.362   6.159  18.496  0.00  0.00    +0.000 C 
ATOM     12  C   UNL     1       4.415   6.839  17.583  0.00  0.00    +0.000 C 
ATOM     13  C   UNL     1       5.451   5.814  17.097  0.00  0.00    +0.000 C 
ATOM     14  C   UNL     1       6.156   5.196  18.314  0.00  0.00    +0.000 C 
ATOM     15  C   UNL     1       5.131   4.470  19.202  0.00  0.00    +0.000 C 
ATOM     16  C   UNL     1       4.094   5.490  19.689  0.00  0.00    +0.000 C 
ATOM     17  C   UNL     1       4.419   3.380  18.386  0.00  0.00    +0.000 C 
ATOM     18  C   UNL     1       3.689   4.011  17.189  0.00  0.00    +0.000 C 
ATOM     19  C   UNL     1       2.659   5.040  17.693  0.00  0.00    +0.000 C 
ATOM     20  C   UNL     1       4.730   4.713  16.300  0.00  0.00    +0.000 C 
ENDBRANCH   3  11
BRANCH   7  21
ATOM     21  C   UNL     1       0.114  12.187  21.648  0.00  0.00    +0.000 A 
ATOM     22  C   UNL     1      -0.942  11.798  22.487  0.00  0.00    +0.000 A 
ATOM     23  C   UNL     1      -1.678  12.724  23.236  0.00  0.00    +0.000 A 
ATOM     24  C   UNL     1      -1.375  14.076  23.162  0.00  0.00    +0.000 A 
ATOM     25  C   UNL     1      -0.336  14.491  22.336  0.00  0.00    +0.000 A 
ATOM     26 CL   UNL     1       0.048  16.167  22.223  0.00  0.00    +0.000 Cl
ATOM     27  C   UNL     1       0.396  13.562  21.593  0.00  0.00    +0.000 A 
ENDBRANCH   7  21
TORSDOF 2
ENDMDL
MODEL 4
REMARK VINA RESULT:      -7.8      3.484      8.574
REMARK  Name = 
REMARK  2 active torsions:
REMARK  status: ('A' for Active; 'I' for Inactive)
REMARK    1  A    between atoms: N_3  and  C_4
REMARK    2  A    between atoms: N_17  and  C_18
REMARK                            x       y       z     vdW  Elec       q    Type
REMARK                         _______ _______ _______ _____ _____    ______ ____
ROOT
ATOM      1  O   UNL     1       0.902  11.747  21.276  0.00  0.00    +0.000 OA
ATOM      2  C   UNL     1       1.135  11.333  20.144  0.00  0.00    +0.000 C 
ATOM      3  N   UNL     1       1.652  12.132  19.160  0.00  0.00    +0.000 N 
ATOM      4  N   UNL     1       0.921  10.017  19.785  0.00  0.00    +0.000 N 
ATOM      5  C   UNL     1       1.243   9.381  18.500  0.00  0.00    +0.000 C 
ATOM      6  C   UNL     1       2.369   8.338  18.655  0.00  0.00    +0.000 C 
ATOM      7  N   UNL     1       1.999   7.369  19.700  0.00  0.00    +0.000 N 
ATOM      8  C   UNL     1       1.667   7.975  21.004  0.00  0.00    +0.000 C 
ATOM      9  C   UNL     1       0.573   9.053  20.843  0.00  0.00    +0.000 C 
ATOM     10  H   UNL     1       1.425  11.869  18.218  0.00  0.00    +0.000 HD
ENDROOT
BRANCH   3  11
ATOM     11  C   UNL     1       1.993  13.550  19.332  0.00  0.00    +0.000 C 
ATOM     12  C   UNL     1       2.889  13.781  20.577  0.00  0.00    +0.000 C 
ATOM     13  C   UNL     1       3.301  15.257  20.680  0.00  0.00    +0.000 C 
ATOM     14  C   UNL     1       4.077  15.651  19.414  0.00  0.00    +0.000 C 
ATOM     15  C   UNL     1       3.183  15.480  18.175  0.00  0.00    +0.000 C 
ATOM     16  C   UNL     1       2.767  14.007  18.069  0.00  0.00    +0.000 C 
ATOM     17  C   UNL     1       1.923  16.347  18.321  0.00  0.00    +0.000 C 
ATOM     18  C   UNL     1       1.135  15.924  19.572  0.00  0.00    +0.000 C 
ATOM     19  C   UNL     1       0.734  14.441  19.456  0.00  0.00    +0.000 C 
ATOM     20  C   UNL     1       2.035  16.123  20.804  0.00  0.00    +0.000 C 
ENDBRANCH   3  11
BRANCH   7  21
ATOM     21  C   UNL     1       1.935   6.013  19.453  0.00  0.00    +0.000 A 
ATOM     22  C   UNL     1       2.120   5.484  18.167  0.00  0.00    +0.000 A 
ATOM     23  C   UNL     1       2.068   4.107  17.914  0.00  0.00    +0.000 A 
ATOM     24  C   UNL     1       1.822   3.219  18.950  0.00  0.00    +0.000 A 
ATOM     25  C   UNL     1       1.632   3.715  20.235  0.00  0.00    +0.000 A 
ATOM     26 CL   UNL     1       1.316   2.627  21.534  0.00  0.00    +0.000 Cl
ATOM     27  C   UNL     1       1.688   5.089  20.482  0.00  0.00    +0.000 A 
ENDBRANCH   7  21
TORSDOF 2
ENDMDL
MODEL 5
REMARK VINA RESULT:      -7.7      0.087      1.477
REMARK  Name = 
REMARK  2 active torsions:
REMARK  status: ('A' for Active; 'I' for Inactive)
REMARK    1  A    between atoms: N_3  and  C_4
REMARK    2  A    between atoms: N_17  and  C_18
REMARK                            x       y       z     vdW  Elec       q    Type
REMARK                         _______ _______ _______ _____ _____    ______ ____
ROOT
ATOM      1  O   UNL     1       2.408   8.589  17.330  0.00  0.00    +0.000 OA
ATOM      2  C   UNL     1       2.001   8.283  18.447  0.00  0.00    +0.000 C 
ATOM      3  N   UNL     1       2.426   7.158  19.102  0.00  0.00    +0.000 N 
ATOM      4  N   UNL     1       1.105   9.069  19.143  0.00  0.00    +0.000 N 
ATOM      5  C   UNL     1       0.615   8.862  20.513  0.00  0.00    +0.000 C 
ATOM      6  C   UNL     1       1.121   9.966  21.464  0.00  0.00    +0.000 C 
ATOM      7  N   UNL     1       0.762  11.286  20.918  0.00  0.00    +0.000 N 
ATOM      8  C   UNL     1       1.237  11.526  19.541  0.00  0.00    +0.000 C 
ATOM      9  C   UNL     1       0.770  10.396  18.597  0.00  0.00    +0.000 C 
ATOM     10  H   UNL     1       1.781   6.768  19.765  0.00  0.00    +0.000 HD
ENDROOT
BRANCH   3  11
ATOM     11  C   UNL     1       3.404   6.203  18.568  0.00  0.00    +0.000 C 
ATOM     12  C   UNL     1       2.729   5.115  17.692  0.00  0.00    +0.000 C 
ATOM     13  C   UNL     1       3.785   4.185  17.077  0.00  0.00    +0.000 C 
ATOM     14  C   UNL     1       4.742   5.016  16.208  0.00  0.00    +0.000 C 
ATOM     15  C   UNL     1       5.461   6.064  17.074  0.00  0.00    +0.000 C 
ATOM     16  C   UNL     1       4.410   6.995  17.693  0.00  0.00    +0.000 C 
ATOM     17  C   UNL     1       6.234   5.363  18.201  0.00  0.00    +0.000 C 
ATOM     18  C   UNL     1       5.265   4.560  19.084  0.00  0.00    +0.000 C 
ATOM     19  C   UNL     1       4.210   5.505  19.689  0.00  0.00    +0.000 C 
ATOM     20  C   UNL     1       4.572   3.502  18.209  0.00  0.00    +0.000 C 
ENDBRANCH   3  11
BRANCH   7  21
ATOM     21  C   UNL     1       0.011  12.196  21.632  0.00  0.00    +0.000 A 
ATOM     22  C   UNL     1       0.364  13.552  21.710  0.00  0.00    +0.000 A 
ATOM     23  C   UNL     1      -0.402  14.481  22.425  0.00  0.00    +0.000 A 
ATOM     24  C   UNL     1      -1.549  14.072  23.089  0.00  0.00    +0.000 A 
ATOM     25  C   UNL     1      -1.922  12.733  23.032  0.00  0.00    +0.000 A 
ATOM     26 CL   UNL     1      -3.339  12.205  23.859  0.00  0.00    +0.000 Cl
ATOM     27  C   UNL     1      -1.155  11.812  22.315  0.00  0.00    +0.000 A 
ENDBRANCH   7  21
TORSDOF 2
ENDMDL
MODEL 6
REMARK VINA RESULT:      -7.7      1.082      2.032
REMARK  Name = 
REMARK  2 active torsions:
REMARK  status: ('A' for Active; 'I' for Inactive)
REMARK    1  A    between atoms: N_3  and  C_4
REMARK    2  A    between atoms: N_17  and  C_18
REMARK                            x       y       z     vdW  Elec       q    Type
REMARK                         _______ _______ _______ _____ _____    ______ ____
ROOT
ATOM      1  O   UNL     1       2.426   8.529  17.339  0.00  0.00    +0.000 OA
ATOM      2  C   UNL     1       2.012   8.222  18.454  0.00  0.00    +0.000 C 
ATOM      3  N   UNL     1       2.417   7.088  19.103  0.00  0.00    +0.000 N 
ATOM      4  N   UNL     1       1.126   9.019  19.152  0.00  0.00    +0.000 N 
ATOM      5  C   UNL     1       0.631   8.812  20.520  0.00  0.00    +0.000 C 
ATOM      6  C   UNL     1       1.152   9.903  21.478  0.00  0.00    +0.000 C 
ATOM      7  N   UNL     1       0.815  11.231  20.939  0.00  0.00    +0.000 N 
ATOM      8  C   UNL     1       1.297  11.471  19.564  0.00  0.00    +0.000 C 
ATOM      9  C   UNL     1       0.815  10.354  18.614  0.00  0.00    +0.000 C 
ATOM     10  H   UNL     1       1.764   6.704  19.763  0.00  0.00    +0.000 HD
ENDROOT
BRANCH   3  11
ATOM     11  C   UNL     1       3.381   6.119  18.566  0.00  0.00    +0.000 C 
ATOM     12  C   UNL     1       4.212   5.448  19.691  0.00  0.00    +0.000 C 
ATOM     13  C   UNL     1       5.147   4.379  19.106  0.00  0.00    +0.000 C 
ATOM     14  C   UNL     1       4.305   3.312  18.390  0.00  0.00    +0.000 C 
ATOM     15  C   UNL     1       3.516   3.953  17.236  0.00  0.00    +0.000 C 
ATOM     16  C   UNL     1       2.582   5.023  17.814  0.00  0.00    +0.000 C 
ATOM     17  C   UNL     1       4.489   4.618  16.249  0.00  0.00    +0.000 C 
ATOM     18  C   UNL     1       5.304   5.706  16.967  0.00  0.00    +0.000 C 
ATOM     19  C   UNL     1       4.353   6.767  17.551  0.00  0.00    +0.000 C 
ATOM     20  C   UNL     1       6.104   5.045  18.102  0.00  0.00    +0.000 C 
ENDBRANCH   3  11
BRANCH   7  21
ATOM     21  C   UNL     1       0.077  12.149  21.657  0.00  0.00    +0.000 A 
ATOM     22  C   UNL     1      -0.957  11.756  22.521  0.00  0.00    +0.000 A 
ATOM     23  C   UNL     1      -1.702  12.683  23.261  0.00  0.00    +0.000 A 
ATOM     24  C   UNL     1      -1.430  14.039  23.151  0.00  0.00    +0.000 A 
ATOM     25  C   UNL     1      -0.413  14.458  22.300  0.00  0.00    +0.000 A 
ATOM     26 CL   UNL     1      -0.068  16.139  22.143  0.00  0.00    +0.000 Cl
ATOM     27  C   UNL     1       0.328  13.528  21.567  0.00  0.00    +0.000 A 
ENDBRANCH   7  21
TORSDOF 2
ENDMDL
MODEL 7
REMARK VINA RESULT:      -7.6      3.473      8.588
REMARK  Name = 
REMARK  2 active torsions:
REMARK  status: ('A' for Active; 'I' for Inactive)
REMARK    1  A    between atoms: N_3  and  C_4
REMARK    2  A    between atoms: N_17  and  C_18
REMARK                            x       y       z     vdW  Elec       q    Type
REMARK                         _______ _______ _______ _____ _____    ______ ____
ROOT
ATOM      1  O   UNL     1       0.923  11.782  21.220  0.00  0.00    +0.000 OA
ATOM      2  C   UNL     1       1.167  11.362  20.093  0.00  0.00    +0.000 C 
ATOM      3  N   UNL     1       1.706  12.152  19.113  0.00  0.00    +0.000 N 
ATOM      4  N   UNL     1       0.945  10.046  19.736  0.00  0.00    +0.000 N 
ATOM      5  C   UNL     1       1.279   9.402  18.457  0.00  0.00    +0.000 C 
ATOM      6  C   UNL     1       2.392   8.349  18.632  0.00  0.00    +0.000 C 
ATOM      7  N   UNL     1       1.998   7.387  19.675  0.00  0.00    +0.000 N 
ATOM      8  C   UNL     1       1.654   8.002  20.972  0.00  0.00    +0.000 C 
ATOM      9  C   UNL     1       0.573   9.090  20.792  0.00  0.00    +0.000 C 
ATOM     10  H   UNL     1       1.489  11.887  18.169  0.00  0.00    +0.000 HD
ENDROOT
BRANCH   3  11
ATOM     11  C   UNL     1       2.058  13.567  19.285  0.00  0.00    +0.000 C 
ATOM     12  C   UNL     1       2.836  14.119  18.062  0.00  0.00    +0.000 C 
ATOM     13  C   UNL     1       3.112  15.621  18.231  0.00  0.00    +0.000 C 
ATOM     14  C   UNL     1       1.775  16.366  18.364  0.00  0.00    +0.000 C 
ATOM     15  C   UNL     1       1.017  15.867  19.605  0.00  0.00    +0.000 C 
ATOM     16  C   UNL     1       0.739  14.367  19.441  0.00  0.00    +0.000 C 
ATOM     17  C   UNL     1       1.876  16.084  20.860  0.00  0.00    +0.000 C 
ATOM     18  C   UNL     1       3.198  15.309  20.733  0.00  0.00    +0.000 C 
ATOM     19  C   UNL     1       2.903  13.806  20.558  0.00  0.00    +0.000 C 
ATOM     20  C   UNL     1       3.955  15.835  19.501  0.00  0.00    +0.000 C 
ENDBRANCH   3  11
BRANCH   7  21
ATOM     21  C   UNL     1       1.924   6.031  19.433  0.00  0.00    +0.000 A 
ATOM     22  C   UNL     1       2.078   5.499  18.143  0.00  0.00    +0.000 A 
ATOM     23  C   UNL     1       2.015   4.122  17.894  0.00  0.00    +0.000 A 
ATOM     24  C   UNL     1       1.790   3.236  18.938  0.00  0.00    +0.000 A 
ATOM     25  C   UNL     1       1.630   3.736  20.226  0.00  0.00    +0.000 A 
ATOM     26 CL   UNL     1       1.340   2.651  21.533  0.00  0.00    +0.000 Cl
ATOM     27  C   UNL     1       1.697   5.110  20.468  0.00  0.00    +0.000 A 
ENDBRANCH   7  21
TORSDOF 2
ENDMDL
MODEL 8
REMARK VINA RESULT:      -7.6      3.469      8.544
REMARK  Name = 
REMARK  2 active torsions:
REMARK  status: ('A' for Active; 'I' for Inactive)
REMARK    1  A    between atoms: N_3  and  C_4
REMARK    2  A    between atoms: N_17  and  C_18
REMARK                            x       y       z     vdW  Elec       q    Type
REMARK                         _______ _______ _______ _____ _____    ______ ____
ROOT
ATOM      1  O   UNL     1       0.946  11.792  21.211  0.00  0.00    +0.000 OA
ATOM      2  C   UNL     1       1.151  11.367  20.077  0.00  0.00    +0.000 C 
ATOM      3  N   UNL     1       1.640  12.157  19.072  0.00  0.00    +0.000 N 
ATOM      4  N   UNL     1       0.933  10.046  19.738  0.00  0.00    +0.000 N 
ATOM      5  C   UNL     1       1.225   9.398  18.452  0.00  0.00    +0.000 C 
ATOM      6  C   UNL     1       2.358   8.360  18.589  0.00  0.00    +0.000 C 
ATOM      7  N   UNL     1       2.018   7.401  19.654  0.00  0.00    +0.000 N 
ATOM      8  C   UNL     1       1.717   8.020  20.959  0.00  0.00    +0.000 C 
ATOM      9  C   UNL     1       0.615   9.093  20.814  0.00  0.00    +0.000 C 
ATOM     10  H   UNL     1       1.391  11.883  18.138  0.00  0.00    +0.000 HD
ENDROOT
BRANCH   3  11
ATOM     11  C   UNL     1       1.980  13.578  19.220  0.00  0.00    +0.000 C 
ATOM     12  C   UNL     1       0.714  14.461  19.370  0.00  0.00    +0.000 C 
ATOM     13  C   UNL     1       1.104  15.927  19.611  0.00  0.00    +0.000 C 
ATOM     14  C   UNL     1       1.943  16.019  20.895  0.00  0.00    +0.000 C 
ATOM     15  C   UNL     1       3.230  15.191  20.741  0.00  0.00    +0.000 C 
ATOM     16  C   UNL     1       2.846  13.726  20.498  0.00  0.00    +0.000 C 
ATOM     17  C   UNL     1       4.036  15.704  19.538  0.00  0.00    +0.000 C 
ATOM     18  C   UNL     1       3.201  15.579  18.253  0.00  0.00    +0.000 C 
ATOM     19  C   UNL     1       2.814  14.105  18.028  0.00  0.00    +0.000 C 
ATOM     20  C   UNL     1       1.930  16.430  18.414  0.00  0.00    +0.000 C 
ENDBRANCH   3  11
BRANCH   7  21
ATOM     21  C   UNL     1       1.953   6.043  19.423  0.00  0.00    +0.000 A 
ATOM     22  C   UNL     1       2.140   5.497  18.144  0.00  0.00    +0.000 A 
ATOM     23  C   UNL     1       2.086   4.118  17.907  0.00  0.00    +0.000 A 
ATOM     24  C   UNL     1       1.837   3.242  18.954  0.00  0.00    +0.000 A 
ATOM     25  C   UNL     1       1.644   3.755  20.232  0.00  0.00    +0.000 A 
ATOM     26 CL   UNL     1       1.324   2.683  21.543  0.00  0.00    +0.000 Cl
ATOM     27  C   UNL     1       1.702   5.131  20.462  0.00  0.00    +0.000 A 
ENDBRANCH   7  21
TORSDOF 2
ENDMDL
MODEL 9
REMARK VINA RESULT:      -7.5      1.081      2.054
REMARK  Name = 
REMARK  2 active torsions:
REMARK  status: ('A' for Active; 'I' for Inactive)
REMARK    1  A    between atoms: N_3  and  C_4
REMARK    2  A    between atoms: N_17  and  C_18
REMARK                            x       y       z     vdW  Elec       q    Type
REMARK                         _______ _______ _______ _____ _____    ______ ____
ROOT
ATOM      1  O   UNL     1       2.438   8.597  17.328  0.00  0.00    +0.000 OA
ATOM      2  C   UNL     1       2.025   8.292  18.444  0.00  0.00    +0.000 C 
ATOM      3  N   UNL     1       2.433   7.160  19.096  0.00  0.00    +0.000 N 
ATOM      4  N   UNL     1       1.137   9.088  19.141  0.00  0.00    +0.000 N 
ATOM      5  C   UNL     1       0.643   8.883  20.510  0.00  0.00    +0.000 C 
ATOM      6  C   UNL     1       1.162   9.977  21.465  0.00  0.00    +0.000 C 
ATOM      7  N   UNL     1       0.821  11.304  20.923  0.00  0.00    +0.000 N 
ATOM      8  C   UNL     1       1.301  11.541  19.547  0.00  0.00    +0.000 C 
ATOM      9  C   UNL     1       0.822  10.421  18.599  0.00  0.00    +0.000 C 
ATOM     10  H   UNL     1       1.782   6.776  19.757  0.00  0.00    +0.000 HD
ENDROOT
BRANCH   3  11
ATOM     11  C   UNL     1       3.400   6.194  18.560  0.00  0.00    +0.000 C 
ATOM     12  C   UNL     1       2.710   5.108  17.693  0.00  0.00    +0.000 C 
ATOM     13  C   UNL     1       3.754   4.166  17.076  0.00  0.00    +0.000 C 
ATOM     14  C   UNL     1       4.713   4.985  16.198  0.00  0.00    +0.000 C 
ATOM     15  C   UNL     1       5.446   6.030  17.054  0.00  0.00    +0.000 C 
ATOM     16  C   UNL     1       4.407   6.973  17.675  0.00  0.00    +0.000 C 
ATOM     17  C   UNL     1       6.220   5.327  18.180  0.00  0.00    +0.000 C 
ATOM     18  C   UNL     1       5.249   4.537  19.072  0.00  0.00    +0.000 C 
ATOM     19  C   UNL     1       4.206   5.494  19.679  0.00  0.00    +0.000 C 
ATOM     20  C   UNL     1       4.542   3.481  18.206  0.00  0.00    +0.000 C 
ENDBRANCH   3  11
BRANCH   7  21
ATOM     21  C   UNL     1       0.080  12.220  21.639  0.00  0.00    +0.000 A 
ATOM     22  C   UNL     1      -0.991  11.831  22.459  0.00  0.00    +0.000 A 
ATOM     23  C   UNL     1      -1.738  12.757  23.197  0.00  0.00    +0.000 A 
ATOM     24  C   UNL     1      -1.432  14.109  23.130  0.00  0.00    +0.000 A 
ATOM     25  C   UNL     1      -0.378  14.524  22.323  0.00  0.00    +0.000 A 
ATOM     26 CL   UNL     1       0.010  16.200  22.220  0.00  0.00    +0.000 Cl
ATOM     27  C   UNL     1       0.366  13.595  21.592  0.00  0.00    +0.000 A 
ENDBRANCH   7  21
TORSDOF 2
ENDMDL
