MODEL 1
REMARK VINA RESULT:      -8.3      0.000      0.000
REMARK  Name = 
REMARK  8 active torsions:
REMARK  status: ('A' for Active; 'I' for Inactive)
REMARK    1  A    between atoms: C_2  and  O_3
REMARK    2  A    between atoms: C_2  and  C_4
REMARK    3  A    between atoms: C_4  and  C_5
REMARK    4  A    between atoms: C_5  and  C_6
REMARK    5  A    between atoms: C_9  and  O_10
REMARK    6  A    between atoms: O_10  and  C_11
REMARK    7  A    between atoms: C_11  and  C_12
REMARK    8  A    between atoms: C_18  and  C_19
REMARK                            x       y       z     vdW  Elec       q    Type
REMARK                         _______ _______ _______ _____ _____    ______ ____
ROOT
ATOM      1  C   UNL     1       0.377  10.952  20.239  0.00  0.00    +0.000 C 
ENDROOT
BRANCH   1   2
ATOM      2  C   UNL     1       1.145   9.650  20.469  0.00  0.00    +0.000 C 
ATOM      3  C   UNL     1       0.287   8.680  21.279  0.00  0.00    +0.000 C 
ATOM      4  O   UNL     1       0.928   7.417  21.485  0.00  0.00    +0.000 OA
ATOM      5  C   UNL     1       1.639   7.001  20.393  0.00  0.00    +0.000 A 
ATOM      6  C   UNL     1       2.151   5.710  20.428  0.00  0.00    +0.000 A 
ATOM      7  C   UNL     1       2.953   5.244  19.377  0.00  0.00    +0.000 A 
ATOM      8  C   UNL     1       3.247   6.052  18.260  0.00  0.00    +0.000 A 
ATOM      9  C   UNL     1       2.671   7.332  18.229  0.00  0.00    +0.000 A 
ATOM     10  C   UNL     1       1.897   7.808  19.290  0.00  0.00    +0.000 A 
ATOM     11  O   UNL     1       1.430   9.087  19.176  0.00  0.00    +0.000 OA
BRANCH   8  12
ATOM     12  C   UNL     1       4.152   5.591  17.178  0.00  0.00    +0.000 A 
ATOM     13  C   UNL     1       4.333   4.224  16.893  0.00  0.00    +0.000 A 
ATOM     14  C   UNL     1       5.203   3.796  15.883  0.00  0.00    +0.000 A 
ATOM     15  C   UNL     1       5.900   4.729  15.125  0.00  0.00    +0.000 A 
ATOM     16 CL   UNL     1       6.964   4.204  13.881  0.00  0.00    +0.000 Cl
ATOM     17  C   UNL     1       5.742   6.086  15.376  0.00  0.00    +0.000 A 
ATOM     18  C   UNL     1       4.884   6.509  16.397  0.00  0.00    +0.000 A 
ENDBRANCH   8  12
ENDBRANCH   1   2
BRANCH   1  19
ATOM     19  O   UNL     1       0.094  11.561  21.501  0.00  0.00    +0.000 OA
BRANCH  19  23
ATOM     20  C   UNL     1      -3.812  12.842  22.432  0.00  0.00    +0.000 A 
ATOM     21  C   UNL     1      -2.988  12.135  23.329  0.00  0.00    +0.000 A 
ATOM     22  C   UNL     1      -1.699  11.718  22.980  0.00  0.00    +0.000 A 
ATOM     23  C   UNL     1      -1.196  11.964  21.706  0.00  0.00    +0.000 A 
ATOM     24  C   UNL     1      -2.000  12.623  20.783  0.00  0.00    +0.000 A 
ATOM     25  C   UNL     1      -3.283  13.050  21.144  0.00  0.00    +0.000 A 
BRANCH  20  26
ATOM     26  C   UNL     1      -5.222  13.481  22.868  0.00  0.00    +0.000 C 
ATOM     27  C   UNL     1      -6.333  13.670  21.799  0.00  0.00    +0.000 C 
ATOM     28  O   UNL     1      -6.065  15.093  21.717  0.00  0.00    +0.000 OA
ATOM     29  C   UNL     1      -5.297  15.032  22.939  0.00  0.00    +0.000 C 
BRANCH  26  30
ATOM     30  C   UNL     1      -5.683  12.832  24.186  0.00  0.00    +0.000 C 
BRANCH  30  32
ATOM     31  O   UNL     1      -7.630  11.457  23.783  0.00  0.00    +0.000 OA
ATOM     32  C   UNL     1      -7.150  12.492  24.229  0.00  0.00    +0.000 C 
BRANCH  32  33
ATOM     33  O   UNL     1      -7.915  13.479  24.741  0.00  0.00    +0.000 OA
ATOM     34  H   UNL     1      -8.489  13.210  25.482  0.00  0.00    +0.000 HD
ENDBRANCH  32  33
ENDBRANCH  30  32
ENDBRANCH  26  30
ENDBRANCH  20  26
ENDBRANCH  19  23
ENDBRANCH   1  19
TORSDOF 8
ENDMDL
MODEL 2
REMARK VINA RESULT:      -8.1      2.156      3.265
REMARK  Name = 
REMARK  8 active torsions:
REMARK  status: ('A' for Active; 'I' for Inactive)
REMARK    1  A    between atoms: C_2  and  O_3
REMARK    2  A    between atoms: C_2  and  C_4
REMARK    3  A    between atoms: C_4  and  C_5
REMARK    4  A    between atoms: C_5  and  C_6
REMARK    5  A    between atoms: C_9  and  O_10
REMARK    6  A    between atoms: O_10  and  C_11
REMARK    7  A    between atoms: C_11  and  C_12
REMARK    8  A    between atoms: C_18  and  C_19
REMARK                            x       y       z     vdW  Elec       q    Type
REMARK                         _______ _______ _______ _____ _____    ______ ____
ROOT
ATOM      1  C   UNL     1      -0.494  10.953  22.469  0.00  0.00    +0.000 C 
ENDROOT
BRANCH   1   2
ATOM      2  C   UNL     1      -0.119  10.432  21.082  0.00  0.00    +0.000 C 
ATOM      3  C   UNL     1       0.611  11.522  20.300  0.00  0.00    +0.000 C 
ATOM      4  O   UNL     1       1.038  11.081  19.007  0.00  0.00    +0.000 OA
ATOM      5  C   UNL     1       1.480   9.787  19.009  0.00  0.00    +0.000 A 
ATOM      6  C   UNL     1       2.079   9.323  17.845  0.00  0.00    +0.000 A 
ATOM      7  C   UNL     1       2.487   7.985  17.751  0.00  0.00    +0.000 A 
ATOM      8  C   UNL     1       2.320   7.086  18.824  0.00  0.00    +0.000 A 
ATOM      9  C   UNL     1       1.760   7.598  20.005  0.00  0.00    +0.000 A 
ATOM     10  C   UNL     1       1.326   8.924  20.090  0.00  0.00    +0.000 A 
ATOM     11  O   UNL     1       0.749   9.300  21.269  0.00  0.00    +0.000 OA
BRANCH   8  12
ATOM     12  C   UNL     1       2.685   5.652  18.706  0.00  0.00    +0.000 A 
ATOM     13  C   UNL     1       1.968   4.769  17.877  0.00  0.00    +0.000 A 
ATOM     14  C   UNL     1       2.307   3.413  17.786  0.00  0.00    +0.000 A 
ATOM     15  C   UNL     1       3.381   2.915  18.513  0.00  0.00    +0.000 A 
ATOM     16 CL   UNL     1       3.801   1.252  18.397  0.00  0.00    +0.000 Cl
ATOM     17  C   UNL     1       4.114   3.760  19.338  0.00  0.00    +0.000 A 
ATOM     18  C   UNL     1       3.761   5.110  19.438  0.00  0.00    +0.000 A 
ENDBRANCH   8  12
ENDBRANCH   1   2
BRANCH   1  19
ATOM     19  O   UNL     1      -0.916  12.315  22.363  0.00  0.00    +0.000 OA
BRANCH  19  23
ATOM     20  C   UNL     1      -5.088  12.911  22.309  0.00  0.00    +0.000 A 
ATOM     21  C   UNL     1      -4.268  13.021  21.168  0.00  0.00    +0.000 A 
ATOM     22  C   UNL     1      -2.884  12.826  21.228  0.00  0.00    +0.000 A 
ATOM     23  C   UNL     1      -2.261  12.542  22.439  0.00  0.00    +0.000 A 
ATOM     24  C   UNL     1      -3.037  12.467  23.591  0.00  0.00    +0.000 A 
ATOM     25  C   UNL     1      -4.422  12.650  23.521  0.00  0.00    +0.000 A 
BRANCH  20  26
ATOM     26  C   UNL     1      -6.694  12.958  22.232  0.00  0.00    +0.000 C 
ATOM     27  C   UNL     1      -7.527  12.415  23.425  0.00  0.00    +0.000 C 
ATOM     28  O   UNL     1      -7.837  11.197  22.704  0.00  0.00    +0.000 OA
ATOM     29  C   UNL     1      -7.394  11.800  21.468  0.00  0.00    +0.000 C 
BRANCH  26  30
ATOM     30  C   UNL     1      -7.132  14.334  21.697  0.00  0.00    +0.000 C 
BRANCH  30  32
ATOM     31  O   UNL     1      -7.190  15.799  23.619  0.00  0.00    +0.000 OA
ATOM     32  C   UNL     1      -6.686  15.498  22.544  0.00  0.00    +0.000 C 
BRANCH  32  33
ATOM     33  O   UNL     1      -5.717  16.240  21.969  0.00  0.00    +0.000 OA
ATOM     34  H   UNL     1      -5.874  16.466  21.033  0.00  0.00    +0.000 HD
ENDBRANCH  32  33
ENDBRANCH  30  32
ENDBRANCH  26  30
ENDBRANCH  20  26
ENDBRANCH  19  23
ENDBRANCH   1  19
TORSDOF 8
ENDMDL
MODEL 3
REMARK VINA RESULT:      -8.0      5.137     10.259
REMARK  Name = 
REMARK  8 active torsions:
REMARK  status: ('A' for Active; 'I' for Inactive)
REMARK    1  A    between atoms: C_2  and  O_3
REMARK    2  A    between atoms: C_2  and  C_4
REMARK    3  A    between atoms: C_4  and  C_5
REMARK    4  A    between atoms: C_5  and  C_6
REMARK    5  A    between atoms: C_9  and  O_10
REMARK    6  A    between atoms: O_10  and  C_11
REMARK    7  A    between atoms: C_11  and  C_12
REMARK    8  A    between atoms: C_18  and  C_19
REMARK                            x       y       z     vdW  Elec       q    Type
REMARK                         _______ _______ _______ _____ _____    ______ ____
ROOT
ATOM      1  C   UNL     1      -0.262  10.662  19.270  0.00  0.00    +0.000 C 
ENDROOT
BRANCH   1   2
ATOM      2  C   UNL     1       0.111  12.059  18.772  0.00  0.00    +0.000 C 
ATOM      3  C   UNL     1      -0.861  13.088  19.347  0.00  0.00    +0.000 C 
ATOM      4  O   UNL     1      -0.535  14.428  18.961  0.00  0.00    +0.000 OA
ATOM      5  C   UNL     1       0.813  14.657  18.932  0.00  0.00    +0.000 A 
ATOM      6  C   UNL     1       1.226  15.970  18.742  0.00  0.00    +0.000 A 
ATOM      7  C   UNL     1       2.591  16.265  18.627  0.00  0.00    +0.000 A 
ATOM      8  C   UNL     1       3.575  15.260  18.714  0.00  0.00    +0.000 A 
ATOM      9  C   UNL     1       3.128  13.951  18.959  0.00  0.00    +0.000 A 
ATOM     10  C   UNL     1       1.766  13.650  19.045  0.00  0.00    +0.000 A 
ATOM     11  O   UNL     1       1.445  12.336  19.233  0.00  0.00    +0.000 OA
BRANCH   8  12
ATOM     12  C   UNL     1       5.015  15.556  18.522  0.00  0.00    +0.000 A 
ATOM     13  C   UNL     1       5.596  16.753  18.984  0.00  0.00    +0.000 A 
ATOM     14  C   UNL     1       6.953  17.033  18.783  0.00  0.00    +0.000 A 
ATOM     15  C   UNL     1       7.762  16.114  18.125  0.00  0.00    +0.000 A 
ATOM     16 CL   UNL     1       9.429  16.457  17.883  0.00  0.00    +0.000 Cl
ATOM     17  C   UNL     1       7.224  14.921  17.660  0.00  0.00    +0.000 A 
ATOM     18  C   UNL     1       5.864  14.653  17.849  0.00  0.00    +0.000 A 
ENDBRANCH   8  12
ENDBRANCH   1   2
BRANCH   1  19
ATOM     19  O   UNL     1       0.804  10.146  20.070  0.00  0.00    +0.000 OA
BRANCH  19  23
ATOM     20  C   UNL     1       2.555   6.516  18.837  0.00  0.00    +0.000 A 
ATOM     21  C   UNL     1       2.123   6.766  20.155  0.00  0.00    +0.000 A 
ATOM     22  C   UNL     1       1.554   7.989  20.528  0.00  0.00    +0.000 A 
ATOM     23  C   UNL     1       1.425   9.021  19.604  0.00  0.00    +0.000 A 
ATOM     24  C   UNL     1       1.880   8.821  18.306  0.00  0.00    +0.000 A 
ATOM     25  C   UNL     1       2.435   7.591  17.936  0.00  0.00    +0.000 A 
BRANCH  20  26
ATOM     26  C   UNL     1       3.046   5.065  18.346  0.00  0.00    +0.000 C 
ATOM     27  C   UNL     1       4.001   4.240  19.251  0.00  0.00    +0.000 C 
ATOM     28  O   UNL     1       5.139   4.567  18.414  0.00  0.00    +0.000 OA
ATOM     29  C   UNL     1       4.254   5.027  17.369  0.00  0.00    +0.000 C 
BRANCH  26  30
ATOM     30  C   UNL     1       1.840   4.290  17.784  0.00  0.00    +0.000 C 
BRANCH  30  32
ATOM     31  O   UNL     1       2.438   1.953  17.613  0.00  0.00    +0.000 OA
ATOM     32  C   UNL     1       1.802   2.836  18.177  0.00  0.00    +0.000 C 
BRANCH  32  33
ATOM     33  O   UNL     1       0.932   2.572  19.174  0.00  0.00    +0.000 OA
ATOM     34  H   UNL     1       0.626   3.354  19.669  0.00  0.00    +0.000 HD
ENDBRANCH  32  33
ENDBRANCH  30  32
ENDBRANCH  26  30
ENDBRANCH  20  26
ENDBRANCH  19  23
ENDBRANCH   1  19
TORSDOF 8
ENDMDL
MODEL 4
REMARK VINA RESULT:      -7.8      4.712     11.498
REMARK  Name = 
REMARK  8 active torsions:
REMARK  status: ('A' for Active; 'I' for Inactive)
REMARK    1  A    between atoms: C_2  and  O_3
REMARK    2  A    between atoms: C_2  and  C_4
REMARK    3  A    between atoms: C_4  and  C_5
REMARK    4  A    between atoms: C_5  and  C_6
REMARK    5  A    between atoms: C_9  and  O_10
REMARK    6  A    between atoms: O_10  and  C_11
REMARK    7  A    between atoms: C_11  and  C_12
REMARK    8  A    between atoms: C_18  and  C_19
REMARK                            x       y       z     vdW  Elec       q    Type
REMARK                         _______ _______ _______ _____ _____    ______ ____
ROOT
ATOM      1  C   UNL     1       1.564   9.446  17.854  0.00  0.00    +0.000 C 
ENDROOT
BRANCH   1   2
ATOM      2  C   UNL     1       1.336  10.557  18.879  0.00  0.00    +0.000 C 
ATOM      3  C   UNL     1       1.957  11.859  18.377  0.00  0.00    +0.000 C 
ATOM      4  O   UNL     1       1.733  12.956  19.268  0.00  0.00    +0.000 OA
ATOM      5  C   UNL     1       0.489  12.931  19.836  0.00  0.00    +0.000 A 
ATOM      6  C   UNL     1       0.111  14.043  20.577  0.00  0.00    +0.000 A 
ATOM      7  C   UNL     1      -1.120  14.054  21.248  0.00  0.00    +0.000 A 
ATOM      8  C   UNL     1      -2.006  12.960  21.181  0.00  0.00    +0.000 A 
ATOM      9  C   UNL     1      -1.619  11.873  20.381  0.00  0.00    +0.000 A 
ATOM     10  C   UNL     1      -0.380  11.849  19.736  0.00  0.00    +0.000 A 
ATOM     11  O   UNL     1      -0.085  10.719  19.027  0.00  0.00    +0.000 OA
BRANCH   8  12
ATOM     12  C   UNL     1      -3.277  12.936  21.946  0.00  0.00    +0.000 A 
ATOM     13  C   UNL     1      -4.519  13.182  21.330  0.00  0.00    +0.000 A 
ATOM     14  C   UNL     1      -5.713  13.176  22.063  0.00  0.00    +0.000 A 
ATOM     15  C   UNL     1      -5.690  12.909  23.426  0.00  0.00    +0.000 A 
ATOM     16 CL   UNL     1      -7.156  12.896  24.325  0.00  0.00    +0.000 Cl
ATOM     17  C   UNL     1      -4.482  12.657  24.066  0.00  0.00    +0.000 A 
ATOM     18  C   UNL     1      -3.291  12.680  23.333  0.00  0.00    +0.000 A 
ENDBRANCH   8  12
ENDBRANCH   1   2
BRANCH   1  19
ATOM     19  O   UNL     1       2.836   8.838  18.092  0.00  0.00    +0.000 OA
BRANCH  19  23
ATOM     20  C   UNL     1       2.589   4.706  18.891  0.00  0.00    +0.000 A 
ATOM     21  C   UNL     1       2.205   5.704  19.808  0.00  0.00    +0.000 A 
ATOM     22  C   UNL     1       2.310   7.066  19.510  0.00  0.00    +0.000 A 
ATOM     23  C   UNL     1       2.836   7.486  18.292  0.00  0.00    +0.000 A 
ATOM     24  C   UNL     1       3.263   6.527  17.380  0.00  0.00    +0.000 A 
ATOM     25  C   UNL     1       3.141   5.166  17.679  0.00  0.00    +0.000 A 
BRANCH  20  26
ATOM     26  C   UNL     1       2.314   3.142  19.141  0.00  0.00    +0.000 C 
ATOM     27  C   UNL     1       0.977   2.519  18.656  0.00  0.00    +0.000 C 
ATOM     28  O   UNL     1       0.446   2.511  20.005  0.00  0.00    +0.000 OA
ATOM     29  C   UNL     1       1.769   2.741  20.540  0.00  0.00    +0.000 C 
BRANCH  26  30
ATOM     30  C   UNL     1       3.580   2.344  18.778  0.00  0.00    +0.000 C 
BRANCH  30  32
ATOM     31  O   UNL     1       4.827   1.891  20.800  0.00  0.00    +0.000 OA
ATOM     32  C   UNL     1       4.718   2.514  19.751  0.00  0.00    +0.000 C 
BRANCH  32  33
ATOM     33  O   UNL     1       5.585   3.486  19.399  0.00  0.00    +0.000 OA
ATOM     34  H   UNL     1       6.526   3.265  19.529  0.00  0.00    +0.000 HD
ENDBRANCH  32  33
ENDBRANCH  30  32
ENDBRANCH  26  30
ENDBRANCH  20  26
ENDBRANCH  19  23
ENDBRANCH   1  19
TORSDOF 8
ENDMDL
MODEL 5
REMARK VINA RESULT:      -7.8      4.814     10.508
REMARK  Name = 
REMARK  8 active torsions:
REMARK  status: ('A' for Active; 'I' for Inactive)
REMARK    1  A    between atoms: C_2  and  O_3
REMARK    2  A    between atoms: C_2  and  C_4
REMARK    3  A    between atoms: C_4  and  C_5
REMARK    4  A    between atoms: C_5  and  C_6
REMARK    5  A    between atoms: C_9  and  O_10
REMARK    6  A    between atoms: O_10  and  C_11
REMARK    7  A    between atoms: C_11  and  C_12
REMARK    8  A    between atoms: C_18  and  C_19
REMARK                            x       y       z     vdW  Elec       q    Type
REMARK                         _______ _______ _______ _____ _____    ______ ____
ROOT
ATOM      1  C   UNL     1      -0.128   9.622  20.224  0.00  0.00    +0.000 C 
ENDROOT
BRANCH   1   2
ATOM      2  C   UNL     1      -0.009  10.967  19.506  0.00  0.00    +0.000 C 
ATOM      3  C   UNL     1      -1.220  11.837  19.835  0.00  0.00    +0.000 C 
ATOM      4  O   UNL     1      -1.147  13.134  19.234  0.00  0.00    +0.000 OA
ATOM      5  C   UNL     1       0.122  13.646  19.235  0.00  0.00    +0.000 A 
ATOM      6  C   UNL     1       0.269  14.968  18.836  0.00  0.00    +0.000 A 
ATOM      7  C   UNL     1       1.548  15.534  18.740  0.00  0.00    +0.000 A 
ATOM      8  C   UNL     1       2.707  14.796  19.057  0.00  0.00    +0.000 A 
ATOM      9  C   UNL     1       2.521  13.480  19.508  0.00  0.00    +0.000 A 
ATOM     10  C   UNL     1       1.249  12.905  19.575  0.00  0.00    +0.000 A 
ATOM     11  O   UNL     1       1.192  11.601  19.978  0.00  0.00    +0.000 OA
BRANCH   8  12
ATOM     12  C   UNL     1       4.066  15.366  18.890  0.00  0.00    +0.000 A 
ATOM     13  C   UNL     1       4.436  16.591  19.480  0.00  0.00    +0.000 A 
ATOM     14  C   UNL     1       5.715  17.131  19.303  0.00  0.00    +0.000 A 
ATOM     15  C   UNL     1       6.658  16.450  18.542  0.00  0.00    +0.000 A 
ATOM     16 CL   UNL     1       8.231  17.111  18.329  0.00  0.00    +0.000 Cl
ATOM     17  C   UNL     1       6.329  15.237  17.950  0.00  0.00    +0.000 A 
ATOM     18  C   UNL     1       5.044  14.709  18.116  0.00  0.00    +0.000 A 
ENDBRANCH   8  12
ENDBRANCH   1   2
BRANCH   1  19
ATOM     19  O   UNL     1       1.172   9.190  20.634  0.00  0.00    +0.000 OA
BRANCH  19  23
ATOM     20  C   UNL     1       2.767   5.744  18.805  0.00  0.00    +0.000 A 
ATOM     21  C   UNL     1       2.732   7.010  18.188  0.00  0.00    +0.000 A 
ATOM     22  C   UNL     1       2.185   8.130  18.824  0.00  0.00    +0.000 A 
ATOM     23  C   UNL     1       1.622   8.019  20.092  0.00  0.00    +0.000 A 
ATOM     24  C   UNL     1       1.604   6.775  20.712  0.00  0.00    +0.000 A 
ATOM     25  C   UNL     1       2.165   5.662  20.075  0.00  0.00    +0.000 A 
BRANCH  20  26
ATOM     26  C   UNL     1       3.545   4.489  18.168  0.00  0.00    +0.000 C 
ATOM     27  C   UNL     1       4.744   3.869  18.937  0.00  0.00    +0.000 C 
ATOM     28  O   UNL     1       5.694   4.512  18.050  0.00  0.00    +0.000 OA
ATOM     29  C   UNL     1       4.637   4.804  17.109  0.00  0.00    +0.000 C 
BRANCH  26  30
ATOM     30  C   UNL     1       2.514   3.477  17.632  0.00  0.00    +0.000 C 
BRANCH  30  32
ATOM     31  O   UNL     1       1.594   2.276  19.518  0.00  0.00    +0.000 OA
ATOM     32  C   UNL     1       2.305   2.278  18.520  0.00  0.00    +0.000 C 
BRANCH  32  33
ATOM     33  O   UNL     1       3.044   1.208  18.160  0.00  0.00    +0.000 OA
ATOM     34  H   UNL     1       2.866   0.396  18.669  0.00  0.00    +0.000 HD
ENDBRANCH  32  33
ENDBRANCH  30  32
ENDBRANCH  26  30
ENDBRANCH  20  26
ENDBRANCH  19  23
ENDBRANCH   1  19
TORSDOF 8
ENDMDL
MODEL 6
REMARK VINA RESULT:      -7.8      4.597     12.066
REMARK  Name = 
REMARK  8 active torsions:
REMARK  status: ('A' for Active; 'I' for Inactive)
REMARK    1  A    between atoms: C_2  and  O_3
REMARK    2  A    between atoms: C_2  and  C_4
REMARK    3  A    between atoms: C_4  and  C_5
REMARK    4  A    between atoms: C_5  and  C_6
REMARK    5  A    between atoms: C_9  and  O_10
REMARK    6  A    between atoms: O_10  and  C_11
REMARK    7  A    between atoms: C_11  and  C_12
REMARK    8  A    between atoms: C_18  and  C_19
REMARK                            x       y       z     vdW  Elec       q    Type
REMARK                         _______ _______ _______ _____ _____    ______ ____
ROOT
ATOM      1  C   UNL     1       1.394   9.965  18.305  0.00  0.00    +0.000 C 
ENDROOT
BRANCH   1   2
ATOM      2  C   UNL     1       1.023  11.202  19.123  0.00  0.00    +0.000 C 
ATOM      3  C   UNL     1       1.469  12.463  18.385  0.00  0.00    +0.000 C 
ATOM      4  O   UNL     1       1.105  13.663  19.073  0.00  0.00    +0.000 OA
ATOM      5  C   UNL     1      -0.125  13.580  19.665  0.00  0.00    +0.000 A 
ATOM      6  C   UNL     1      -0.646  14.749  20.206  0.00  0.00    +0.000 A 
ATOM      7  C   UNL     1      -1.867  14.721  20.893  0.00  0.00    +0.000 A 
ATOM      8  C   UNL     1      -2.604  13.529  21.041  0.00  0.00    +0.000 A 
ATOM      9  C   UNL     1      -2.078  12.375  20.437  0.00  0.00    +0.000 A 
ATOM     10  C   UNL     1      -0.847  12.396  19.777  0.00  0.00    +0.000 A 
ATOM     11  O   UNL     1      -0.408  11.204  19.273  0.00  0.00    +0.000 OA
BRANCH   8  12
ATOM     12  C   UNL     1      -3.861  13.479  21.827  0.00  0.00    +0.000 A 
ATOM     13  C   UNL     1      -5.052  12.952  21.291  0.00  0.00    +0.000 A 
ATOM     14  C   UNL     1      -6.239  12.925  22.032  0.00  0.00    +0.000 A 
ATOM     15  C   UNL     1      -6.256  13.413  23.334  0.00  0.00    +0.000 A 
ATOM     16 CL   UNL     1      -7.713  13.375  24.247  0.00  0.00    +0.000 Cl
ATOM     17  C   UNL     1      -5.099  13.936  23.896  0.00  0.00    +0.000 A 
ATOM     18  C   UNL     1      -3.919  13.975  23.145  0.00  0.00    +0.000 A 
ENDBRANCH   8  12
ENDBRANCH   1   2
BRANCH   1  19
ATOM     19  O   UNL     1       1.372   8.815  19.154  0.00  0.00    +0.000 OA
BRANCH  19  23
ATOM     20  C   UNL     1       4.001   5.598  18.442  0.00  0.00    +0.000 A 
ATOM     21  C   UNL     1       3.182   5.699  19.584  0.00  0.00    +0.000 A 
ATOM     22  C   UNL     1       2.329   6.789  19.790  0.00  0.00    +0.000 A 
ATOM     23  C   UNL     1       2.284   7.836  18.875  0.00  0.00    +0.000 A 
ATOM     24  C   UNL     1       3.110   7.786  17.758  0.00  0.00    +0.000 A 
ATOM     25  C   UNL     1       3.950   6.687  17.551  0.00  0.00    +0.000 A 
BRANCH  20  26
ATOM     26  C   UNL     1       4.854   4.278  18.099  0.00  0.00    +0.000 C 
ATOM     27  C   UNL     1       6.387   4.400  17.885  0.00  0.00    +0.000 C 
ATOM     28  O   UNL     1       6.233   4.297  16.447  0.00  0.00    +0.000 OA
ATOM     29  C   UNL     1       4.878   3.824  16.613  0.00  0.00    +0.000 C 
BRANCH  26  30
ATOM     30  C   UNL     1       4.409   3.135  19.031  0.00  0.00    +0.000 C 
BRANCH  30  32
ATOM     31  O   UNL     1       2.442   2.246  17.942  0.00  0.00    +0.000 OA
ATOM     32  C   UNL     1       3.582   2.072  18.356  0.00  0.00    +0.000 C 
BRANCH  32  33
ATOM     33  O   UNL     1       4.188   0.867  18.314  0.00  0.00    +0.000 OA
ATOM     34  H   UNL     1       3.638   0.144  17.960  0.00  0.00    +0.000 HD
ENDBRANCH  32  33
ENDBRANCH  30  32
ENDBRANCH  26  30
ENDBRANCH  20  26
ENDBRANCH  19  23
ENDBRANCH   1  19
TORSDOF 8
ENDMDL
MODEL 7
REMARK VINA RESULT:      -7.8      1.108      2.275
REMARK  Name = 
REMARK  8 active torsions:
REMARK  status: ('A' for Active; 'I' for Inactive)
REMARK    1  A    between atoms: C_2  and  O_3
REMARK    2  A    between atoms: C_2  and  C_4
REMARK    3  A    between atoms: C_4  and  C_5
REMARK    4  A    between atoms: C_5  and  C_6
REMARK    5  A    between atoms: C_9  and  O_10
REMARK    6  A    between atoms: O_10  and  C_11
REMARK    7  A    between atoms: C_11  and  C_12
REMARK    8  A    between atoms: C_18  and  C_19
REMARK                            x       y       z     vdW  Elec       q    Type
REMARK                         _______ _______ _______ _____ _____    ______ ____
ROOT
ATOM      1  C   UNL     1      -0.097  11.391  19.877  0.00  0.00    +0.000 C 
ENDROOT
BRANCH   1   2
ATOM      2  C   UNL     1       0.790  10.201  20.242  0.00  0.00    +0.000 C 
ATOM      3  C   UNL     1       0.067   9.307  21.247  0.00  0.00    +0.000 C 
ATOM      4  O   UNL     1       0.824   8.142  21.592  0.00  0.00    +0.000 OA
ATOM      5  C   UNL     1       1.501   7.616  20.526  0.00  0.00    +0.000 A 
ATOM      6  C   UNL     1       2.121   6.387  20.716  0.00  0.00    +0.000 A 
ATOM      7  C   UNL     1       2.894   5.826  19.690  0.00  0.00    +0.000 A 
ATOM      8  C   UNL     1       3.052   6.471  18.447  0.00  0.00    +0.000 A 
ATOM      9  C   UNL     1       2.370   7.685  18.268  0.00  0.00    +0.000 A 
ATOM     10  C   UNL     1       1.623   8.260  19.299  0.00  0.00    +0.000 A 
ATOM     11  O   UNL     1       1.044   9.468  19.030  0.00  0.00    +0.000 OA
BRANCH   8  12
ATOM     12  C   UNL     1       3.926   5.917  17.384  0.00  0.00    +0.000 A 
ATOM     13  C   UNL     1       4.651   6.749  16.510  0.00  0.00    +0.000 A 
ATOM     14  C   UNL     1       5.458   6.219  15.496  0.00  0.00    +0.000 A 
ATOM     15  C   UNL     1       5.569   4.841  15.346  0.00  0.00    +0.000 A 
ATOM     16 CL   UNL     1       6.566   4.190  14.105  0.00  0.00    +0.000 Cl
ATOM     17  C   UNL     1       4.872   3.991  16.194  0.00  0.00    +0.000 A 
ATOM     18  C   UNL     1       4.053   4.526  17.195  0.00  0.00    +0.000 A 
ENDBRANCH   8  12
ENDBRANCH   1   2
BRANCH   1  19
ATOM     19  O   UNL     1      -0.453  12.096  21.068  0.00  0.00    +0.000 OA
BRANCH  19  23
ATOM     20  C   UNL     1      -4.599  12.820  21.313  0.00  0.00    +0.000 A 
ATOM     21  C   UNL     1      -3.893  12.725  20.097  0.00  0.00    +0.000 A 
ATOM     22  C   UNL     1      -2.513  12.494  20.057  0.00  0.00    +0.000 A 
ATOM     23  C   UNL     1      -1.780  12.379  21.234  0.00  0.00    +0.000 A 
ATOM     24  C   UNL     1      -2.440  12.508  22.451  0.00  0.00    +0.000 A 
ATOM     25  C   UNL     1      -3.822  12.726  22.484  0.00  0.00    +0.000 A 
BRANCH  20  26
ATOM     26  C   UNL     1      -6.203  12.910  21.381  0.00  0.00    +0.000 C 
ATOM     27  C   UNL     1      -6.926  12.577  22.715  0.00  0.00    +0.000 C 
ATOM     28  O   UNL     1      -7.329  11.277  22.216  0.00  0.00    +0.000 OA
ATOM     29  C   UNL     1      -6.997  11.677  20.868  0.00  0.00    +0.000 C 
BRANCH  26  30
ATOM     30  C   UNL     1      -6.664  14.206  20.689  0.00  0.00    +0.000 C 
BRANCH  30  32
ATOM     31  O   UNL     1      -5.670  15.983  21.994  0.00  0.00    +0.000 OA
ATOM     32  C   UNL     1      -6.677  15.416  21.587  0.00  0.00    +0.000 C 
BRANCH  32  33
ATOM     33  O   UNL     1      -7.916  15.781  21.977  0.00  0.00    +0.000 OA
ATOM     34  H   UNL     1      -8.126  15.590  22.910  0.00  0.00    +0.000 HD
ENDBRANCH  32  33
ENDBRANCH  30  32
ENDBRANCH  26  30
ENDBRANCH  20  26
ENDBRANCH  19  23
ENDBRANCH   1  19
TORSDOF 8
ENDMDL
MODEL 8
REMARK VINA RESULT:      -7.8      5.074     10.943
REMARK  Name = 
REMARK  8 active torsions:
REMARK  status: ('A' for Active; 'I' for Inactive)
REMARK    1  A    between atoms: C_2  and  O_3
REMARK    2  A    between atoms: C_2  and  C_4
REMARK    3  A    between atoms: C_4  and  C_5
REMARK    4  A    between atoms: C_5  and  C_6
REMARK    5  A    between atoms: C_9  and  O_10
REMARK    6  A    between atoms: O_10  and  C_11
REMARK    7  A    between atoms: C_11  and  C_12
REMARK    8  A    between atoms: C_18  and  C_19
REMARK                            x       y       z     vdW  Elec       q    Type
REMARK                         _______ _______ _______ _____ _____    ______ ____
ROOT
ATOM      1  C   UNL     1       0.106   9.775  19.055  0.00  0.00    +0.000 C 
ENDROOT
BRANCH   1   2
ATOM      2  C   UNL     1       0.284  11.231  18.621  0.00  0.00    +0.000 C 
ATOM      3  C   UNL     1      -0.821  12.090  19.232  0.00  0.00    +0.000 C 
ATOM      4  O   UNL     1      -0.683  13.478  18.907  0.00  0.00    +0.000 OA
ATOM      5  C   UNL     1       0.620  13.891  18.899  0.00  0.00    +0.000 A 
ATOM      6  C   UNL     1       0.849  15.255  18.770  0.00  0.00    +0.000 A 
ATOM      7  C   UNL     1       2.161  15.741  18.679  0.00  0.00    +0.000 A 
ATOM      8  C   UNL     1       3.273  14.877  18.731  0.00  0.00    +0.000 A 
ATOM      9  C   UNL     1       3.011  13.510  18.915  0.00  0.00    +0.000 A 
ATOM     10  C   UNL     1       1.704  13.021  18.977  0.00  0.00    +0.000 A 
ATOM     11  O   UNL     1       1.566  11.668  19.105  0.00  0.00    +0.000 OA
BRANCH   8  12
ATOM     12  C   UNL     1       4.660  15.377  18.564  0.00  0.00    +0.000 A 
ATOM     13  C   UNL     1       5.646  14.624  17.899  0.00  0.00    +0.000 A 
ATOM     14  C   UNL     1       6.958  15.095  17.762  0.00  0.00    +0.000 A 
ATOM     15  C   UNL     1       7.307  16.338  18.276  0.00  0.00    +0.000 A 
ATOM     16 CL   UNL     1       8.917  16.918  18.104  0.00  0.00    +0.000 Cl
ATOM     17  C   UNL     1       6.358  17.110  18.935  0.00  0.00    +0.000 A 
ATOM     18  C   UNL     1       5.053  16.628  19.083  0.00  0.00    +0.000 A 
ENDBRANCH   8  12
ENDBRANCH   1   2
BRANCH   1  19
ATOM     19  O   UNL     1       1.233   9.375  19.838  0.00  0.00    +0.000 OA
BRANCH  19  23
ATOM     20  C   UNL     1       3.344   5.973  18.519  0.00  0.00    +0.000 A 
ATOM     21  C   UNL     1       3.210   7.153  17.759  0.00  0.00    +0.000 A 
ATOM     22  C   UNL     1       2.492   8.259  18.228  0.00  0.00    +0.000 A 
ATOM     23  C   UNL     1       1.853   8.216  19.463  0.00  0.00    +0.000 A 
ATOM     24  C   UNL     1       1.931   7.052  20.219  0.00  0.00    +0.000 A 
ATOM     25  C   UNL     1       2.662   5.955  19.751  0.00  0.00    +0.000 A 
BRANCH  20  26
ATOM     26  C   UNL     1       4.306   4.762  18.079  0.00  0.00    +0.000 C 
ATOM     27  C   UNL     1       4.154   3.382  18.775  0.00  0.00    +0.000 C 
ATOM     28  O   UNL     1       5.335   3.616  19.582  0.00  0.00    +0.000 OA
ATOM     29  C   UNL     1       5.717   4.716  18.726  0.00  0.00    +0.000 C 
BRANCH  26  30
ATOM     30  C   UNL     1       4.388   4.717  16.542  0.00  0.00    +0.000 C 
BRANCH  30  32
ATOM     31  O   UNL     1       6.362   5.817  15.682  0.00  0.00    +0.000 OA
ATOM     32  C   UNL     1       5.790   4.780  15.995  0.00  0.00    +0.000 C 
BRANCH  32  33
ATOM     33  O   UNL     1       6.346   3.565  15.803  0.00  0.00    +0.000 OA
ATOM     34  H   UNL     1       6.477   3.041  16.615  0.00  0.00    +0.000 HD
ENDBRANCH  32  33
ENDBRANCH  30  32
ENDBRANCH  26  30
ENDBRANCH  20  26
ENDBRANCH  19  23
ENDBRANCH   1  19
TORSDOF 8
ENDMDL
MODEL 9
REMARK VINA RESULT:      -7.8      4.672     11.914
REMARK  Name = 
REMARK  8 active torsions:
REMARK  status: ('A' for Active; 'I' for Inactive)
REMARK    1  A    between atoms: C_2  and  O_3
REMARK    2  A    between atoms: C_2  and  C_4
REMARK    3  A    between atoms: C_4  and  C_5
REMARK    4  A    between atoms: C_5  and  C_6
REMARK    5  A    between atoms: C_9  and  O_10
REMARK    6  A    between atoms: O_10  and  C_11
REMARK    7  A    between atoms: C_11  and  C_12
REMARK    8  A    between atoms: C_18  and  C_19
REMARK                            x       y       z     vdW  Elec       q    Type
REMARK                         _______ _______ _______ _____ _____    ______ ____
ROOT
ATOM      1  C   UNL     1       1.085  10.642  18.628  0.00  0.00    +0.000 C 
ENDROOT
BRANCH   1   2
ATOM      2  C   UNL     1      -0.297  11.286  18.513  0.00  0.00    +0.000 C 
ATOM      3  C   UNL     1      -1.298  10.266  17.972  0.00  0.00    +0.000 C 
ATOM      4  O   UNL     1      -2.627  10.790  17.889  0.00  0.00    +0.000 OA
ATOM      5  C   UNL     1      -2.939  11.610  18.938  0.00  0.00    +0.000 A 
ATOM      6  C   UNL     1      -4.261  12.026  19.043  0.00  0.00    +0.000 A 
ATOM      7  C   UNL     1      -4.634  12.927  20.050  0.00  0.00    +0.000 A 
ATOM      8  C   UNL     1      -3.701  13.418  20.985  0.00  0.00    +0.000 A 
ATOM      9  C   UNL     1      -2.385  12.937  20.886  0.00  0.00    +0.000 A 
ATOM     10  C   UNL     1      -2.005  12.063  19.864  0.00  0.00    +0.000 A 
ATOM     11  O   UNL     1      -0.688  11.701  19.833  0.00  0.00    +0.000 OA
BRANCH   8  12
ATOM     12  C   UNL     1      -4.075  14.425  22.008  0.00  0.00    +0.000 A 
ATOM     13  C   UNL     1      -3.384  15.645  22.138  0.00  0.00    +0.000 A 
ATOM     14  C   UNL     1      -3.731  16.582  23.118  0.00  0.00    +0.000 A 
ATOM     15  C   UNL     1      -4.788  16.323  23.983  0.00  0.00    +0.000 A 
ATOM     16 CL   UNL     1      -5.218  17.476  25.184  0.00  0.00    +0.000 Cl
ATOM     17  C   UNL     1      -5.495  15.132  23.881  0.00  0.00    +0.000 A 
ATOM     18  C   UNL     1      -5.134  14.191  22.910  0.00  0.00    +0.000 A 
ENDBRANCH   8  12
ENDBRANCH   1   2
BRANCH   1  19
ATOM     19  O   UNL     1       1.005   9.505  19.491  0.00  0.00    +0.000 OA
BRANCH  19  23
ATOM     20  C   UNL     1       3.326   6.073  18.714  0.00  0.00    +0.000 A 
ATOM     21  C   UNL     1       2.621   6.284  19.916  0.00  0.00    +0.000 A 
ATOM     22  C   UNL     1       1.869   7.442  20.141  0.00  0.00    +0.000 A 
ATOM     23  C   UNL     1       1.817   8.450  19.183  0.00  0.00    +0.000 A 
ATOM     24  C   UNL     1       2.535   8.291  18.002  0.00  0.00    +0.000 A 
ATOM     25  C   UNL     1       3.274   7.124  17.779  0.00  0.00    +0.000 A 
BRANCH  20  26
ATOM     26  C   UNL     1       4.049   4.680  18.365  0.00  0.00    +0.000 C 
ATOM     27  C   UNL     1       5.584   4.550  18.566  0.00  0.00    +0.000 C 
ATOM     28  O   UNL     1       5.820   4.674  17.141  0.00  0.00    +0.000 OA
ATOM     29  C   UNL     1       4.419   4.435  16.875  0.00  0.00    +0.000 C 
BRANCH  26  30
ATOM     30  C   UNL     1       3.211   3.521  18.936  0.00  0.00    +0.000 C 
BRANCH  30  32
ATOM     31  O   UNL     1       1.181   3.660  17.630  0.00  0.00    +0.000 OA
ATOM     32  C   UNL     1       2.149   3.005  18.000  0.00  0.00    +0.000 C 
BRANCH  32  33
ATOM     33  O   UNL     1       2.316   1.711  17.659  0.00  0.00    +0.000 OA
ATOM     34  H   UNL     1       2.969   1.226  18.197  0.00  0.00    +0.000 HD
ENDBRANCH  32  33
ENDBRANCH  30  32
ENDBRANCH  26  30
ENDBRANCH  20  26
ENDBRANCH  19  23
ENDBRANCH   1  19
TORSDOF 8
ENDMDL
