MODEL 1
REMARK VINA RESULT:      -5.7      0.000      0.000
REMARK  Name = 
REMARK  1 active torsions:
REMARK  status: ('A' for Active; 'I' for Inactive)
REMARK    1  A    between atoms: N_3  and  C_4
REMARK                            x       y       z     vdW  Elec       q    Type
REMARK                         _______ _______ _______ _____ _____    ______ ____
ROOT
ATOM      1  N   UNL     1       6.111   4.099  16.423  0.00  0.00    +0.000 NA
ATOM      2  C   UNL     1       6.794   4.885  15.663  0.00  0.00    +0.000 C 
ATOM      3  N   UNL     1       7.411   6.058  16.191  0.00  0.00    +0.000 N 
ATOM      4  N   UNL     1       6.880   4.591  14.256  0.00  0.00    +0.000 N 
ATOM      5  C   UNL     1       6.222   3.601  13.619  0.00  0.00    +0.000 A 
ATOM      6  C   UNL     1       6.519   3.681  12.276  0.00  0.00    +0.000 A 
ATOM      7  C   UNL     1       7.378   4.753  12.163  0.00  0.00    +0.000 A 
ATOM      8  N   UNL     1       7.580   5.296  13.380  0.00  0.00    +0.000 NA
ATOM      9  H   UNL     1       6.003   4.256  17.435  0.00  0.00    +0.000 HD
ATOM     10  H   UNL     1       8.091   6.576  15.610  0.00  0.00    +0.000 HD
ENDROOT
BRANCH   3  11
ATOM     11  C   UNL     1       6.972   6.606  17.463  0.00  0.00    +0.000 C 
ATOM     12  C   UNL     1       7.947   6.551  18.625  0.00  0.00    +0.000 C 
ATOM     13  C   UNL     1       7.797   7.835  17.824  0.00  0.00    +0.000 C 
ENDBRANCH   3  11
TORSDOF 1
ENDMDL
MODEL 2
REMARK VINA RESULT:      -5.5      1.373      5.240
REMARK  Name = 
REMARK  1 active torsions:
REMARK  status: ('A' for Active; 'I' for Inactive)
REMARK    1  A    between atoms: N_3  and  C_4
REMARK                            x       y       z     vdW  Elec       q    Type
REMARK                         _______ _______ _______ _____ _____    ______ ____
ROOT
ATOM      1  N   UNL     1       7.702   5.397  13.994  0.00  0.00    +0.000 NA
ATOM      2  C   UNL     1       6.872   4.595  14.569  0.00  0.00    +0.000 C 
ATOM      3  N   UNL     1       6.257   3.534  13.840  0.00  0.00    +0.000 N 
ATOM      4  N   UNL     1       6.530   4.819  15.949  0.00  0.00    +0.000 N 
ATOM      5  C   UNL     1       6.929   5.869  16.696  0.00  0.00    +0.000 A 
ATOM      6  C   UNL     1       6.349   5.757  17.941  0.00  0.00    +0.000 A 
ATOM      7  C   UNL     1       5.603   4.599  17.885  0.00  0.00    +0.000 A 
ATOM      8  N   UNL     1       5.723   4.047  16.661  0.00  0.00    +0.000 NA
ATOM      9  H   UNL     1       7.983   5.298  13.008  0.00  0.00    +0.000 HD
ATOM     10  H   UNL     1       5.735   2.805  14.353  0.00  0.00    +0.000 HD
ENDROOT
BRANCH   3  11
ATOM     11  C   UNL     1       6.230   3.565  12.387  0.00  0.00    +0.000 C 
ATOM     12  C   UNL     1       5.893   2.274  11.664  0.00  0.00    +0.000 C 
ATOM     13  C   UNL     1       4.814   3.324  11.878  0.00  0.00    +0.000 C 
ENDBRANCH   3  11
TORSDOF 1
ENDMDL
MODEL 3
REMARK VINA RESULT:      -5.5      4.690      6.619
REMARK  Name = 
REMARK  1 active torsions:
REMARK  status: ('A' for Active; 'I' for Inactive)
REMARK    1  A    between atoms: N_3  and  C_4
REMARK                            x       y       z     vdW  Elec       q    Type
REMARK                         _______ _______ _______ _____ _____    ______ ____
ROOT
ATOM      1  N   UNL     1       5.212   2.843  19.360  0.00  0.00    +0.000 NA
ATOM      2  C   UNL     1       4.162   3.379  18.839  0.00  0.00    +0.000 C 
ATOM      3  N   UNL     1       4.225   4.026  17.569  0.00  0.00    +0.000 N 
ATOM      4  N   UNL     1       2.930   3.363  19.584  0.00  0.00    +0.000 N 
ATOM      5  C   UNL     1       2.782   2.916  20.848  0.00  0.00    +0.000 A 
ATOM      6  C   UNL     1       1.473   3.121  21.227  0.00  0.00    +0.000 A 
ATOM      7  C   UNL     1       0.870   3.700  20.131  0.00  0.00    +0.000 A 
ATOM      8  N   UNL     1       1.777   3.844  19.144  0.00  0.00    +0.000 NA
ATOM      9  H   UNL     1       6.126   2.827  18.885  0.00  0.00    +0.000 HD
ATOM     10  H   UNL     1       3.348   4.293  17.095  0.00  0.00    +0.000 HD
ENDROOT
BRANCH   3  11
ATOM     11  C   UNL     1       5.506   4.447  17.026  0.00  0.00    +0.000 C 
ATOM     12  C   UNL     1       5.888   3.931  15.651  0.00  0.00    +0.000 C 
ATOM     13  C   UNL     1       5.299   5.325  15.799  0.00  0.00    +0.000 C 
ENDBRANCH   3  11
TORSDOF 1
ENDMDL
MODEL 4
REMARK VINA RESULT:      -5.4      4.367      6.162
REMARK  Name = 
REMARK  1 active torsions:
REMARK  status: ('A' for Active; 'I' for Inactive)
REMARK    1  A    between atoms: N_3  and  C_4
REMARK                            x       y       z     vdW  Elec       q    Type
REMARK                         _______ _______ _______ _____ _____    ______ ____
ROOT
ATOM      1  N   UNL     1       5.358   3.539  19.199  0.00  0.00    +0.000 NA
ATOM      2  C   UNL     1       4.423   3.324  18.338  0.00  0.00    +0.000 C 
ATOM      3  N   UNL     1       4.676   3.443  16.939  0.00  0.00    +0.000 N 
ATOM      4  N   UNL     1       3.099   3.014  18.811  0.00  0.00    +0.000 N 
ATOM      5  C   UNL     1       2.705   3.019  20.101  0.00  0.00    +0.000 A 
ATOM      6  C   UNL     1       1.358   2.729  20.142  0.00  0.00    +0.000 A 
ATOM      7  C   UNL     1       0.992   2.552  18.825  0.00  0.00    +0.000 A 
ATOM      8  N   UNL     1       2.066   2.736  18.031  0.00  0.00    +0.000 NA
ATOM      9  H   UNL     1       6.324   3.773  18.928  0.00  0.00    +0.000 HD
ATOM     10  H   UNL     1       3.969   3.102  16.267  0.00  0.00    +0.000 HD
ENDROOT
BRANCH   3  11
ATOM     11  C   UNL     1       5.837   4.178  16.466  0.00  0.00    +0.000 C 
ATOM     12  C   UNL     1       6.224   4.015  15.007  0.00  0.00    +0.000 C 
ATOM     13  C   UNL     1       5.419   5.229  15.445  0.00  0.00    +0.000 C 
ENDBRANCH   3  11
TORSDOF 1
ENDMDL
MODEL 5
REMARK VINA RESULT:      -5.4      4.325      5.883
REMARK  Name = 
REMARK  1 active torsions:
REMARK  status: ('A' for Active; 'I' for Inactive)
REMARK    1  A    between atoms: N_3  and  C_4
REMARK                            x       y       z     vdW  Elec       q    Type
REMARK                         _______ _______ _______ _____ _____    ______ ____
ROOT
ATOM      1  N   UNL     1       4.196   2.830  17.698  0.00  0.00    +0.000 NA
ATOM      2  C   UNL     1       4.520   3.552  18.715  0.00  0.00    +0.000 C 
ATOM      3  N   UNL     1       3.679   3.612  19.866  0.00  0.00    +0.000 N 
ATOM      4  N   UNL     1       5.720   4.345  18.653  0.00  0.00    +0.000 N 
ATOM      5  C   UNL     1       6.513   4.485  17.571  0.00  0.00    +0.000 A 
ATOM      6  C   UNL     1       7.525   5.365  17.889  0.00  0.00    +0.000 A 
ATOM      7  C   UNL     1       7.288   5.723  19.199  0.00  0.00    +0.000 A 
ATOM      8  N   UNL     1       6.181   5.095  19.643  0.00  0.00    +0.000 NA
ATOM      9  H   UNL     1       3.347   2.247  17.674  0.00  0.00    +0.000 HD
ATOM     10  H   UNL     1       4.036   4.052  20.730  0.00  0.00    +0.000 HD
ENDROOT
BRANCH   3  11
ATOM     11  C   UNL     1       2.287   3.204  19.777  0.00  0.00    +0.000 C 
ATOM     12  C   UNL     1       1.568   2.874  21.072  0.00  0.00    +0.000 C 
ATOM     13  C   UNL     1       1.387   4.242  20.434  0.00  0.00    +0.000 C 
ENDBRANCH   3  11
TORSDOF 1
ENDMDL
MODEL 6
REMARK VINA RESULT:      -5.3      0.834      4.862
REMARK  Name = 
REMARK  1 active torsions:
REMARK  status: ('A' for Active; 'I' for Inactive)
REMARK    1  A    between atoms: N_3  and  C_4
REMARK                            x       y       z     vdW  Elec       q    Type
REMARK                         _______ _______ _______ _____ _____    ______ ____
ROOT
ATOM      1  N   UNL     1       5.865   3.285  16.267  0.00  0.00    +0.000 NA
ATOM      2  C   UNL     1       6.324   4.394  15.796  0.00  0.00    +0.000 C 
ATOM      3  N   UNL     1       6.366   4.629  14.389  0.00  0.00    +0.000 N 
ATOM      4  N   UNL     1       6.847   5.375  16.711  0.00  0.00    +0.000 N 
ATOM      5  C   UNL     1       6.997   5.207  18.041  0.00  0.00    +0.000 A 
ATOM      6  C   UNL     1       7.580   6.344  18.556  0.00  0.00    +0.000 A 
ATOM      7  C   UNL     1       7.758   7.177  17.471  0.00  0.00    +0.000 A 
ATOM      8  N   UNL     1       7.309   6.565  16.357  0.00  0.00    +0.000 NA
ATOM      9  H   UNL     1       5.484   2.539  15.667  0.00  0.00    +0.000 HD
ATOM     10  H   UNL     1       6.572   5.580  14.043  0.00  0.00    +0.000 HD
ENDROOT
BRANCH   3  11
ATOM     11  C   UNL     1       6.278   3.516  13.459  0.00  0.00    +0.000 C 
ATOM     12  C   UNL     1       5.330   3.659  12.283  0.00  0.00    +0.000 C 
ATOM     13  C   UNL     1       6.815   3.924  12.093  0.00  0.00    +0.000 C 
ENDBRANCH   3  11
TORSDOF 1
ENDMDL
MODEL 7
REMARK VINA RESULT:      -5.3      4.424      5.521
REMARK  Name = 
REMARK  1 active torsions:
REMARK  status: ('A' for Active; 'I' for Inactive)
REMARK    1  A    between atoms: N_3  and  C_4
REMARK                            x       y       z     vdW  Elec       q    Type
REMARK                         _______ _______ _______ _____ _____    ______ ____
ROOT
ATOM      1  N   UNL     1       5.194   2.911  19.337  0.00  0.00    +0.000 NA
ATOM      2  C   UNL     1       4.440   3.882  18.953  0.00  0.00    +0.000 C 
ATOM      3  N   UNL     1       3.140   4.064  19.513  0.00  0.00    +0.000 N 
ATOM      4  N   UNL     1       4.906   4.754  17.907  0.00  0.00    +0.000 N 
ATOM      5  C   UNL     1       6.046   4.596  17.202  0.00  0.00    +0.000 A 
ATOM      6  C   UNL     1       6.110   5.596  16.257  0.00  0.00    +0.000 A 
ATOM      7  C   UNL     1       4.966   6.341  16.446  0.00  0.00    +0.000 A 
ATOM      8  N   UNL     1       4.244   5.808  17.452  0.00  0.00    +0.000 NA
ATOM      9  H   UNL     1       4.918   2.246  20.075  0.00  0.00    +0.000 HD
ATOM     10  H   UNL     1       2.625   4.939  19.321  0.00  0.00    +0.000 HD
ENDROOT
BRANCH   3  11
ATOM     11  C   UNL     1       2.485   2.970  20.209  0.00  0.00    +0.000 C 
ATOM     12  C   UNL     1       2.123   3.183  21.668  0.00  0.00    +0.000 C 
ATOM     13  C   UNL     1       1.063   3.360  20.592  0.00  0.00    +0.000 C 
ENDBRANCH   3  11
TORSDOF 1
ENDMDL
MODEL 8
REMARK VINA RESULT:      -5.3      4.480      6.256
REMARK  Name = 
REMARK  1 active torsions:
REMARK  status: ('A' for Active; 'I' for Inactive)
REMARK    1  A    between atoms: N_3  and  C_4
REMARK                            x       y       z     vdW  Elec       q    Type
REMARK                         _______ _______ _______ _____ _____    ______ ____
ROOT
ATOM      1  N   UNL     1       5.207   2.909  19.311  0.00  0.00    +0.000 NA
ATOM      2  C   UNL     1       4.657   4.073  19.376  0.00  0.00    +0.000 C 
ATOM      3  N   UNL     1       5.377   5.245  18.996  0.00  0.00    +0.000 N 
ATOM      4  N   UNL     1       3.317   4.182  19.892  0.00  0.00    +0.000 N 
ATOM      5  C   UNL     1       2.593   3.172  20.417  0.00  0.00    +0.000 A 
ATOM      6  C   UNL     1       1.390   3.684  20.851  0.00  0.00    +0.000 A 
ATOM      7  C   UNL     1       1.445   5.028  20.552  0.00  0.00    +0.000 A 
ATOM      8  N   UNL     1       2.630   5.311  19.974  0.00  0.00    +0.000 NA
ATOM      9  H   UNL     1       6.164   2.763  18.960  0.00  0.00    +0.000 HD
ATOM     10  H   UNL     1       4.869   6.138  18.891  0.00  0.00    +0.000 HD
ENDROOT
BRANCH   3  11
ATOM     11  C   UNL     1       6.828   5.216  18.915  0.00  0.00    +0.000 C 
ATOM     12  C   UNL     1       7.448   4.902  17.566  0.00  0.00    +0.000 C 
ATOM     13  C   UNL     1       7.331   6.346  18.026  0.00  0.00    +0.000 C 
ENDBRANCH   3  11
TORSDOF 1
ENDMDL
MODEL 9
REMARK VINA RESULT:      -5.2      4.197      5.660
REMARK  Name = 
REMARK  1 active torsions:
REMARK  status: ('A' for Active; 'I' for Inactive)
REMARK    1  A    between atoms: N_3  and  C_4
REMARK                            x       y       z     vdW  Elec       q    Type
REMARK                         _______ _______ _______ _____ _____    ______ ____
ROOT
ATOM      1  N   UNL     1       5.238   2.895  19.508  0.00  0.00    +0.000 NA
ATOM      2  C   UNL     1       4.676   3.971  19.073  0.00  0.00    +0.000 C 
ATOM      3  N   UNL     1       3.276   4.187  19.250  0.00  0.00    +0.000 N 
ATOM      4  N   UNL     1       5.472   4.932  18.355  0.00  0.00    +0.000 N 
ATOM      5  C   UNL     1       6.763   4.772  17.999  0.00  0.00    +0.000 A 
ATOM      6  C   UNL     1       7.152   5.880  17.279  0.00  0.00    +0.000 A 
ATOM      7  C   UNL     1       6.036   6.689  17.237  0.00  0.00    +0.000 A 
ATOM      8  N   UNL     1       5.023   6.089  17.894  0.00  0.00    +0.000 NA
ATOM      9  H   UNL     1       4.725   2.164  20.021  0.00  0.00    +0.000 HD
ATOM     10  H   UNL     1       2.881   5.120  19.053  0.00  0.00    +0.000 HD
ENDROOT
BRANCH   3  11
ATOM     11  C   UNL     1       2.396   3.069  19.549  0.00  0.00    +0.000 C 
ATOM     12  C   UNL     1       1.016   3.390  20.093  0.00  0.00    +0.000 C 
ATOM     13  C   UNL     1       1.193   3.079  18.615  0.00  0.00    +0.000 C 
ENDBRANCH   3  11
TORSDOF 1
ENDMDL
