MODEL 1
REMARK VINA RESULT:      -7.5      0.000      0.000
REMARK  Name = 
REMARK  5 active torsions:
REMARK  status: ('A' for Active; 'I' for Inactive)
REMARK    1  A    between atoms: C_1  and  N_2
REMARK    2  A    between atoms: N_2  and  C_3
REMARK    3  A    between atoms: N_2  and  C_4
REMARK    4  A    between atoms: C_13  and  C_14
REMARK    5  A    between atoms: C_14  and  C_15
REMARK                            x       y       z     vdW  Elec       q    Type
REMARK                         _______ _______ _______ _____ _____    ______ ____
ROOT
ATOM      1  C   UNL     1       4.502   4.951  18.278  0.00  0.00    +0.000 C 
ATOM      2  C   UNL     1       3.886   4.346  19.303  0.00  0.00    +0.000 C 
ATOM      3 CL   UNL     1       4.139   2.789  19.941  0.00  0.00    +0.000 Cl
ATOM      4  C   UNL     1       2.897   5.246  19.928  0.00  0.00    +0.000 C 
ATOM      5  O   UNL     1       2.192   4.928  20.870  0.00  0.00    +0.000 OA
ATOM      6  N   UNL     1       2.955   6.396  19.217  0.00  0.00    +0.000 N 
ATOM      7  C   UNL     1       2.204   7.507  19.497  0.00  0.00    +0.000 A 
ATOM      8  N   UNL     1       1.448   7.736  20.550  0.00  0.00    +0.000 NA
ATOM      9  N   UNL     1       0.874   8.975  20.411  0.00  0.00    +0.000 NA
ATOM     10  C   UNL     1       1.253   9.470  19.253  0.00  0.00    +0.000 A 
ATOM     11  N   UNL     1       2.136   8.602  18.672  0.00  0.00    +0.000 N 
ATOM     12  C   UNL     1       3.829   6.301  18.182  0.00  0.00    +0.000 C 
ATOM     13  O   UNL     1       4.039   7.145  17.319  0.00  0.00    +0.000 OA
ATOM     14  H   UNL     1       2.602   8.695  17.779  0.00  0.00    +0.000 HD
ENDROOT
BRANCH   1  16
ATOM     15  C   UNL     1       5.269   3.963  16.099  0.00  0.00    +0.000 C 
ATOM     16  N   UNL     1       5.534   4.551  17.416  0.00  0.00    +0.000 N 
ATOM     17  C   UNL     1       6.949   4.701  17.759  0.00  0.00    +0.000 C 
ENDBRANCH   1  16
BRANCH  10  18
ATOM     18  C   UNL     1       0.781  10.727  18.614  0.00  0.00    +0.000 C 
BRANCH  18  19
ATOM     19  C   UNL     1      -0.711  10.721  18.363  0.00  0.00    +0.000 A 
ATOM     20  C   UNL     1      -1.541  11.658  19.001  0.00  0.00    +0.000 A 
ATOM     21  C   UNL     1      -2.917  11.667  18.768  0.00  0.00    +0.000 A 
ATOM     22  C   UNL     1      -3.478  10.744  17.890  0.00  0.00    +0.000 A 
ATOM     23  C   UNL     1      -2.667   9.808  17.250  0.00  0.00    +0.000 A 
ATOM     24  C   UNL     1      -1.289   9.796  17.484  0.00  0.00    +0.000 A 
ENDBRANCH  18  19
ENDBRANCH  10  18
TORSDOF 3
ENDMDL
MODEL 2
REMARK VINA RESULT:      -7.5      0.133      1.250
REMARK  Name = 
REMARK  5 active torsions:
REMARK  status: ('A' for Active; 'I' for Inactive)
REMARK    1  A    between atoms: C_1  and  N_2
REMARK    2  A    between atoms: N_2  and  C_3
REMARK    3  A    between atoms: N_2  and  C_4
REMARK    4  A    between atoms: C_13  and  C_14
REMARK    5  A    between atoms: C_14  and  C_15
REMARK                            x       y       z     vdW  Elec       q    Type
REMARK                         _______ _______ _______ _____ _____    ______ ____
ROOT
ATOM      1  C   UNL     1       4.505   5.031  18.112  0.00  0.00    +0.000 C 
ATOM      2  C   UNL     1       3.909   4.403  19.136  0.00  0.00    +0.000 C 
ATOM      3 CL   UNL     1       4.176   2.834  19.737  0.00  0.00    +0.000 Cl
ATOM      4  C   UNL     1       2.929   5.287  19.797  0.00  0.00    +0.000 C 
ATOM      5  O   UNL     1       2.242   4.948  20.745  0.00  0.00    +0.000 OA
ATOM      6  N   UNL     1       2.972   6.451  19.108  0.00  0.00    +0.000 N 
ATOM      7  C   UNL     1       2.224   7.555  19.425  0.00  0.00    +0.000 A 
ATOM      8  N   UNL     1       1.487   7.760  20.495  0.00  0.00    +0.000 NA
ATOM      9  N   UNL     1       0.908   9.001  20.392  0.00  0.00    +0.000 NA
ATOM     10  C   UNL     1       1.265   9.520  19.238  0.00  0.00    +0.000 A 
ATOM     11  N   UNL     1       2.139   8.666  18.624  0.00  0.00    +0.000 N 
ATOM     12  C   UNL     1       3.828   6.380  18.057  0.00  0.00    +0.000 C 
ATOM     13  O   UNL     1       4.020   7.242  17.208  0.00  0.00    +0.000 OA
ATOM     14  H   UNL     1       2.588   8.779  17.724  0.00  0.00    +0.000 HD
ENDROOT
BRANCH   1  16
ATOM     15  C   UNL     1       6.942   4.729  17.581  0.00  0.00    +0.000 C 
ATOM     16  N   UNL     1       5.522   4.651  17.224  0.00  0.00    +0.000 N 
ATOM     17  C   UNL     1       5.244   4.138  15.881  0.00  0.00    +0.000 C 
ENDBRANCH   1  16
BRANCH  10  18
ATOM     18  C   UNL     1       0.779  10.789  18.634  0.00  0.00    +0.000 C 
BRANCH  18  19
ATOM     19  C   UNL     1      -0.713  10.771  18.376  0.00  0.00    +0.000 A 
ATOM     20  C   UNL     1      -1.271   9.819  17.508  0.00  0.00    +0.000 A 
ATOM     21  C   UNL     1      -2.646   9.789  17.272  0.00  0.00    +0.000 A 
ATOM     22  C   UNL     1      -3.479  10.706  17.905  0.00  0.00    +0.000 A 
ATOM     23  C   UNL     1      -2.939  11.657  18.769  0.00  0.00    +0.000 A 
ATOM     24  C   UNL     1      -1.562  11.691  19.005  0.00  0.00    +0.000 A 
ENDBRANCH  18  19
ENDBRANCH  10  18
TORSDOF 3
ENDMDL
MODEL 3
REMARK VINA RESULT:      -7.5      2.963      7.562
REMARK  Name = 
REMARK  5 active torsions:
REMARK  status: ('A' for Active; 'I' for Inactive)
REMARK    1  A    between atoms: C_1  and  N_2
REMARK    2  A    between atoms: N_2  and  C_3
REMARK    3  A    between atoms: N_2  and  C_4
REMARK    4  A    between atoms: C_13  and  C_14
REMARK    5  A    between atoms: C_14  and  C_15
REMARK                            x       y       z     vdW  Elec       q    Type
REMARK                         _______ _______ _______ _____ _____    ______ ____
ROOT
ATOM      1  C   UNL     1       0.317  10.997  19.542  0.00  0.00    +0.000 C 
ATOM      2  C   UNL     1       0.125  10.644  20.821  0.00  0.00    +0.000 C 
ATOM      3 CL   UNL     1      -0.689  11.484  22.057  0.00  0.00    +0.000 Cl
ATOM      4  C   UNL     1       0.699   9.312  21.091  0.00  0.00    +0.000 C 
ATOM      5  O   UNL     1       0.672   8.771  22.183  0.00  0.00    +0.000 OA
ATOM      6  N   UNL     1       1.243   8.909  19.919  0.00  0.00    +0.000 N 
ATOM      7  C   UNL     1       1.858   7.698  19.738  0.00  0.00    +0.000 A 
ATOM      8  N   UNL     1       1.893   6.670  20.559  0.00  0.00    +0.000 NA
ATOM      9  N   UNL     1       2.628   5.670  19.972  0.00  0.00    +0.000 NA
ATOM     10  C   UNL     1       3.068   6.116  18.816  0.00  0.00    +0.000 A 
ATOM     11  N   UNL     1       2.559   7.367  18.606  0.00  0.00    +0.000 N 
ATOM     12  C   UNL     1       1.123   9.860  18.958  0.00  0.00    +0.000 C 
ATOM     13  O   UNL     1       1.584   9.819  17.824  0.00  0.00    +0.000 OA
ATOM     14  H   UNL     1       2.715   7.975  17.811  0.00  0.00    +0.000 HD
ENDROOT
BRANCH   1  16
ATOM     15  C   UNL     1      -1.397  12.210  18.164  0.00  0.00    +0.000 C 
ATOM     16  N   UNL     1      -0.076  12.116  18.793  0.00  0.00    +0.000 N 
ATOM     17  C   UNL     1       0.794  13.276  18.593  0.00  0.00    +0.000 C 
ENDBRANCH   1  16
BRANCH  10  18
ATOM     18  C   UNL     1       4.012   5.435  17.891  0.00  0.00    +0.000 C 
BRANCH  18  19
ATOM     19  C   UNL     1       5.444   5.880  18.095  0.00  0.00    +0.000 A 
ATOM     20  C   UNL     1       6.005   6.865  17.266  0.00  0.00    +0.000 A 
ATOM     21  C   UNL     1       7.321   7.289  17.453  0.00  0.00    +0.000 A 
ATOM     22  C   UNL     1       8.090   6.738  18.475  0.00  0.00    +0.000 A 
ATOM     23  C   UNL     1       7.545   5.759  19.305  0.00  0.00    +0.000 A 
ATOM     24  C   UNL     1       6.229   5.331  19.118  0.00  0.00    +0.000 A 
ENDBRANCH  18  19
ENDBRANCH  10  18
TORSDOF 3
ENDMDL
MODEL 4
REMARK VINA RESULT:      -7.4      2.993      7.544
REMARK  Name = 
REMARK  5 active torsions:
REMARK  status: ('A' for Active; 'I' for Inactive)
REMARK    1  A    between atoms: C_1  and  N_2
REMARK    2  A    between atoms: N_2  and  C_3
REMARK    3  A    between atoms: N_2  and  C_4
REMARK    4  A    between atoms: C_13  and  C_14
REMARK    5  A    between atoms: C_14  and  C_15
REMARK                            x       y       z     vdW  Elec       q    Type
REMARK                         _______ _______ _______ _____ _____    ______ ____
ROOT
ATOM      1  C   UNL     1       0.388  11.018  19.567  0.00  0.00    +0.000 C 
ATOM      2  C   UNL     1       0.163  10.670  20.842  0.00  0.00    +0.000 C 
ATOM      3 CL   UNL     1      -0.651  11.531  22.063  0.00  0.00    +0.000 Cl
ATOM      4  C   UNL     1       0.695   9.322  21.121  0.00  0.00    +0.000 C 
ATOM      5  O   UNL     1       0.633   8.782  22.213  0.00  0.00    +0.000 OA
ATOM      6  N   UNL     1       1.249   8.905  19.959  0.00  0.00    +0.000 N 
ATOM      7  C   UNL     1       1.835   7.678  19.788  0.00  0.00    +0.000 A 
ATOM      8  N   UNL     1       1.827   6.649  20.610  0.00  0.00    +0.000 NA
ATOM      9  N   UNL     1       2.545   5.630  20.035  0.00  0.00    +0.000 NA
ATOM     10  C   UNL     1       3.019   6.064  18.888  0.00  0.00    +0.000 A 
ATOM     11  N   UNL     1       2.548   7.329  18.669  0.00  0.00    +0.000 N 
ATOM     12  C   UNL     1       1.174   9.859  18.997  0.00  0.00    +0.000 C 
ATOM     13  O   UNL     1       1.655   9.806  17.872  0.00  0.00    +0.000 OA
ATOM     14  H   UNL     1       2.735   7.933  17.879  0.00  0.00    +0.000 HD
ENDROOT
BRANCH   1  16
ATOM     15  C   UNL     1      -1.299  12.321  18.238  0.00  0.00    +0.000 C 
ATOM     16  N   UNL     1       0.039  12.147  18.812  0.00  0.00    +0.000 N 
ATOM     17  C   UNL     1       0.977  13.240  18.550  0.00  0.00    +0.000 C 
ENDBRANCH   1  16
BRANCH  10  18
ATOM     18  C   UNL     1       3.961   5.358  17.980  0.00  0.00    +0.000 C 
BRANCH  18  19
ATOM     19  C   UNL     1       5.386   5.844  18.134  0.00  0.00    +0.000 A 
ATOM     20  C   UNL     1       6.205   5.325  19.150  0.00  0.00    +0.000 A 
ATOM     21  C   UNL     1       7.523   5.760  19.295  0.00  0.00    +0.000 A 
ATOM     22  C   UNL     1       8.039   6.713  18.422  0.00  0.00    +0.000 A 
ATOM     23  C   UNL     1       7.237   7.237  17.409  0.00  0.00    +0.000 A 
ATOM     24  C   UNL     1       5.916   6.806  17.265  0.00  0.00    +0.000 A 
ENDBRANCH  18  19
ENDBRANCH  10  18
TORSDOF 3
ENDMDL
MODEL 5
REMARK VINA RESULT:      -7.4      1.613      2.745
REMARK  Name = 
REMARK  5 active torsions:
REMARK  status: ('A' for Active; 'I' for Inactive)
REMARK    1  A    between atoms: C_1  and  N_2
REMARK    2  A    between atoms: N_2  and  C_3
REMARK    3  A    between atoms: N_2  and  C_4
REMARK    4  A    between atoms: C_13  and  C_14
REMARK    5  A    between atoms: C_14  and  C_15
REMARK                            x       y       z     vdW  Elec       q    Type
REMARK                         _______ _______ _______ _____ _____    ______ ____
ROOT
ATOM      1  C   UNL     1       3.886   4.213  18.227  0.00  0.00    +0.000 C 
ATOM      2  C   UNL     1       4.677   4.751  17.288  0.00  0.00    +0.000 C 
ATOM      3 CL   UNL     1       5.893   4.013  16.355  0.00  0.00    +0.000 Cl
ATOM      4  C   UNL     1       4.346   6.174  17.073  0.00  0.00    +0.000 C 
ATOM      5  O   UNL     1       4.932   6.893  16.283  0.00  0.00    +0.000 OA
ATOM      6  N   UNL     1       3.338   6.444  17.934  0.00  0.00    +0.000 N 
ATOM      7  C   UNL     1       2.720   7.663  18.029  0.00  0.00    +0.000 A 
ATOM      8  N   UNL     1       2.848   8.706  17.237  0.00  0.00    +0.000 NA
ATOM      9  N   UNL     1       2.047   9.714  17.714  0.00  0.00    +0.000 NA
ATOM     10  C   UNL     1       1.472   9.287  18.817  0.00  0.00    +0.000 A 
ATOM     11  N   UNL     1       1.824   7.982  19.019  0.00  0.00    +0.000 N 
ATOM     12  C   UNL     1       3.034   5.367  18.703  0.00  0.00    +0.000 C 
ATOM     13  O   UNL     1       2.225   5.327  19.622  0.00  0.00    +0.000 OA
ATOM     14  H   UNL     1       1.549   7.375  19.781  0.00  0.00    +0.000 HD
ENDROOT
BRANCH   1  16
ATOM     15  C   UNL     1       3.047   1.854  18.031  0.00  0.00    +0.000 C 
ATOM     16  N   UNL     1       3.767   2.914  18.742  0.00  0.00    +0.000 N 
ATOM     17  C   UNL     1       4.361   2.517  20.020  0.00  0.00    +0.000 C 
ENDBRANCH   1  16
BRANCH  10  18
ATOM     18  C   UNL     1       0.624  10.074  19.751  0.00  0.00    +0.000 C 
BRANCH  18  19
ATOM     19  C   UNL     1      -0.662  10.545  19.105  0.00  0.00    +0.000 A 
ATOM     20  C   UNL     1      -1.105   9.967  17.904  0.00  0.00    +0.000 A 
ATOM     21  C   UNL     1      -2.294  10.388  17.307  0.00  0.00    +0.000 A 
ATOM     22  C   UNL     1      -3.057  11.386  17.907  0.00  0.00    +0.000 A 
ATOM     23  C   UNL     1      -2.629  11.968  19.099  0.00  0.00    +0.000 A 
ATOM     24  C   UNL     1      -1.437  11.551  19.697  0.00  0.00    +0.000 A 
ENDBRANCH  18  19
ENDBRANCH  10  18
TORSDOF 3
ENDMDL
MODEL 6
REMARK VINA RESULT:      -7.4      1.614      2.662
REMARK  Name = 
REMARK  5 active torsions:
REMARK  status: ('A' for Active; 'I' for Inactive)
REMARK    1  A    between atoms: C_1  and  N_2
REMARK    2  A    between atoms: N_2  and  C_3
REMARK    3  A    between atoms: N_2  and  C_4
REMARK    4  A    between atoms: C_13  and  C_14
REMARK    5  A    between atoms: C_14  and  C_15
REMARK                            x       y       z     vdW  Elec       q    Type
REMARK                         _______ _______ _______ _____ _____    ______ ____
ROOT
ATOM      1  C   UNL     1       3.841   4.223  18.221  0.00  0.00    +0.000 C 
ATOM      2  C   UNL     1       4.640   4.752  17.283  0.00  0.00    +0.000 C 
ATOM      3 CL   UNL     1       5.851   4.000  16.355  0.00  0.00    +0.000 Cl
ATOM      4  C   UNL     1       4.324   6.177  17.066  0.00  0.00    +0.000 C 
ATOM      5  O   UNL     1       4.920   6.890  16.277  0.00  0.00    +0.000 OA
ATOM      6  N   UNL     1       3.317   6.459  17.925  0.00  0.00    +0.000 N 
ATOM      7  C   UNL     1       2.711   7.684  18.017  0.00  0.00    +0.000 A 
ATOM      8  N   UNL     1       2.852   8.725  17.224  0.00  0.00    +0.000 NA
ATOM      9  N   UNL     1       2.061   9.742  17.698  0.00  0.00    +0.000 NA
ATOM     10  C   UNL     1       1.478   9.322  18.800  0.00  0.00    +0.000 A 
ATOM     11  N   UNL     1       1.817   8.014  19.004  0.00  0.00    +0.000 N 
ATOM     12  C   UNL     1       3.000   5.386  18.694  0.00  0.00    +0.000 C 
ATOM     13  O   UNL     1       2.188   5.356  19.611  0.00  0.00    +0.000 OA
ATOM     14  H   UNL     1       1.533   7.411  19.766  0.00  0.00    +0.000 HD
ENDROOT
BRANCH   1  16
ATOM     15  C   UNL     1       4.366   2.506  19.978  0.00  0.00    +0.000 C 
ATOM     16  N   UNL     1       3.707   2.926  18.737  0.00  0.00    +0.000 N 
ATOM     17  C   UNL     1       2.893   1.899  18.085  0.00  0.00    +0.000 C 
ENDBRANCH   1  16
BRANCH  10  18
ATOM     18  C   UNL     1       0.636  10.119  19.731  0.00  0.00    +0.000 C 
BRANCH  18  19
ATOM     19  C   UNL     1      -0.672  10.547  19.102  0.00  0.00    +0.000 A 
ATOM     20  C   UNL     1      -1.442  11.564  19.691  0.00  0.00    +0.000 A 
ATOM     21  C   UNL     1      -2.645  11.972  19.114  0.00  0.00    +0.000 A 
ATOM     22  C   UNL     1      -3.089  11.373  17.938  0.00  0.00    +0.000 A 
ATOM     23  C   UNL     1      -2.335  10.363  17.343  0.00  0.00    +0.000 A 
ATOM     24  C   UNL     1      -1.132   9.951  17.921  0.00  0.00    +0.000 A 
ENDBRANCH  18  19
ENDBRANCH  10  18
TORSDOF 3
ENDMDL
MODEL 7
REMARK VINA RESULT:      -7.0      3.925      7.964
REMARK  Name = 
REMARK  5 active torsions:
REMARK  status: ('A' for Active; 'I' for Inactive)
REMARK    1  A    between atoms: C_1  and  N_2
REMARK    2  A    between atoms: N_2  and  C_3
REMARK    3  A    between atoms: N_2  and  C_4
REMARK    4  A    between atoms: C_13  and  C_14
REMARK    5  A    between atoms: C_14  and  C_15
REMARK                            x       y       z     vdW  Elec       q    Type
REMARK                         _______ _______ _______ _____ _____    ______ ____
ROOT
ATOM      1  C   UNL     1      -1.339  11.794  21.303  0.00  0.00    +0.000 C 
ATOM      2  C   UNL     1      -1.860  12.007  20.086  0.00  0.00    +0.000 C 
ATOM      3 CL   UNL     1      -3.099  13.076  19.620  0.00  0.00    +0.000 Cl
ATOM      4  C   UNL     1      -1.174  11.187  19.069  0.00  0.00    +0.000 C 
ATOM      5  O   UNL     1      -1.471  11.185  17.887  0.00  0.00    +0.000 OA
ATOM      6  N   UNL     1      -0.240  10.479  19.747  0.00  0.00    +0.000 N 
ATOM      7  C   UNL     1       0.638   9.609  19.155  0.00  0.00    +0.000 A 
ATOM      8  N   UNL     1       0.860   9.422  17.871  0.00  0.00    +0.000 NA
ATOM      9  N   UNL     1       1.817   8.447  17.734  0.00  0.00    +0.000 NA
ATOM     10  C   UNL     1       2.137   8.021  18.936  0.00  0.00    +0.000 A 
ATOM     11  N   UNL     1       1.459   8.766  19.861  0.00  0.00    +0.000 N 
ATOM     12  C   UNL     1      -0.298  10.721  21.081  0.00  0.00    +0.000 C 
ATOM     13  O   UNL     1       0.362  10.173  21.955  0.00  0.00    +0.000 OA
ATOM     14  H   UNL     1       1.488   8.680  20.869  0.00  0.00    +0.000 HD
ENDROOT
BRANCH   1  16
ATOM     15  C   UNL     1      -0.879  13.532  23.057  0.00  0.00    +0.000 C 
ATOM     16  N   UNL     1      -1.599  12.355  22.562  0.00  0.00    +0.000 N 
ATOM     17  C   UNL     1      -2.613  11.817  23.470  0.00  0.00    +0.000 C 
ENDBRANCH   1  16
BRANCH  10  18
ATOM     18  C   UNL     1       3.032   6.885  19.278  0.00  0.00    +0.000 C 
BRANCH  18  19
ATOM     19  C   UNL     1       2.298   5.562  19.316  0.00  0.00    +0.000 A 
ATOM     20  C   UNL     1       1.788   5.068  20.527  0.00  0.00    +0.000 A 
ATOM     21  C   UNL     1       1.100   3.855  20.570  0.00  0.00    +0.000 A 
ATOM     22  C   UNL     1       0.910   3.123  19.401  0.00  0.00    +0.000 A 
ATOM     23  C   UNL     1       1.411   3.601  18.191  0.00  0.00    +0.000 A 
ATOM     24  C   UNL     1       2.102   4.814  18.147  0.00  0.00    +0.000 A 
ENDBRANCH  18  19
ENDBRANCH  10  18
TORSDOF 3
ENDMDL
MODEL 8
REMARK VINA RESULT:      -7.0      1.536      2.917
REMARK  Name = 
REMARK  5 active torsions:
REMARK  status: ('A' for Active; 'I' for Inactive)
REMARK    1  A    between atoms: C_1  and  N_2
REMARK    2  A    between atoms: N_2  and  C_3
REMARK    3  A    between atoms: N_2  and  C_4
REMARK    4  A    between atoms: C_13  and  C_14
REMARK    5  A    between atoms: C_14  and  C_15
REMARK                            x       y       z     vdW  Elec       q    Type
REMARK                         _______ _______ _______ _____ _____    ______ ____
ROOT
ATOM      1  C   UNL     1       3.085   4.305  18.874  0.00  0.00    +0.000 C 
ATOM      2  C   UNL     1       3.942   4.623  17.892  0.00  0.00    +0.000 C 
ATOM      3 CL   UNL     1       5.038   3.625  17.057  0.00  0.00    +0.000 Cl
ATOM      4  C   UNL     1       3.815   6.047  17.525  0.00  0.00    +0.000 C 
ATOM      5  O   UNL     1       4.495   6.589  16.670  0.00  0.00    +0.000 OA
ATOM      6  N   UNL     1       2.858   6.547  18.341  0.00  0.00    +0.000 N 
ATOM      7  C   UNL     1       2.420   7.844  18.301  0.00  0.00    +0.000 A 
ATOM      8  N   UNL     1       2.692   8.769  17.404  0.00  0.00    +0.000 NA
ATOM      9  N   UNL     1       2.043   9.925  17.763  0.00  0.00    +0.000 NA
ATOM     10  C   UNL     1       1.418   9.703  18.899  0.00  0.00    +0.000 A 
ATOM     11  N   UNL     1       1.582   8.390  19.241  0.00  0.00    +0.000 N 
ATOM     12  C   UNL     1       2.408   5.612  19.216  0.00  0.00    +0.000 C 
ATOM     13  O   UNL     1       1.605   5.784  20.125  0.00  0.00    +0.000 OA
ATOM     14  H   UNL     1       1.226   7.912  20.060  0.00  0.00    +0.000 HD
ENDROOT
BRANCH   1  16
ATOM     15  C   UNL     1       3.098   2.870  20.936  0.00  0.00    +0.000 C 
ATOM     16  N   UNL     1       2.786   3.098  19.522  0.00  0.00    +0.000 N 
ATOM     17  C   UNL     1       2.129   1.980  18.840  0.00  0.00    +0.000 C 
ENDBRANCH   1  16
BRANCH  10  18
ATOM     18  C   UNL     1       0.693  10.696  19.735  0.00  0.00    +0.000 C 
BRANCH  18  19
ATOM     19  C   UNL     1      -0.716  10.946  19.243  0.00  0.00    +0.000 A 
ATOM     20  C   UNL     1      -1.246  10.181  18.191  0.00  0.00    +0.000 A 
ATOM     21  C   UNL     1      -2.548  10.398  17.737  0.00  0.00    +0.000 A 
ATOM     22  C   UNL     1      -3.336  11.378  18.333  0.00  0.00    +0.000 A 
ATOM     23  C   UNL     1      -2.823  12.145  19.378  0.00  0.00    +0.000 A 
ATOM     24  C   UNL     1      -1.519  11.932  19.831  0.00  0.00    +0.000 A 
ENDBRANCH  18  19
ENDBRANCH  10  18
TORSDOF 3
ENDMDL
MODEL 9
REMARK VINA RESULT:      -6.9      3.393      7.622
REMARK  Name = 
REMARK  5 active torsions:
REMARK  status: ('A' for Active; 'I' for Inactive)
REMARK    1  A    between atoms: C_1  and  N_2
REMARK    2  A    between atoms: N_2  and  C_3
REMARK    3  A    between atoms: N_2  and  C_4
REMARK    4  A    between atoms: C_13  and  C_14
REMARK    5  A    between atoms: C_14  and  C_15
REMARK                            x       y       z     vdW  Elec       q    Type
REMARK                         _______ _______ _______ _____ _____    ______ ____
ROOT
ATOM      1  C   UNL     1       0.295  11.702  20.143  0.00  0.00    +0.000 C 
ATOM      2  C   UNL     1       0.003  11.273  21.379  0.00  0.00    +0.000 C 
ATOM      3 CL   UNL     1      -0.795  12.091  22.640  0.00  0.00    +0.000 Cl
ATOM      4  C   UNL     1       0.436   9.875  21.567  0.00  0.00    +0.000 C 
ATOM      5  O   UNL     1       0.300   9.257  22.609  0.00  0.00    +0.000 OA
ATOM      6  N   UNL     1       1.001   9.511  20.392  0.00  0.00    +0.000 N 
ATOM      7  C   UNL     1       1.510   8.264  20.142  0.00  0.00    +0.000 A 
ATOM      8  N   UNL     1       1.406   7.178  20.879  0.00  0.00    +0.000 NA
ATOM      9  N   UNL     1       2.075   6.159  20.247  0.00  0.00    +0.000 NA
ATOM     10  C   UNL     1       2.617   6.648  19.152  0.00  0.00    +0.000 A 
ATOM     11  N   UNL     1       2.237   7.954  19.020  0.00  0.00    +0.000 N 
ATOM     12  C   UNL     1       1.022  10.540  19.507  0.00  0.00    +0.000 C 
ATOM     13  O   UNL     1       1.537  10.541  18.396  0.00  0.00    +0.000 OA
ATOM     14  H   UNL     1       2.491   8.603  18.286  0.00  0.00    +0.000 HD
ENDROOT
BRANCH   1  16
ATOM     15  C   UNL     1      -0.846  12.986  18.310  0.00  0.00    +0.000 C 
ATOM     16  N   UNL     1       0.047  12.907  19.470  0.00  0.00    +0.000 N 
ATOM     17  C   UNL     1       0.651  14.176  19.879  0.00  0.00    +0.000 C 
ENDBRANCH   1  16
BRANCH  10  18
ATOM     18  C   UNL     1       3.541   5.951  18.219  0.00  0.00    +0.000 C 
BRANCH  18  19
ATOM     19  C   UNL     1       3.447   4.445  18.330  0.00  0.00    +0.000 A 
ATOM     20  C   UNL     1       4.279   3.746  19.220  0.00  0.00    +0.000 A 
ATOM     21  C   UNL     1       4.193   2.358  19.336  0.00  0.00    +0.000 A 
ATOM     22  C   UNL     1       3.270   1.654  18.569  0.00  0.00    +0.000 A 
ATOM     23  C   UNL     1       2.437   2.334  17.682  0.00  0.00    +0.000 A 
ATOM     24  C   UNL     1       2.524   3.723  17.562  0.00  0.00    +0.000 A 
ENDBRANCH  18  19
ENDBRANCH  10  18
TORSDOF 3
ENDMDL
