MODEL 1
REMARK VINA RESULT:      -7.8      0.000      0.000
REMARK  Name = 
REMARK  3 active torsions:
REMARK  status: ('A' for Active; 'I' for Inactive)
REMARK    1  A    between atoms: C_5  and  C_6
REMARK    2  A    between atoms: N_13  and  S_14
REMARK    3  A    between atoms: S_14  and  C_17
REMARK                            x       y       z     vdW  Elec       q    Type
REMARK                         _______ _______ _______ _____ _____    ______ ____
ROOT
ATOM      1  O   UNL     1       3.746   1.313  18.129  0.00  0.00    +0.000 OA
ATOM      2  C   UNL     1       3.005   2.238  18.401  0.00  0.00    +0.000 C 
ATOM      3  N   UNL     1       1.637   2.181  18.333  0.00  0.00    +0.000 N 
ATOM      4  C   UNL     1       1.054   3.478  18.566  0.00  0.00    +0.000 C 
ATOM      5  C   UNL     1       2.154   4.243  19.347  0.00  0.00    +0.000 C 
ATOM      6  N   UNL     1       3.352   3.520  18.860  0.00  0.00    +0.000 N 
ATOM      7  H   UNL     1       1.202   1.412  17.839  0.00  0.00    +0.000 HD
ENDROOT
BRANCH   5   8
ATOM      8  C   UNL     1       2.066   5.733  19.156  0.00  0.00    +0.000 A 
ATOM      9  C   UNL     1       1.799   6.557  20.262  0.00  0.00    +0.000 A 
ATOM     10  C   UNL     1       1.702   7.942  20.109  0.00  0.00    +0.000 A 
ATOM     11  C   UNL     1       1.871   8.512  18.850  0.00  0.00    +0.000 A 
ATOM     12 BR   UNL     1       1.725  10.384  18.641  0.00  0.00    +0.000 Br
ATOM     13  C   UNL     1       2.149   7.712  17.745  0.00  0.00    +0.000 A 
ATOM     14  C   UNL     1       2.248   6.328  17.897  0.00  0.00    +0.000 A 
ENDBRANCH   5   8
BRANCH   6  15
ATOM     15  S   UNL     1       4.908   4.039  19.148  0.00  0.00    +0.000 S 
ATOM     16  O   UNL     1       4.910   5.360  19.740  0.00  0.00    +0.000 OA
ATOM     17  O   UNL     1       5.647   2.972  19.793  0.00  0.00    +0.000 OA
BRANCH  15  18
ATOM     18  C   UNL     1       5.603   4.234  17.518  0.00  0.00    +0.000 A 
ATOM     19  C   UNL     1       4.758   4.212  16.406  0.00  0.00    +0.000 A 
ATOM     20  C   UNL     1       5.289   4.442  15.135  0.00  0.00    +0.000 A 
ATOM     21  C   UNL     1       6.652   4.707  14.987  0.00  0.00    +0.000 A 
ATOM     22 CL   UNL     1       7.299   5.006  13.421  0.00  0.00    +0.000 Cl
ATOM     23  C   UNL     1       7.493   4.745  16.100  0.00  0.00    +0.000 A 
ATOM     24  C   UNL     1       6.970   4.504  17.374  0.00  0.00    +0.000 A 
ENDBRANCH  15  18
ENDBRANCH   6  15
TORSDOF 3
ENDMDL
MODEL 2
REMARK VINA RESULT:      -7.7      0.079      1.016
REMARK  Name = 
REMARK  3 active torsions:
REMARK  status: ('A' for Active; 'I' for Inactive)
REMARK    1  A    between atoms: C_5  and  C_6
REMARK    2  A    between atoms: N_13  and  S_14
REMARK    3  A    between atoms: S_14  and  C_17
REMARK                            x       y       z     vdW  Elec       q    Type
REMARK                         _______ _______ _______ _____ _____    ______ ____
ROOT
ATOM      1  O   UNL     1       3.737   1.367  18.138  0.00  0.00    +0.000 OA
ATOM      2  C   UNL     1       2.997   2.292  18.411  0.00  0.00    +0.000 C 
ATOM      3  N   UNL     1       1.629   2.234  18.349  0.00  0.00    +0.000 N 
ATOM      4  C   UNL     1       1.047   3.533  18.581  0.00  0.00    +0.000 C 
ATOM      5  C   UNL     1       2.150   4.299  19.356  0.00  0.00    +0.000 C 
ATOM      6  N   UNL     1       3.346   3.576  18.866  0.00  0.00    +0.000 N 
ATOM      7  H   UNL     1       1.192   1.465  17.859  0.00  0.00    +0.000 HD
ENDROOT
BRANCH   5   8
ATOM      8  C   UNL     1       2.061   5.788  19.163  0.00  0.00    +0.000 A 
ATOM      9  C   UNL     1       1.775   6.613  20.264  0.00  0.00    +0.000 A 
ATOM     10  C   UNL     1       1.676   7.998  20.108  0.00  0.00    +0.000 A 
ATOM     11  C   UNL     1       1.864   8.567  18.851  0.00  0.00    +0.000 A 
ATOM     12 BR   UNL     1       1.716  10.439  18.638  0.00  0.00    +0.000 Br
ATOM     13  C   UNL     1       2.161   7.766  17.751  0.00  0.00    +0.000 A 
ATOM     14  C   UNL     1       2.261   6.383  17.906  0.00  0.00    +0.000 A 
ENDBRANCH   5   8
BRANCH   6  15
ATOM     15  S   UNL     1       4.903   4.094  19.147  0.00  0.00    +0.000 S 
ATOM     16  O   UNL     1       4.906   5.378  19.817  0.00  0.00    +0.000 OA
ATOM     17  O   UNL     1       5.669   3.000  19.708  0.00  0.00    +0.000 OA
BRANCH  15  18
ATOM     18  C   UNL     1       5.555   4.395  17.515  0.00  0.00    +0.000 A 
ATOM     19  C   UNL     1       6.924   4.629  17.357  0.00  0.00    +0.000 A 
ATOM     20  C   UNL     1       7.450   4.789  16.073  0.00  0.00    +0.000 A 
ATOM     21  C   UNL     1       6.610   4.697  14.960  0.00  0.00    +0.000 A 
ATOM     22 CL   UNL     1       7.266   4.879  13.379  0.00  0.00    +0.000 Cl
ATOM     23  C   UNL     1       5.247   4.449  15.118  0.00  0.00    +0.000 A 
ATOM     24  C   UNL     1       4.712   4.300  16.401  0.00  0.00    +0.000 A 
ENDBRANCH  15  18
ENDBRANCH   6  15
TORSDOF 3
ENDMDL
MODEL 3
REMARK VINA RESULT:      -7.7      0.055      1.009
REMARK  Name = 
REMARK  3 active torsions:
REMARK  status: ('A' for Active; 'I' for Inactive)
REMARK    1  A    between atoms: C_5  and  C_6
REMARK    2  A    between atoms: N_13  and  S_14
REMARK    3  A    between atoms: S_14  and  C_17
REMARK                            x       y       z     vdW  Elec       q    Type
REMARK                         _______ _______ _______ _____ _____    ______ ____
ROOT
ATOM      1  O   UNL     1       3.725   1.316  18.162  0.00  0.00    +0.000 OA
ATOM      2  C   UNL     1       2.985   2.241  18.436  0.00  0.00    +0.000 C 
ATOM      3  N   UNL     1       1.618   2.184  18.371  0.00  0.00    +0.000 N 
ATOM      4  C   UNL     1       1.035   3.482  18.607  0.00  0.00    +0.000 C 
ATOM      5  C   UNL     1       2.137   4.245  19.385  0.00  0.00    +0.000 C 
ATOM      6  N   UNL     1       3.334   3.523  18.895  0.00  0.00    +0.000 N 
ATOM      7  H   UNL     1       1.181   1.416  17.878  0.00  0.00    +0.000 HD
ENDROOT
BRANCH   5   8
ATOM      8  C   UNL     1       2.049   5.735  19.196  0.00  0.00    +0.000 A 
ATOM      9  C   UNL     1       2.233   6.282  17.915  0.00  0.00    +0.000 A 
ATOM     10  C   UNL     1       2.167   7.663  17.716  0.00  0.00    +0.000 A 
ATOM     11  C   UNL     1       1.915   8.506  18.796  0.00  0.00    +0.000 A 
ATOM     12 BR   UNL     1       1.840  10.375  18.528  0.00  0.00    +0.000 Br
ATOM     13  C   UNL     1       1.717   7.981  20.070  0.00  0.00    +0.000 A 
ATOM     14  C   UNL     1       1.782   6.601  20.269  0.00  0.00    +0.000 A 
ENDBRANCH   5   8
BRANCH   6  15
ATOM     15  S   UNL     1       4.890   4.041  19.180  0.00  0.00    +0.000 S 
ATOM     16  O   UNL     1       4.894   5.364  19.770  0.00  0.00    +0.000 OA
ATOM     17  O   UNL     1       5.629   2.975  19.826  0.00  0.00    +0.000 OA
BRANCH  15  18
ATOM     18  C   UNL     1       5.584   4.233  17.549  0.00  0.00    +0.000 A 
ATOM     19  C   UNL     1       4.736   4.213  16.438  0.00  0.00    +0.000 A 
ATOM     20  C   UNL     1       5.266   4.440  15.166  0.00  0.00    +0.000 A 
ATOM     21  C   UNL     1       6.630   4.700  15.016  0.00  0.00    +0.000 A 
ATOM     22 CL   UNL     1       7.275   4.995  13.448  0.00  0.00    +0.000 Cl
ATOM     23  C   UNL     1       7.473   4.735  16.127  0.00  0.00    +0.000 A 
ATOM     24  C   UNL     1       6.951   4.497  17.402  0.00  0.00    +0.000 A 
ENDBRANCH  15  18
ENDBRANCH   6  15
TORSDOF 3
ENDMDL
MODEL 4
REMARK VINA RESULT:      -7.7      0.078      1.431
REMARK  Name = 
REMARK  3 active torsions:
REMARK  status: ('A' for Active; 'I' for Inactive)
REMARK    1  A    between atoms: C_5  and  C_6
REMARK    2  A    between atoms: N_13  and  S_14
REMARK    3  A    between atoms: S_14  and  C_17
REMARK                            x       y       z     vdW  Elec       q    Type
REMARK                         _______ _______ _______ _____ _____    ______ ____
ROOT
ATOM      1  O   UNL     1       3.750   1.333  18.154  0.00  0.00    +0.000 OA
ATOM      2  C   UNL     1       3.004   2.250  18.437  0.00  0.00    +0.000 C 
ATOM      3  N   UNL     1       1.637   2.181  18.384  0.00  0.00    +0.000 N 
ATOM      4  C   UNL     1       1.045   3.473  18.628  0.00  0.00    +0.000 C 
ATOM      5  C   UNL     1       2.147   4.244  19.399  0.00  0.00    +0.000 C 
ATOM      6  N   UNL     1       3.345   3.534  18.897  0.00  0.00    +0.000 N 
ATOM      7  H   UNL     1       1.203   1.410  17.892  0.00  0.00    +0.000 HD
ENDROOT
BRANCH   5   8
ATOM      8  C   UNL     1       2.043   5.734  19.215  0.00  0.00    +0.000 A 
ATOM      9  C   UNL     1       2.219   6.287  17.936  0.00  0.00    +0.000 A 
ATOM     10  C   UNL     1       2.140   7.667  17.741  0.00  0.00    +0.000 A 
ATOM     11  C   UNL     1       1.882   8.504  18.824  0.00  0.00    +0.000 A 
ATOM     12 BR   UNL     1       1.788  10.373  18.563  0.00  0.00    +0.000 Br
ATOM     13  C   UNL     1       1.692   7.973  20.097  0.00  0.00    +0.000 A 
ATOM     14  C   UNL     1       1.771   6.593  20.292  0.00  0.00    +0.000 A 
ENDBRANCH   5   8
BRANCH   6  15
ATOM     15  S   UNL     1       4.900   4.064  19.170  0.00  0.00    +0.000 S 
ATOM     16  O   UNL     1       4.896   5.351  19.835  0.00  0.00    +0.000 OA
ATOM     17  O   UNL     1       5.675   2.978  19.734  0.00  0.00    +0.000 OA
BRANCH  15  18
ATOM     18  C   UNL     1       5.544   4.363  17.535  0.00  0.00    +0.000 A 
ATOM     19  C   UNL     1       6.913   4.592  17.371  0.00  0.00    +0.000 A 
ATOM     20  C   UNL     1       7.433   4.750  16.083  0.00  0.00    +0.000 A 
ATOM     21  C   UNL     1       6.587   4.660  14.975  0.00  0.00    +0.000 A 
ATOM     22 CL   UNL     1       7.235   4.839  13.391  0.00  0.00    +0.000 Cl
ATOM     23  C   UNL     1       5.224   4.416  15.140  0.00  0.00    +0.000 A 
ATOM     24  C   UNL     1       4.695   4.269  16.426  0.00  0.00    +0.000 A 
ENDBRANCH  15  18
ENDBRANCH   6  15
TORSDOF 3
ENDMDL
MODEL 5
REMARK VINA RESULT:      -6.8      3.612      5.267
REMARK  Name = 
REMARK  3 active torsions:
REMARK  status: ('A' for Active; 'I' for Inactive)
REMARK    1  A    between atoms: C_5  and  C_6
REMARK    2  A    between atoms: N_13  and  S_14
REMARK    3  A    between atoms: S_14  and  C_17
REMARK                            x       y       z     vdW  Elec       q    Type
REMARK                         _______ _______ _______ _____ _____    ______ ____
ROOT
ATOM      1  O   UNL     1       7.776   5.677  14.273  0.00  0.00    +0.000 OA
ATOM      2  C   UNL     1       6.940   4.864  14.616  0.00  0.00    +0.000 C 
ATOM      3  N   UNL     1       6.313   3.992  13.765  0.00  0.00    +0.000 N 
ATOM      4  C   UNL     1       5.269   3.268  14.446  0.00  0.00    +0.000 C 
ATOM      5  C   UNL     1       5.673   3.355  15.940  0.00  0.00    +0.000 C 
ATOM      6  N   UNL     1       6.460   4.610  15.912  0.00  0.00    +0.000 N 
ATOM      7  H   UNL     1       6.377   4.149  12.767  0.00  0.00    +0.000 HD
ENDROOT
BRANCH   5   8
ATOM      8  C   UNL     1       4.490   3.250  16.864  0.00  0.00    +0.000 A 
ATOM      9  C   UNL     1       3.289   3.897  16.527  0.00  0.00    +0.000 A 
ATOM     10  C   UNL     1       2.180   3.823  17.373  0.00  0.00    +0.000 A 
ATOM     11  C   UNL     1       2.264   3.102  18.561  0.00  0.00    +0.000 A 
ATOM     12 BR   UNL     1       0.768   3.015  19.712  0.00  0.00    +0.000 Br
ATOM     13  C   UNL     1       3.442   2.444  18.905  0.00  0.00    +0.000 A 
ATOM     14  C   UNL     1       4.550   2.516  18.059  0.00  0.00    +0.000 A 
ENDBRANCH   5   8
BRANCH   6  15
ATOM     15  S   UNL     1       6.974   5.393  17.289  0.00  0.00    +0.000 S 
ATOM     16  O   UNL     1       7.465   4.446  18.268  0.00  0.00    +0.000 OA
ATOM     17  O   UNL     1       7.808   6.515  16.907  0.00  0.00    +0.000 OA
BRANCH  15  18
ATOM     18  C   UNL     1       5.478   6.074  17.978  0.00  0.00    +0.000 A 
ATOM     19  C   UNL     1       4.712   6.958  17.213  0.00  0.00    +0.000 A 
ATOM     20  C   UNL     1       3.501   7.434  17.721  0.00  0.00    +0.000 A 
ATOM     21  C   UNL     1       3.058   7.011  18.976  0.00  0.00    +0.000 A 
ATOM     22 CL   UNL     1       1.557   7.587  19.590  0.00  0.00    +0.000 Cl
ATOM     23  C   UNL     1       3.815   6.117  19.732  0.00  0.00    +0.000 A 
ATOM     24  C   UNL     1       5.035   5.646  19.235  0.00  0.00    +0.000 A 
ENDBRANCH  15  18
ENDBRANCH   6  15
TORSDOF 3
ENDMDL
MODEL 6
REMARK VINA RESULT:      -6.8      3.607      5.209
REMARK  Name = 
REMARK  3 active torsions:
REMARK  status: ('A' for Active; 'I' for Inactive)
REMARK    1  A    between atoms: C_5  and  C_6
REMARK    2  A    between atoms: N_13  and  S_14
REMARK    3  A    between atoms: S_14  and  C_17
REMARK                            x       y       z     vdW  Elec       q    Type
REMARK                         _______ _______ _______ _____ _____    ______ ____
ROOT
ATOM      1  O   UNL     1       7.813   5.612  14.320  0.00  0.00    +0.000 OA
ATOM      2  C   UNL     1       6.970   4.811  14.674  0.00  0.00    +0.000 C 
ATOM      3  N   UNL     1       6.360   3.910  13.841  0.00  0.00    +0.000 N 
ATOM      4  C   UNL     1       5.303   3.209  14.526  0.00  0.00    +0.000 C 
ATOM      5  C   UNL     1       5.677   3.348  16.024  0.00  0.00    +0.000 C 
ATOM      6  N   UNL     1       6.464   4.601  15.968  0.00  0.00    +0.000 N 
ATOM      7  H   UNL     1       6.443   4.032  12.840  0.00  0.00    +0.000 HD
ENDROOT
BRANCH   5   8
ATOM      8  C   UNL     1       4.476   3.273  16.927  0.00  0.00    +0.000 A 
ATOM      9  C   UNL     1       4.566   2.572  18.142  0.00  0.00    +0.000 A 
ATOM     10  C   UNL     1       3.461   2.479  18.992  0.00  0.00    +0.000 A 
ATOM     11  C   UNL     1       2.261   3.088  18.634  0.00  0.00    +0.000 A 
ATOM     12 BR   UNL     1       0.763   2.950  19.779  0.00  0.00    +0.000 Br
ATOM     13  C   UNL     1       2.157   3.797  17.441  0.00  0.00    +0.000 A 
ATOM     14  C   UNL     1       3.261   3.891  16.591  0.00  0.00    +0.000 A 
ENDBRANCH   5   8
BRANCH   6  15
ATOM     15  S   UNL     1       6.951   5.431  17.327  0.00  0.00    +0.000 S 
ATOM     16  O   UNL     1       7.437   4.520  18.342  0.00  0.00    +0.000 OA
ATOM     17  O   UNL     1       7.780   6.549  16.922  0.00  0.00    +0.000 OA
BRANCH  15  18
ATOM     18  C   UNL     1       5.439   6.119  17.973  0.00  0.00    +0.000 A 
ATOM     19  C   UNL     1       4.685   6.985  17.176  0.00  0.00    +0.000 A 
ATOM     20  C   UNL     1       3.462   7.465  17.651  0.00  0.00    +0.000 A 
ATOM     21  C   UNL     1       2.996   7.064  18.905  0.00  0.00    +0.000 A 
ATOM     22 CL   UNL     1       1.480   7.645  19.478  0.00  0.00    +0.000 Cl
ATOM     23  C   UNL     1       3.742   6.189  19.693  0.00  0.00    +0.000 A 
ATOM     24  C   UNL     1       4.973   5.714  19.230  0.00  0.00    +0.000 A 
ENDBRANCH  15  18
ENDBRANCH   6  15
TORSDOF 3
ENDMDL
MODEL 7
REMARK VINA RESULT:      -6.8      3.638      5.313
REMARK  Name = 
REMARK  3 active torsions:
REMARK  status: ('A' for Active; 'I' for Inactive)
REMARK    1  A    between atoms: C_5  and  C_6
REMARK    2  A    between atoms: N_13  and  S_14
REMARK    3  A    between atoms: S_14  and  C_17
REMARK                            x       y       z     vdW  Elec       q    Type
REMARK                         _______ _______ _______ _____ _____    ______ ____
ROOT
ATOM      1  O   UNL     1       7.836   5.616  14.272  0.00  0.00    +0.000 OA
ATOM      2  C   UNL     1       6.998   4.801  14.605  0.00  0.00    +0.000 C 
ATOM      3  N   UNL     1       6.418   3.895  13.755  0.00  0.00    +0.000 N 
ATOM      4  C   UNL     1       5.357   3.175  14.414  0.00  0.00    +0.000 C 
ATOM      5  C   UNL     1       5.698   3.312  15.921  0.00  0.00    +0.000 C 
ATOM      6  N   UNL     1       6.468   4.577  15.887  0.00  0.00    +0.000 N 
ATOM      7  H   UNL     1       6.520   4.024  12.757  0.00  0.00    +0.000 HD
ENDROOT
BRANCH   5   8
ATOM      8  C   UNL     1       4.480   3.216  16.799  0.00  0.00    +0.000 A 
ATOM      9  C   UNL     1       4.521   2.416  17.953  0.00  0.00    +0.000 A 
ATOM     10  C   UNL     1       3.399   2.302  18.778  0.00  0.00    +0.000 A 
ATOM     11  C   UNL     1       2.231   2.987  18.455  0.00  0.00    +0.000 A 
ATOM     12 BR   UNL     1       0.710   2.820  19.564  0.00  0.00    +0.000 Br
ATOM     13  C   UNL     1       2.176   3.794  17.322  0.00  0.00    +0.000 A 
ATOM     14  C   UNL     1       3.297   3.909  16.497  0.00  0.00    +0.000 A 
ENDBRANCH   5   8
BRANCH   6  15
ATOM     15  S   UNL     1       6.915   5.407  17.260  0.00  0.00    +0.000 S 
ATOM     16  O   UNL     1       7.464   4.507  18.252  0.00  0.00    +0.000 OA
ATOM     17  O   UNL     1       7.671   6.582  16.873  0.00  0.00    +0.000 OA
BRANCH  15  18
ATOM     18  C   UNL     1       5.369   5.988  17.931  0.00  0.00    +0.000 A 
ATOM     19  C   UNL     1       4.967   5.553  19.197  0.00  0.00    +0.000 A 
ATOM     20  C   UNL     1       3.794   6.066  19.758  0.00  0.00    +0.000 A 
ATOM     21  C   UNL     1       3.046   7.016  19.060  0.00  0.00    +0.000 A 
ATOM     22 CL   UNL     1       1.611   7.657  19.763  0.00  0.00    +0.000 Cl
ATOM     23  C   UNL     1       3.457   7.461  17.804  0.00  0.00    +0.000 A 
ATOM     24  C   UNL     1       4.623   6.944  17.231  0.00  0.00    +0.000 A 
ENDBRANCH  15  18
ENDBRANCH   6  15
TORSDOF 3
ENDMDL
MODEL 8
REMARK VINA RESULT:      -6.7      3.632      5.348
REMARK  Name = 
REMARK  3 active torsions:
REMARK  status: ('A' for Active; 'I' for Inactive)
REMARK    1  A    between atoms: C_5  and  C_6
REMARK    2  A    between atoms: N_13  and  S_14
REMARK    3  A    between atoms: S_14  and  C_17
REMARK                            x       y       z     vdW  Elec       q    Type
REMARK                         _______ _______ _______ _____ _____    ______ ____
ROOT
ATOM      1  O   UNL     1       7.774   5.640  14.243  0.00  0.00    +0.000 OA
ATOM      2  C   UNL     1       6.958   4.811  14.596  0.00  0.00    +0.000 C 
ATOM      3  N   UNL     1       6.383   3.887  13.763  0.00  0.00    +0.000 N 
ATOM      4  C   UNL     1       5.346   3.152  14.445  0.00  0.00    +0.000 C 
ATOM      5  C   UNL     1       5.709   3.308  15.944  0.00  0.00    +0.000 C 
ATOM      6  N   UNL     1       6.453   4.587  15.889  0.00  0.00    +0.000 N 
ATOM      7  H   UNL     1       6.466   4.009  12.762  0.00  0.00    +0.000 HD
ENDROOT
BRANCH   5   8
ATOM      8  C   UNL     1       4.506   3.195  16.842  0.00  0.00    +0.000 A 
ATOM      9  C   UNL     1       3.318   3.858  16.493  0.00  0.00    +0.000 A 
ATOM     10  C   UNL     1       2.192   3.778  17.315  0.00  0.00    +0.000 A 
ATOM     11  C   UNL     1       2.246   3.034  18.492  0.00  0.00    +0.000 A 
ATOM     12 BR   UNL     1       0.727   2.937  19.611  0.00  0.00    +0.000 Br
ATOM     13  C   UNL     1       3.412   2.360  18.847  0.00  0.00    +0.000 A 
ATOM     14  C   UNL     1       4.537   2.439  18.025  0.00  0.00    +0.000 A 
ENDBRANCH   5   8
BRANCH   6  15
ATOM     15  S   UNL     1       6.905   5.438  17.247  0.00  0.00    +0.000 S 
ATOM     16  O   UNL     1       7.477   4.555  18.241  0.00  0.00    +0.000 OA
ATOM     17  O   UNL     1       7.640   6.618  16.839  0.00  0.00    +0.000 OA
BRANCH  15  18
ATOM     18  C   UNL     1       5.359   6.005  17.931  0.00  0.00    +0.000 A 
ATOM     19  C   UNL     1       4.978   5.578  19.206  0.00  0.00    +0.000 A 
ATOM     20  C   UNL     1       3.805   6.081  19.776  0.00  0.00    +0.000 A 
ATOM     21  C   UNL     1       3.036   7.014  19.077  0.00  0.00    +0.000 A 
ATOM     22 CL   UNL     1       1.601   7.643  19.791  0.00  0.00    +0.000 Cl
ATOM     23  C   UNL     1       3.426   7.451  17.812  0.00  0.00    +0.000 A 
ATOM     24  C   UNL     1       4.592   6.944  17.230  0.00  0.00    +0.000 A 
ENDBRANCH  15  18
ENDBRANCH   6  15
TORSDOF 3
ENDMDL
MODEL 9
REMARK VINA RESULT:      -6.6      3.628      4.944
REMARK  Name = 
REMARK  3 active torsions:
REMARK  status: ('A' for Active; 'I' for Inactive)
REMARK    1  A    between atoms: C_5  and  C_6
REMARK    2  A    between atoms: N_13  and  S_14
REMARK    3  A    between atoms: S_14  and  C_17
REMARK                            x       y       z     vdW  Elec       q    Type
REMARK                         _______ _______ _______ _____ _____    ______ ____
ROOT
ATOM      1  O   UNL     1       7.939   5.588  14.902  0.00  0.00    +0.000 OA
ATOM      2  C   UNL     1       6.902   4.994  15.124  0.00  0.00    +0.000 C 
ATOM      3  N   UNL     1       6.003   4.618  14.161  0.00  0.00    +0.000 N 
ATOM      4  C   UNL     1       4.808   4.072  14.755  0.00  0.00    +0.000 C 
ATOM      5  C   UNL     1       5.270   3.616  16.163  0.00  0.00    +0.000 C 
ATOM      6  N   UNL     1       6.411   4.540  16.361  0.00  0.00    +0.000 N 
ATOM      7  H   UNL     1       6.077   5.022  13.236  0.00  0.00    +0.000 HD
ENDROOT
BRANCH   5   8
ATOM      8  C   UNL     1       4.147   3.608  17.164  0.00  0.00    +0.000 A 
ATOM      9  C   UNL     1       3.467   4.804  17.449  0.00  0.00    +0.000 A 
ATOM     10  C   UNL     1       2.428   4.825  18.382  0.00  0.00    +0.000 A 
ATOM     11  C   UNL     1       2.062   3.651  19.036  0.00  0.00    +0.000 A 
ATOM     12 BR   UNL     1       0.666   3.683  20.309  0.00  0.00    +0.000 Br
ATOM     13  C   UNL     1       2.717   2.455  18.757  0.00  0.00    +0.000 A 
ATOM     14  C   UNL     1       3.754   2.433  17.823  0.00  0.00    +0.000 A 
ENDBRANCH   5   8
BRANCH   6  15
ATOM     15  S   UNL     1       7.193   4.720  17.819  0.00  0.00    +0.000 S 
ATOM     16  O   UNL     1       6.323   4.361  18.920  0.00  0.00    +0.000 OA
ATOM     17  O   UNL     1       8.506   4.113  17.727  0.00  0.00    +0.000 OA
BRANCH  15  18
ATOM     18  C   UNL     1       7.448   6.480  17.954  0.00  0.00    +0.000 A 
ATOM     19  C   UNL     1       8.473   6.962  18.772  0.00  0.00    +0.000 A 
ATOM     20  C   UNL     1       8.724   8.336  18.820  0.00  0.00    +0.000 A 
ATOM     21  C   UNL     1       7.964   9.210  18.040  0.00  0.00    +0.000 A 
ATOM     22 CL   UNL     1       8.288  10.900  18.090  0.00  0.00    +0.000 Cl
ATOM     23  C   UNL     1       6.952   8.726  17.212  0.00  0.00    +0.000 A 
ATOM     24  C   UNL     1       6.687   7.354  17.168  0.00  0.00    +0.000 A 
ENDBRANCH  15  18
ENDBRANCH   6  15
TORSDOF 3
ENDMDL
