MODEL 1
REMARK VINA RESULT:      -6.8      0.000      0.000
REMARK  Name = 
REMARK  8 active torsions:
REMARK  status: ('A' for Active; 'I' for Inactive)
REMARK    1  A    between atoms: C_1  and  C_2
REMARK    2  A    between atoms: C_2  and  N_3
REMARK    3  A    between atoms: C_4  and  S_5
REMARK    4  A    between atoms: S_5  and  C_6
REMARK    5  A    between atoms: C_6  and  C_7
REMARK    6  A    between atoms: C_6  and  C_8
REMARK    7  A    between atoms: C_8  and  O_10
REMARK    8  A    between atoms: C_13  and  C_14
REMARK                            x       y       z     vdW  Elec       q    Type
REMARK                         _______ _______ _______ _____ _____    ______ ____
ROOT
ATOM      1  N   UNL     1       4.132   5.061  18.056  0.00  0.00    +0.000 N 
ATOM      2  C   UNL     1       4.893   4.891  16.919  0.00  0.00    +0.000 A 
ATOM      3  N   UNL     1       4.954   3.620  16.619  0.00  0.00    +0.000 NA
ATOM      4  N   UNL     1       4.172   2.943  17.513  0.00  0.00    +0.000 NA
ATOM      5  C   UNL     1       3.643   3.800  18.373  0.00  0.00    +0.000 A 
ENDROOT
BRANCH   5   6
ATOM      6  C   UNL     1       2.788   3.397  19.497  0.00  0.00    +0.000 A 
ATOM      7  C   UNL     1       1.392   3.466  19.508  0.00  0.00    +0.000 A 
ATOM      8  C   UNL     1       0.674   3.100  20.651  0.00  0.00    +0.000 A 
ATOM      9  C   UNL     1       1.373   2.628  21.747  0.00  0.00    +0.000 A 
ATOM     10  N   UNL     1       2.712   2.489  21.764  0.00  0.00    +0.000 NA
ATOM     11  C   UNL     1       3.381   2.865  20.644  0.00  0.00    +0.000 A 
ENDBRANCH   5   6
BRANCH   1  13
ATOM     12  C   UNL     1       2.715   7.052  18.460  0.00  0.00    +0.000 C 
ATOM     13  C   UNL     1       3.977   6.286  18.817  0.00  0.00    +0.000 C 
ENDBRANCH   1  13
BRANCH   2  14
ATOM     14  S   UNL     1       5.630   6.183  16.028  0.00  0.00    +0.000 S 
BRANCH  14  15
ATOM     15  C   UNL     1       7.286   6.362  16.824  0.00  0.00    +0.000 C 
ATOM     16  C   UNL     1       7.418   7.666  17.606  0.00  0.00    +0.000 C 
BRANCH  15  17
ATOM     17  C   UNL     1       7.532   5.189  17.786  0.00  0.00    +0.000 C 
ATOM     18  O   UNL     1       7.352   5.237  18.994  0.00  0.00    +0.000 OA
BRANCH  17  19
ATOM     19  O   UNL     1       8.042   4.073  17.203  0.00  0.00    +0.000 OA
ATOM     20  H   UNL     1       8.912   4.245  16.792  0.00  0.00    +0.000 HD
ENDBRANCH  17  19
ENDBRANCH  15  17
ENDBRANCH  14  15
ENDBRANCH   2  14
TORSDOF 6
ENDMDL
MODEL 2
REMARK VINA RESULT:      -6.7      3.124      6.003
REMARK  Name = 
REMARK  8 active torsions:
REMARK  status: ('A' for Active; 'I' for Inactive)
REMARK    1  A    between atoms: C_1  and  C_2
REMARK    2  A    between atoms: C_2  and  N_3
REMARK    3  A    between atoms: C_4  and  S_5
REMARK    4  A    between atoms: S_5  and  C_6
REMARK    5  A    between atoms: C_6  and  C_7
REMARK    6  A    between atoms: C_6  and  C_8
REMARK    7  A    between atoms: C_8  and  O_10
REMARK    8  A    between atoms: C_13  and  C_14
REMARK                            x       y       z     vdW  Elec       q    Type
REMARK                         _______ _______ _______ _____ _____    ______ ____
ROOT
ATOM      1  N   UNL     1       3.888   5.048  18.338  0.00  0.00    +0.000 N 
ATOM      2  C   UNL     1       3.706   4.572  19.619  0.00  0.00    +0.000 A 
ATOM      3  N   UNL     1       4.633   3.693  19.897  0.00  0.00    +0.000 NA
ATOM      4  N   UNL     1       5.483   3.634  18.827  0.00  0.00    +0.000 NA
ATOM      5  C   UNL     1       5.065   4.466  17.886  0.00  0.00    +0.000 A 
ENDROOT
BRANCH   5   6
ATOM      6  C   UNL     1       5.726   4.612  16.583  0.00  0.00    +0.000 A 
ATOM      7  C   UNL     1       5.288   4.028  15.390  0.00  0.00    +0.000 A 
ATOM      8  C   UNL     1       6.020   4.191  14.210  0.00  0.00    +0.000 A 
ATOM      9  C   UNL     1       7.157   4.977  14.242  0.00  0.00    +0.000 A 
ATOM     10  N   UNL     1       7.588   5.606  15.351  0.00  0.00    +0.000 NA
ATOM     11  C   UNL     1       6.862   5.417  16.484  0.00  0.00    +0.000 A 
ENDBRANCH   5   6
BRANCH   1  13
ATOM     12  C   UNL     1       3.225   7.371  17.797  0.00  0.00    +0.000 C 
ATOM     13  C   UNL     1       2.973   5.888  17.590  0.00  0.00    +0.000 C 
ENDBRANCH   1  13
BRANCH   2  14
ATOM     14  S   UNL     1       2.442   5.090  20.688  0.00  0.00    +0.000 S 
BRANCH  14  15
ATOM     15  C   UNL     1       1.274   3.661  20.695  0.00  0.00    +0.000 C 
ATOM     16  C   UNL     1       1.271   2.906  19.369  0.00  0.00    +0.000 C 
BRANCH  15  17
ATOM     17  C   UNL     1       1.657   2.681  21.815  0.00  0.00    +0.000 C 
ATOM     18  O   UNL     1       0.875   2.243  22.647  0.00  0.00    +0.000 OA
BRANCH  17  19
ATOM     19  O   UNL     1       2.976   2.366  21.870  0.00  0.00    +0.000 OA
ATOM     20  H   UNL     1       3.445   2.886  22.552  0.00  0.00    +0.000 HD
ENDBRANCH  17  19
ENDBRANCH  15  17
ENDBRANCH  14  15
ENDBRANCH   2  14
TORSDOF 6
ENDMDL
MODEL 3
REMARK VINA RESULT:      -6.4      3.032      5.826
REMARK  Name = 
REMARK  8 active torsions:
REMARK  status: ('A' for Active; 'I' for Inactive)
REMARK    1  A    between atoms: C_1  and  C_2
REMARK    2  A    between atoms: C_2  and  N_3
REMARK    3  A    between atoms: C_4  and  S_5
REMARK    4  A    between atoms: S_5  and  C_6
REMARK    5  A    between atoms: C_6  and  C_7
REMARK    6  A    between atoms: C_6  and  C_8
REMARK    7  A    between atoms: C_8  and  O_10
REMARK    8  A    between atoms: C_13  and  C_14
REMARK                            x       y       z     vdW  Elec       q    Type
REMARK                         _______ _______ _______ _____ _____    ______ ____
ROOT
ATOM      1  N   UNL     1       3.914   4.883  18.224  0.00  0.00    +0.000 N 
ATOM      2  C   UNL     1       3.293   3.783  17.674  0.00  0.00    +0.000 A 
ATOM      3  N   UNL     1       4.059   3.262  16.752  0.00  0.00    +0.000 NA
ATOM      4  N   UNL     1       5.229   3.970  16.734  0.00  0.00    +0.000 NA
ATOM      5  C   UNL     1       5.171   4.937  17.637  0.00  0.00    +0.000 A 
ENDROOT
BRANCH   5   6
ATOM      6  C   UNL     1       6.247   5.916  17.844  0.00  0.00    +0.000 A 
ATOM      7  C   UNL     1       7.302   5.769  18.748  0.00  0.00    +0.000 A 
ATOM      8  C   UNL     1       8.250   6.785  18.902  0.00  0.00    +0.000 A 
ATOM      9  C   UNL     1       8.143   7.913  18.109  0.00  0.00    +0.000 A 
ATOM     10  N   UNL     1       7.179   8.077  17.185  0.00  0.00    +0.000 NA
ATOM     11  C   UNL     1       6.266   7.077  17.068  0.00  0.00    +0.000 A 
ENDBRANCH   5   6
BRANCH   1  13
ATOM     12  C   UNL     1       2.636   6.995  18.425  0.00  0.00    +0.000 C 
ATOM     13  C   UNL     1       3.324   5.843  19.137  0.00  0.00    +0.000 C 
ENDBRANCH   1  13
BRANCH   2  14
ATOM     14  S   UNL     1       1.739   3.186  18.162  0.00  0.00    +0.000 S 
BRANCH  14  15
ATOM     15  C   UNL     1       2.099   2.288  19.733  0.00  0.00    +0.000 C 
ATOM     16  C   UNL     1       3.596   2.151  19.995  0.00  0.00    +0.000 C 
BRANCH  15  17
ATOM     17  C   UNL     1       1.461   3.032  20.917  0.00  0.00    +0.000 C 
ATOM     18  O   UNL     1       1.699   2.792  22.092  0.00  0.00    +0.000 OA
BRANCH  17  19
ATOM     19  O   UNL     1       0.535   3.962  20.572  0.00  0.00    +0.000 OA
ATOM     20  H   UNL     1       0.408   4.006  19.603  0.00  0.00    +0.000 HD
ENDBRANCH  17  19
ENDBRANCH  15  17
ENDBRANCH  14  15
ENDBRANCH   2  14
TORSDOF 6
ENDMDL
MODEL 4
REMARK VINA RESULT:      -6.3      0.683      1.106
REMARK  Name = 
REMARK  8 active torsions:
REMARK  status: ('A' for Active; 'I' for Inactive)
REMARK    1  A    between atoms: C_1  and  C_2
REMARK    2  A    between atoms: C_2  and  N_3
REMARK    3  A    between atoms: C_4  and  S_5
REMARK    4  A    between atoms: S_5  and  C_6
REMARK    5  A    between atoms: C_6  and  C_7
REMARK    6  A    between atoms: C_6  and  C_8
REMARK    7  A    between atoms: C_8  and  O_10
REMARK    8  A    between atoms: C_13  and  C_14
REMARK                            x       y       z     vdW  Elec       q    Type
REMARK                         _______ _______ _______ _____ _____    ______ ____
ROOT
ATOM      1  N   UNL     1       4.169   5.057  17.973  0.00  0.00    +0.000 N 
ATOM      2  C   UNL     1       4.911   4.862  16.828  0.00  0.00    +0.000 A 
ATOM      3  N   UNL     1       4.947   3.587  16.540  0.00  0.00    +0.000 NA
ATOM      4  N   UNL     1       4.166   2.932  17.452  0.00  0.00    +0.000 NA
ATOM      5  C   UNL     1       3.664   3.807  18.310  0.00  0.00    +0.000 A 
ENDROOT
BRANCH   5   6
ATOM      6  C   UNL     1       2.818   3.429  19.449  0.00  0.00    +0.000 A 
ATOM      7  C   UNL     1       3.286   2.906  20.658  0.00  0.00    +0.000 A 
ATOM      8  C   UNL     1       2.388   2.533  21.663  0.00  0.00    +0.000 A 
ATOM      9  C   UNL     1       1.037   2.736  21.450  0.00  0.00    +0.000 A 
ATOM     10  N   UNL     1       0.542   3.289  20.328  0.00  0.00    +0.000 NA
ATOM     11  C   UNL     1       1.438   3.628  19.365  0.00  0.00    +0.000 A 
ENDBRANCH   5   6
BRANCH   1  13
ATOM     12  C   UNL     1       2.803   7.085  18.360  0.00  0.00    +0.000 C 
ATOM     13  C   UNL     1       4.045   6.291  18.724  0.00  0.00    +0.000 C 
ENDBRANCH   1  13
BRANCH   2  14
ATOM     14  S   UNL     1       5.658   6.133  15.914  0.00  0.00    +0.000 S 
BRANCH  14  15
ATOM     15  C   UNL     1       7.285   6.365  16.753  0.00  0.00    +0.000 C 
ATOM     16  C   UNL     1       7.342   7.657  17.564  0.00  0.00    +0.000 C 
BRANCH  15  17
ATOM     17  C   UNL     1       7.558   5.184  17.697  0.00  0.00    +0.000 C 
ATOM     18  O   UNL     1       7.424   5.225  18.911  0.00  0.00    +0.000 OA
BRANCH  17  19
ATOM     19  O   UNL     1       8.038   4.069  17.088  0.00  0.00    +0.000 OA
ATOM     20  H   UNL     1       7.591   3.261  17.409  0.00  0.00    +0.000 HD
ENDBRANCH  17  19
ENDBRANCH  15  17
ENDBRANCH  14  15
ENDBRANCH   2  14
TORSDOF 6
ENDMDL
MODEL 5
REMARK VINA RESULT:      -6.2      3.213      6.081
REMARK  Name = 
REMARK  8 active torsions:
REMARK  status: ('A' for Active; 'I' for Inactive)
REMARK    1  A    between atoms: C_1  and  C_2
REMARK    2  A    between atoms: C_2  and  N_3
REMARK    3  A    between atoms: C_4  and  S_5
REMARK    4  A    between atoms: S_5  and  C_6
REMARK    5  A    between atoms: C_6  and  C_7
REMARK    6  A    between atoms: C_6  and  C_8
REMARK    7  A    between atoms: C_8  and  O_10
REMARK    8  A    between atoms: C_13  and  C_14
REMARK                            x       y       z     vdW  Elec       q    Type
REMARK                         _______ _______ _______ _____ _____    ______ ____
ROOT
ATOM      1  N   UNL     1       4.038   5.068  18.717  0.00  0.00    +0.000 N 
ATOM      2  C   UNL     1       3.061   5.816  19.338  0.00  0.00    +0.000 A 
ATOM      3  N   UNL     1       2.816   6.889  18.634  0.00  0.00    +0.000 NA
ATOM      4  N   UNL     1       3.577   6.826  17.499  0.00  0.00    +0.000 NA
ATOM      5  C   UNL     1       4.302   5.718  17.518  0.00  0.00    +0.000 A 
ENDROOT
BRANCH   5   6
ATOM      6  C   UNL     1       5.267   5.365  16.468  0.00  0.00    +0.000 A 
ATOM      7  C   UNL     1       5.015   4.491  15.407  0.00  0.00    +0.000 A 
ATOM      8  C   UNL     1       6.022   4.185  14.486  0.00  0.00    +0.000 A 
ATOM      9  C   UNL     1       7.252   4.801  14.626  0.00  0.00    +0.000 A 
ATOM     10  N   UNL     1       7.526   5.692  15.596  0.00  0.00    +0.000 NA
ATOM     11  C   UNL     1       6.531   5.958  16.482  0.00  0.00    +0.000 A 
ENDBRANCH   5   6
BRANCH   1  13
ATOM     12  C   UNL     1       4.310   2.609  18.600  0.00  0.00    +0.000 C 
ATOM     13  C   UNL     1       4.722   3.912  19.264  0.00  0.00    +0.000 C 
ENDBRANCH   1  13
BRANCH   2  14
ATOM     14  S   UNL     1       2.277   5.369  20.819  0.00  0.00    +0.000 S 
BRANCH  14  15
ATOM     15  C   UNL     1       1.050   4.097  20.288  0.00  0.00    +0.000 C 
ATOM     16  C   UNL     1       1.024   3.911  18.773  0.00  0.00    +0.000 C 
BRANCH  15  17
ATOM     17  C   UNL     1       1.384   2.746  20.940  0.00  0.00    +0.000 C 
ATOM     18  O   UNL     1       1.594   2.589  22.134  0.00  0.00    +0.000 OA
BRANCH  17  19
ATOM     19  O   UNL     1       1.501   1.709  20.072  0.00  0.00    +0.000 OA
ATOM     20  H   UNL     1       1.780   0.888  20.524  0.00  0.00    +0.000 HD
ENDBRANCH  17  19
ENDBRANCH  15  17
ENDBRANCH  14  15
ENDBRANCH   2  14
TORSDOF 6
ENDMDL
MODEL 6
REMARK VINA RESULT:      -6.2      3.029      5.722
REMARK  Name = 
REMARK  8 active torsions:
REMARK  status: ('A' for Active; 'I' for Inactive)
REMARK    1  A    between atoms: C_1  and  C_2
REMARK    2  A    between atoms: C_2  and  N_3
REMARK    3  A    between atoms: C_4  and  S_5
REMARK    4  A    between atoms: S_5  and  C_6
REMARK    5  A    between atoms: C_6  and  C_7
REMARK    6  A    between atoms: C_6  and  C_8
REMARK    7  A    between atoms: C_8  and  O_10
REMARK    8  A    between atoms: C_13  and  C_14
REMARK                            x       y       z     vdW  Elec       q    Type
REMARK                         _______ _______ _______ _____ _____    ______ ____
ROOT
ATOM      1  N   UNL     1       3.888   4.964  18.246  0.00  0.00    +0.000 N 
ATOM      2  C   UNL     1       3.264   3.876  17.676  0.00  0.00    +0.000 A 
ATOM      3  N   UNL     1       4.028   3.371  16.743  0.00  0.00    +0.000 NA
ATOM      4  N   UNL     1       5.199   4.076  16.737  0.00  0.00    +0.000 NA
ATOM      5  C   UNL     1       5.145   5.027  17.658  0.00  0.00    +0.000 A 
ENDROOT
BRANCH   5   6
ATOM      6  C   UNL     1       6.223   5.998  17.883  0.00  0.00    +0.000 A 
ATOM      7  C   UNL     1       6.369   7.208  17.197  0.00  0.00    +0.000 A 
ATOM      8  C   UNL     1       7.462   8.041  17.455  0.00  0.00    +0.000 A 
ATOM      9  C   UNL     1       8.365   7.662  18.431  0.00  0.00    +0.000 A 
ATOM     10  N   UNL     1       8.237   6.536  19.158  0.00  0.00    +0.000 NA
ATOM     11  C   UNL     1       7.172   5.742  18.874  0.00  0.00    +0.000 A 
ENDBRANCH   5   6
BRANCH   1  13
ATOM     12  C   UNL     1       2.652   7.096  18.491  0.00  0.00    +0.000 C 
ATOM     13  C   UNL     1       3.302   5.908  19.179  0.00  0.00    +0.000 C 
ENDBRANCH   1  13
BRANCH   2  14
ATOM     14  S   UNL     1       1.709   3.274  18.155  0.00  0.00    +0.000 S 
BRANCH  14  15
ATOM     15  C   UNL     1       2.070   2.339  19.705  0.00  0.00    +0.000 C 
ATOM     16  C   UNL     1       3.568   2.204  19.967  0.00  0.00    +0.000 C 
BRANCH  15  17
ATOM     17  C   UNL     1       1.426   3.051  20.905  0.00  0.00    +0.000 C 
ATOM     18  O   UNL     1       1.677   2.797  22.074  0.00  0.00    +0.000 OA
BRANCH  17  19
ATOM     19  O   UNL     1       0.480   3.969  20.581  0.00  0.00    +0.000 OA
ATOM     20  H   UNL     1      -0.068   3.674  19.827  0.00  0.00    +0.000 HD
ENDBRANCH  17  19
ENDBRANCH  15  17
ENDBRANCH  14  15
ENDBRANCH   2  14
TORSDOF 6
ENDMDL
MODEL 7
REMARK VINA RESULT:      -6.2      1.576      1.841
REMARK  Name = 
REMARK  8 active torsions:
REMARK  status: ('A' for Active; 'I' for Inactive)
REMARK    1  A    between atoms: C_1  and  C_2
REMARK    2  A    between atoms: C_2  and  N_3
REMARK    3  A    between atoms: C_4  and  S_5
REMARK    4  A    between atoms: S_5  and  C_6
REMARK    5  A    between atoms: C_6  and  C_7
REMARK    6  A    between atoms: C_6  and  C_8
REMARK    7  A    between atoms: C_8  and  O_10
REMARK    8  A    between atoms: C_13  and  C_14
REMARK                            x       y       z     vdW  Elec       q    Type
REMARK                         _______ _______ _______ _____ _____    ______ ____
ROOT
ATOM      1  N   UNL     1       3.926   4.964  18.055  0.00  0.00    +0.000 N 
ATOM      2  C   UNL     1       4.540   4.813  16.831  0.00  0.00    +0.000 A 
ATOM      3  N   UNL     1       4.500   3.556  16.473  0.00  0.00    +0.000 NA
ATOM      4  N   UNL     1       3.791   2.875  17.424  0.00  0.00    +0.000 NA
ATOM      5  C   UNL     1       3.412   3.714  18.375  0.00  0.00    +0.000 A 
ENDROOT
BRANCH   5   6
ATOM      6  C   UNL     1       2.673   3.298  19.574  0.00  0.00    +0.000 A 
ATOM      7  C   UNL     1       1.283   3.345  19.716  0.00  0.00    +0.000 A 
ATOM      8  C   UNL     1       0.681   2.968  20.921  0.00  0.00    +0.000 A 
ATOM      9  C   UNL     1       1.487   2.509  21.946  0.00  0.00    +0.000 A 
ATOM     10  N   UNL     1       2.824   2.391  21.838  0.00  0.00    +0.000 NA
ATOM     11  C   UNL     1       3.379   2.777  20.660  0.00  0.00    +0.000 A 
ENDBRANCH   5   6
BRANCH   1  13
ATOM     12  C   UNL     1       2.679   7.007  18.694  0.00  0.00    +0.000 C 
ATOM     13  C   UNL     1       3.925   6.157  18.881  0.00  0.00    +0.000 C 
ENDBRANCH   1  13
BRANCH   2  14
ATOM     14  S   UNL     1       5.236   6.110  15.914  0.00  0.00    +0.000 S 
BRANCH  14  15
ATOM     15  C   UNL     1       7.015   5.637  15.784  0.00  0.00    +0.000 C 
ATOM     16  C   UNL     1       7.450   4.697  16.905  0.00  0.00    +0.000 C 
BRANCH  15  17
ATOM     17  C   UNL     1       7.272   4.943  14.437  0.00  0.00    +0.000 C 
ATOM     18  O   UNL     1       7.955   5.411  13.539  0.00  0.00    +0.000 OA
BRANCH  17  19
ATOM     19  O   UNL     1       6.620   3.764  14.271  0.00  0.00    +0.000 OA
ATOM     20  H   UNL     1       5.760   3.886  13.824  0.00  0.00    +0.000 HD
ENDBRANCH  17  19
ENDBRANCH  15  17
ENDBRANCH  14  15
ENDBRANCH   2  14
TORSDOF 6
ENDMDL
MODEL 8
REMARK VINA RESULT:      -6.2      2.883      6.036
REMARK  Name = 
REMARK  8 active torsions:
REMARK  status: ('A' for Active; 'I' for Inactive)
REMARK    1  A    between atoms: C_1  and  C_2
REMARK    2  A    between atoms: C_2  and  N_3
REMARK    3  A    between atoms: C_4  and  S_5
REMARK    4  A    between atoms: S_5  and  C_6
REMARK    5  A    between atoms: C_6  and  C_7
REMARK    6  A    between atoms: C_6  and  C_8
REMARK    7  A    between atoms: C_8  and  O_10
REMARK    8  A    between atoms: C_13  and  C_14
REMARK                            x       y       z     vdW  Elec       q    Type
REMARK                         _______ _______ _______ _____ _____    ______ ____
ROOT
ATOM      1  N   UNL     1       4.911   4.041  17.782  0.00  0.00    +0.000 N 
ATOM      2  C   UNL     1       4.397   3.033  18.569  0.00  0.00    +0.000 A 
ATOM      3  N   UNL     1       4.927   3.093  19.762  0.00  0.00    +0.000 NA
ATOM      4  N   UNL     1       5.744   4.190  19.799  0.00  0.00    +0.000 NA
ATOM      5  C   UNL     1       5.726   4.792  18.620  0.00  0.00    +0.000 A 
ENDROOT
BRANCH   5   6
ATOM      6  C   UNL     1       6.533   5.977  18.304  0.00  0.00    +0.000 A 
ATOM      7  C   UNL     1       7.762   6.291  18.892  0.00  0.00    +0.000 A 
ATOM      8  C   UNL     1       8.429   7.473  18.553  0.00  0.00    +0.000 A 
ATOM      9  C   UNL     1       7.866   8.296  17.594  0.00  0.00    +0.000 A 
ATOM     10  N   UNL     1       6.715   8.009  16.959  0.00  0.00    +0.000 NA
ATOM     11  C   UNL     1       6.086   6.860  17.320  0.00  0.00    +0.000 A 
ENDBRANCH   5   6
BRANCH   1  13
ATOM     12  C   UNL     1       5.909   3.715  15.539  0.00  0.00    +0.000 C 
ATOM     13  C   UNL     1       4.724   4.204  16.353  0.00  0.00    +0.000 C 
ENDBRANCH   1  13
BRANCH   2  14
ATOM     14  S   UNL     1       3.211   1.883  18.039  0.00  0.00    +0.000 S 
BRANCH  14  15
ATOM     15  C   UNL     1       1.644   2.508  18.787  0.00  0.00    +0.000 C 
ATOM     16  C   UNL     1       1.601   2.308  20.299  0.00  0.00    +0.000 C 
BRANCH  15  17
ATOM     17  C   UNL     1       1.485   4.006  18.487  0.00  0.00    +0.000 C 
ATOM     18  O   UNL     1       1.616   4.894  19.317  0.00  0.00    +0.000 OA
BRANCH  17  19
ATOM     19  O   UNL     1       1.112   4.295  17.214  0.00  0.00    +0.000 OA
ATOM     20  H   UNL     1       1.779   4.845  16.757  0.00  0.00    +0.000 HD
ENDBRANCH  17  19
ENDBRANCH  15  17
ENDBRANCH  14  15
ENDBRANCH   2  14
TORSDOF 6
ENDMDL
MODEL 9
REMARK VINA RESULT:      -6.2      2.422      4.290
REMARK  Name = 
REMARK  8 active torsions:
REMARK  status: ('A' for Active; 'I' for Inactive)
REMARK    1  A    between atoms: C_1  and  C_2
REMARK    2  A    between atoms: C_2  and  N_3
REMARK    3  A    between atoms: C_4  and  S_5
REMARK    4  A    between atoms: S_5  and  C_6
REMARK    5  A    between atoms: C_6  and  C_7
REMARK    6  A    between atoms: C_6  and  C_8
REMARK    7  A    between atoms: C_8  and  O_10
REMARK    8  A    between atoms: C_13  and  C_14
REMARK                            x       y       z     vdW  Elec       q    Type
REMARK                         _______ _______ _______ _____ _____    ______ ____
ROOT
ATOM      1  N   UNL     1       3.146   5.700  17.798  0.00  0.00    +0.000 N 
ATOM      2  C   UNL     1       4.367   5.294  17.306  0.00  0.00    +0.000 A 
ATOM      3  N   UNL     1       5.139   6.335  17.133  0.00  0.00    +0.000 NA
ATOM      4  N   UNL     1       4.460   7.435  17.580  0.00  0.00    +0.000 NA
ATOM      5  C   UNL     1       3.263   7.068  18.012  0.00  0.00    +0.000 A 
ENDROOT
BRANCH   5   6
ATOM      6  C   UNL     1       2.259   8.014  18.515  0.00  0.00    +0.000 A 
ATOM      7  C   UNL     1       1.568   8.943  17.732  0.00  0.00    +0.000 A 
ATOM      8  C   UNL     1       0.665   9.833  18.321  0.00  0.00    +0.000 A 
ATOM      9  C   UNL     1       0.440   9.741  19.682  0.00  0.00    +0.000 A 
ATOM     10  N   UNL     1       1.037   8.827  20.469  0.00  0.00    +0.000 NA
ATOM     11  C   UNL     1       1.919   7.985  19.869  0.00  0.00    +0.000 A 
ENDBRANCH   5   6
BRANCH   1  13
ATOM     12  C   UNL     1       1.826   4.273  19.333  0.00  0.00    +0.000 C 
ATOM     13  C   UNL     1       1.958   4.882  17.947  0.00  0.00    +0.000 C 
ENDBRANCH   1  13
BRANCH   2  14
ATOM     14  S   UNL     1       4.799   3.644  16.990  0.00  0.00    +0.000 S 
BRANCH  14  15
ATOM     15  C   UNL     1       6.039   3.778  15.630  0.00  0.00    +0.000 C 
ATOM     16  C   UNL     1       5.465   4.445  14.383  0.00  0.00    +0.000 C 
BRANCH  15  17
ATOM     17  C   UNL     1       7.250   4.595  16.107  0.00  0.00    +0.000 C 
ATOM     18  O   UNL     1       7.945   4.302  17.069  0.00  0.00    +0.000 OA
BRANCH  17  19
ATOM     19  O   UNL     1       7.474   5.739  15.411  0.00  0.00    +0.000 OA
ATOM     20  H   UNL     1       7.932   5.565  14.565  0.00  0.00    +0.000 HD
ENDBRANCH  17  19
ENDBRANCH  15  17
ENDBRANCH  14  15
ENDBRANCH   2  14
TORSDOF 6
ENDMDL
