MODEL 1
REMARK VINA RESULT:      -7.6      0.000      0.000
REMARK  Name = 
REMARK  5 active torsions:
REMARK  status: ('A' for Active; 'I' for Inactive)
REMARK    1  A    between atoms: C_1  and  O_2
REMARK    2  A    between atoms: O_2  and  C_3
REMARK    3  A    between atoms: C_7  and  S_8
REMARK    4  A    between atoms: S_8  and  N_11
REMARK    5  A    between atoms: C_12  and  C_13
REMARK                            x       y       z     vdW  Elec       q    Type
REMARK                         _______ _______ _______ _____ _____    ______ ____
ROOT
ATOM      1  N   UNL     1       2.897   6.850  18.441  0.00  0.00    +0.000 N 
ATOM      2  C   UNL     1       2.160   6.126  19.365  0.00  0.00    +0.000 A 
ATOM      3  N   UNL     1       1.418   6.976  20.063  0.00  0.00    +0.000 NA
ATOM      4  C   UNL     1       1.580   8.233  19.508  0.00  0.00    +0.000 A 
ATOM      5  C   UNL     1       0.953   9.475  19.843  0.00  0.00    +0.000 A 
ATOM      6  N   UNL     1       0.035   9.658  20.847  0.00  0.00    +0.000 N 
ATOM      7  C   UNL     1      -0.023   8.825  22.044  0.00  0.00    +0.000 C 
ATOM      8  C   UNL     1      -0.019   9.733  23.300  0.00  0.00    +0.000 C 
ATOM      9  N   UNL     1      -1.052  10.789  23.287  0.00  0.00    +0.000 NA
ATOM     10  C   UNL     1      -0.914  11.590  22.053  0.00  0.00    +0.000 C 
ATOM     11  C   UNL     1      -0.945  10.741  20.767  0.00  0.00    +0.000 C 
ATOM     12  N   UNL     1       1.301  10.571  19.101  0.00  0.00    +0.000 NA
ATOM     13  C   UNL     1       2.180  10.476  18.090  0.00  0.00    +0.000 A 
ATOM     14  C   UNL     1       2.788   9.304  17.689  0.00  0.00    +0.000 A 
ATOM     15  C   UNL     1       2.483   8.168  18.445  0.00  0.00    +0.000 A 
ATOM     16  H   UNL     1      -0.909  11.400  24.091  0.00  0.00    +0.000 HD
ENDROOT
BRANCH   2  17
ATOM     17  C   UNL     1       2.184   4.678  19.667  0.00  0.00    +0.000 A 
ATOM     18  C   UNL     1       1.286   3.840  18.979  0.00  0.00    +0.000 A 
ATOM     19  C   UNL     1       1.233   2.465  19.230  0.00  0.00    +0.000 A 
ATOM     20  C   UNL     1       2.075   1.899  20.180  0.00  0.00    +0.000 A 
ATOM     21  C   UNL     1       2.999   2.701  20.841  0.00  0.00    +0.000 A 
ATOM     22  C   UNL     1       3.077   4.070  20.560  0.00  0.00    +0.000 A 
ENDBRANCH   2  17
BRANCH   1  23
ATOM     23  S   UNL     1       3.965   6.179  17.319  0.00  0.00    +0.000 S 
ATOM     24  O   UNL     1       3.812   7.007  16.134  0.00  0.00    +0.000 OA
ATOM     25  O   UNL     1       3.726   4.751  17.308  0.00  0.00    +0.000 OA
BRANCH  23  30
ATOM     26  C   UNL     1       7.699   7.576  17.942  0.00  0.00    +0.000 A 
ATOM     27  C   UNL     1       8.200   6.648  18.859  0.00  0.00    +0.000 A 
ATOM     28  C   UNL     1       7.414   5.584  19.308  0.00  0.00    +0.000 A 
ATOM     29  C   UNL     1       6.111   5.434  18.840  0.00  0.00    +0.000 A 
ATOM     30  C   UNL     1       5.610   6.369  17.931  0.00  0.00    +0.000 A 
ATOM     31  C   UNL     1       6.396   7.434  17.467  0.00  0.00    +0.000 A 
BRANCH  26  33
ATOM     32  C   UNL     1       8.649   9.701  18.445  0.00  0.00    +0.000 C 
ATOM     33  O   UNL     1       8.571   8.567  17.587  0.00  0.00    +0.000 OA
ENDBRANCH  26  33
ENDBRANCH  23  30
ENDBRANCH   1  23
TORSDOF 4
ENDMDL
MODEL 2
REMARK VINA RESULT:      -7.2      7.977     10.820
REMARK  Name = 
REMARK  5 active torsions:
REMARK  status: ('A' for Active; 'I' for Inactive)
REMARK    1  A    between atoms: C_1  and  O_2
REMARK    2  A    between atoms: O_2  and  C_3
REMARK    3  A    between atoms: C_7  and  S_8
REMARK    4  A    between atoms: S_8  and  N_11
REMARK    5  A    between atoms: C_12  and  C_13
REMARK                            x       y       z     vdW  Elec       q    Type
REMARK                         _______ _______ _______ _____ _____    ______ ____
ROOT
ATOM      1  N   UNL     1       6.406  14.609  21.358  0.00  0.00    +0.000 N 
ATOM      2  C   UNL     1       7.301  13.784  22.020  0.00  0.00    +0.000 A 
ATOM      3  N   UNL     1       8.315  13.530  21.204  0.00  0.00    +0.000 NA
ATOM      4  C   UNL     1       8.139  14.291  20.061  0.00  0.00    +0.000 A 
ATOM      5  C   UNL     1       8.978  14.434  18.911  0.00  0.00    +0.000 A 
ATOM      6  N   UNL     1      10.174  13.791  18.714  0.00  0.00    +0.000 N 
ATOM      7  C   UNL     1      10.500  12.499  19.311  0.00  0.00    +0.000 C 
ATOM      8  C   UNL     1      10.988  11.532  18.202  0.00  0.00    +0.000 C 
ATOM      9  N   UNL     1      12.083  12.069  17.368  0.00  0.00    +0.000 NA
ATOM     10  C   UNL     1      11.666  13.366  16.796  0.00  0.00    +0.000 C 
ATOM     11  C   UNL     1      11.202  14.382  17.858  0.00  0.00    +0.000 C 
ATOM     12  N   UNL     1       8.549  15.280  17.925  0.00  0.00    +0.000 NA
ATOM     13  C   UNL     1       7.397  15.960  18.045  0.00  0.00    +0.000 A 
ATOM     14  C   UNL     1       6.563  15.900  19.143  0.00  0.00    +0.000 A 
ATOM     15  C   UNL     1       6.952  15.019  20.157  0.00  0.00    +0.000 A 
ATOM     16  H   UNL     1      12.266  11.419  16.605  0.00  0.00    +0.000 HD
ENDROOT
BRANCH   2  17
ATOM     17  C   UNL     1       7.202  13.165  23.360  0.00  0.00    +0.000 A 
ATOM     18  C   UNL     1       7.654  13.905  24.470  0.00  0.00    +0.000 A 
ATOM     19  C   UNL     1       7.616  13.377  25.764  0.00  0.00    +0.000 A 
ATOM     20  C   UNL     1       7.130  12.092  25.976  0.00  0.00    +0.000 A 
ATOM     21  C   UNL     1       6.640  11.359  24.901  0.00  0.00    +0.000 A 
ATOM     22  C   UNL     1       6.643  11.905  23.611  0.00  0.00    +0.000 A 
ENDBRANCH   2  17
BRANCH   1  23
ATOM     23  S   UNL     1       4.973  15.209  22.021  0.00  0.00    +0.000 S 
ATOM     24  O   UNL     1       5.327  16.532  22.508  0.00  0.00    +0.000 OA
ATOM     25  O   UNL     1       4.442  14.176  22.887  0.00  0.00    +0.000 OA
BRANCH  23  30
ATOM     26  C   UNL     1       2.438  16.804  19.318  0.00  0.00    +0.000 A 
ATOM     27  C   UNL     1       1.903  15.659  18.721  0.00  0.00    +0.000 A 
ATOM     28  C   UNL     1       2.303  14.383  19.124  0.00  0.00    +0.000 A 
ATOM     29  C   UNL     1       3.247  14.237  20.137  0.00  0.00    +0.000 A 
ATOM     30  C   UNL     1       3.788  15.383  20.725  0.00  0.00    +0.000 A 
ATOM     31  C   UNL     1       3.384  16.668  20.333  0.00  0.00    +0.000 A 
BRANCH  26  33
ATOM     32  C   UNL     1       1.233  17.940  17.606  0.00  0.00    +0.000 C 
ATOM     33  O   UNL     1       1.961  17.989  18.830  0.00  0.00    +0.000 OA
ENDBRANCH  26  33
ENDBRANCH  23  30
ENDBRANCH   1  23
TORSDOF 4
ENDMDL
MODEL 3
REMARK VINA RESULT:      -7.1      7.300     10.662
REMARK  Name = 
REMARK  5 active torsions:
REMARK  status: ('A' for Active; 'I' for Inactive)
REMARK    1  A    between atoms: C_1  and  O_2
REMARK    2  A    between atoms: O_2  and  C_3
REMARK    3  A    between atoms: C_7  and  S_8
REMARK    4  A    between atoms: S_8  and  N_11
REMARK    5  A    between atoms: C_12  and  C_13
REMARK                            x       y       z     vdW  Elec       q    Type
REMARK                         _______ _______ _______ _____ _____    ______ ____
ROOT
ATOM      1  N   UNL     1       6.378  14.639  21.497  0.00  0.00    +0.000 N 
ATOM      2  C   UNL     1       7.261  13.778  22.129  0.00  0.00    +0.000 A 
ATOM      3  N   UNL     1       8.254  13.512  21.291  0.00  0.00    +0.000 NA
ATOM      4  C   UNL     1       8.078  14.297  20.164  0.00  0.00    +0.000 A 
ATOM      5  C   UNL     1       8.901  14.438  19.002  0.00  0.00    +0.000 A 
ATOM      6  N   UNL     1      10.076  13.766  18.773  0.00  0.00    +0.000 N 
ATOM      7  C   UNL     1      10.376  12.456  19.342  0.00  0.00    +0.000 C 
ATOM      8  C   UNL     1      10.818  11.495  18.208  0.00  0.00    +0.000 C 
ATOM      9  N   UNL     1      11.913  12.018  17.364  0.00  0.00    +0.000 NA
ATOM     10  C   UNL     1      11.522  13.335  16.822  0.00  0.00    +0.000 C 
ATOM     11  C   UNL     1      11.104  14.345  17.909  0.00  0.00    +0.000 C 
ATOM     12  N   UNL     1       8.478  15.312  18.038  0.00  0.00    +0.000 NA
ATOM     13  C   UNL     1       7.347  16.021  18.191  0.00  0.00    +0.000 A 
ATOM     14  C   UNL     1       6.532  15.964  19.303  0.00  0.00    +0.000 A 
ATOM     15  C   UNL     1       6.913  15.055  20.294  0.00  0.00    +0.000 A 
ATOM     16  H   UNL     1      12.065  11.376  16.587  0.00  0.00    +0.000 HD
ENDROOT
BRANCH   2  17
ATOM     17  C   UNL     1       7.169  13.140  23.460  0.00  0.00    +0.000 A 
ATOM     18  C   UNL     1       7.648  13.853  24.576  0.00  0.00    +0.000 A 
ATOM     19  C   UNL     1       7.618  13.304  25.862  0.00  0.00    +0.000 A 
ATOM     20  C   UNL     1       7.112  12.024  26.059  0.00  0.00    +0.000 A 
ATOM     21  C   UNL     1       6.595  11.317  24.978  0.00  0.00    +0.000 A 
ATOM     22  C   UNL     1       6.592  11.885  23.698  0.00  0.00    +0.000 A 
ENDBRANCH   2  17
BRANCH   1  23
ATOM     23  S   UNL     1       4.974  15.266  22.196  0.00  0.00    +0.000 S 
ATOM     24  O   UNL     1       5.382  16.552  22.736  0.00  0.00    +0.000 OA
ATOM     25  O   UNL     1       4.408  14.218  23.021  0.00  0.00    +0.000 OA
BRANCH  23  30
ATOM     26  C   UNL     1       2.353  14.665  19.188  0.00  0.00    +0.000 A 
ATOM     27  C   UNL     1       1.959  15.973  18.889  0.00  0.00    +0.000 A 
ATOM     28  C   UNL     1       2.479  17.060  19.597  0.00  0.00    +0.000 A 
ATOM     29  C   UNL     1       3.405  16.850  20.614  0.00  0.00    +0.000 A 
ATOM     30  C   UNL     1       3.788  15.541  20.918  0.00  0.00    +0.000 A 
ATOM     31  C   UNL     1       3.280  14.445  20.206  0.00  0.00    +0.000 A 
BRANCH  26  33
ATOM     32  C   UNL     1       2.521  12.507  18.194  0.00  0.00    +0.000 C 
ATOM     33  O   UNL     1       1.768  13.695  18.422  0.00  0.00    +0.000 OA
ENDBRANCH  26  33
ENDBRANCH  23  30
ENDBRANCH   1  23
TORSDOF 4
ENDMDL
MODEL 4
REMARK VINA RESULT:      -7.0      4.686      7.927
REMARK  Name = 
REMARK  5 active torsions:
REMARK  status: ('A' for Active; 'I' for Inactive)
REMARK    1  A    between atoms: C_1  and  O_2
REMARK    2  A    between atoms: O_2  and  C_3
REMARK    3  A    between atoms: C_7  and  S_8
REMARK    4  A    between atoms: S_8  and  N_11
REMARK    5  A    between atoms: C_12  and  C_13
REMARK                            x       y       z     vdW  Elec       q    Type
REMARK                         _______ _______ _______ _____ _____    ______ ____
ROOT
ATOM      1  N   UNL     1      -1.743  12.919  19.922  0.00  0.00    +0.000 N 
ATOM      2  C   UNL     1      -2.859  12.317  19.364  0.00  0.00    +0.000 A 
ATOM      3  N   UNL     1      -3.895  12.544  20.160  0.00  0.00    +0.000 NA
ATOM      4  C   UNL     1      -3.477  13.398  21.166  0.00  0.00    +0.000 A 
ATOM      5  C   UNL     1      -4.219  13.997  22.232  0.00  0.00    +0.000 A 
ATOM      6  N   UNL     1      -5.557  13.810  22.475  0.00  0.00    +0.000 N 
ATOM      7  C   UNL     1      -6.282  12.604  22.089  0.00  0.00    +0.000 C 
ATOM      8  C   UNL     1      -7.046  12.050  23.318  0.00  0.00    +0.000 C 
ATOM      9  N   UNL     1      -7.907  13.043  23.994  0.00  0.00    +0.000 NA
ATOM     10  C   UNL     1      -7.093  14.221  24.360  0.00  0.00    +0.000 C 
ATOM     11  C   UNL     1      -6.336  14.836  23.167  0.00  0.00    +0.000 C 
ATOM     12  N   UNL     1      -3.535  14.824  23.082  0.00  0.00    +0.000 NA
ATOM     13  C   UNL     1      -2.228  15.073  22.907  0.00  0.00    +0.000 A 
ATOM     14  C   UNL     1      -1.464  14.562  21.877  0.00  0.00    +0.000 A 
ATOM     15  C   UNL     1      -2.120  13.685  21.008  0.00  0.00    +0.000 A 
ATOM     16  H   UNL     1      -8.283  12.628  24.846  0.00  0.00    +0.000 HD
ENDROOT
BRANCH   2  17
ATOM     17  C   UNL     1      -2.972  11.474  18.154  0.00  0.00    +0.000 A 
ATOM     18  C   UNL     1      -2.284  10.245  18.131  0.00  0.00    +0.000 A 
ATOM     19  C   UNL     1      -2.322   9.408  17.013  0.00  0.00    +0.000 A 
ATOM     20  C   UNL     1      -3.047   9.784  15.887  0.00  0.00    +0.000 A 
ATOM     21  C   UNL     1      -3.768  10.973  15.902  0.00  0.00    +0.000 A 
ATOM     22  C   UNL     1      -3.758  11.792  17.038  0.00  0.00    +0.000 A 
ENDBRANCH   2  17
BRANCH   1  23
ATOM     23  S   UNL     1      -0.198  12.911  19.239  0.00  0.00    +0.000 S 
ATOM     24  O   UNL     1       0.570  13.822  20.071  0.00  0.00    +0.000 OA
ATOM     25  O   UNL     1      -0.364  13.109  17.814  0.00  0.00    +0.000 OA
BRANCH  23  30
ATOM     26  C   UNL     1       1.751   9.461  18.482  0.00  0.00    +0.000 A 
ATOM     27  C   UNL     1       1.506   8.734  19.651  0.00  0.00    +0.000 A 
ATOM     28  C   UNL     1       0.749   9.278  20.691  0.00  0.00    +0.000 A 
ATOM     29  C   UNL     1       0.223  10.561  20.572  0.00  0.00    +0.000 A 
ATOM     30  C   UNL     1       0.478  11.289  19.407  0.00  0.00    +0.000 A 
ATOM     31  C   UNL     1       1.228  10.746  18.353  0.00  0.00    +0.000 A 
BRANCH  26  33
ATOM     32  C   UNL     1       2.992   7.517  17.886  0.00  0.00    +0.000 C 
ATOM     33  O   UNL     1       2.506   8.812  17.545  0.00  0.00    +0.000 OA
ENDBRANCH  26  33
ENDBRANCH  23  30
ENDBRANCH   1  23
TORSDOF 4
ENDMDL
MODEL 5
REMARK VINA RESULT:      -6.9      5.166      8.086
REMARK  Name = 
REMARK  5 active torsions:
REMARK  status: ('A' for Active; 'I' for Inactive)
REMARK    1  A    between atoms: C_1  and  O_2
REMARK    2  A    between atoms: O_2  and  C_3
REMARK    3  A    between atoms: C_7  and  S_8
REMARK    4  A    between atoms: S_8  and  N_11
REMARK    5  A    between atoms: C_12  and  C_13
REMARK                            x       y       z     vdW  Elec       q    Type
REMARK                         _______ _______ _______ _____ _____    ______ ____
ROOT
ATOM      1  N   UNL     1      -1.851  12.727  19.636  0.00  0.00    +0.000 N 
ATOM      2  C   UNL     1      -2.997  12.162  19.098  0.00  0.00    +0.000 A 
ATOM      3  N   UNL     1      -4.008  12.412  19.920  0.00  0.00    +0.000 NA
ATOM      4  C   UNL     1      -3.542  13.245  20.923  0.00  0.00    +0.000 A 
ATOM      5  C   UNL     1      -4.242  13.856  22.011  0.00  0.00    +0.000 A 
ATOM      6  N   UNL     1      -5.579  13.706  22.282  0.00  0.00    +0.000 N 
ATOM      7  C   UNL     1      -6.348  12.525  21.903  0.00  0.00    +0.000 C 
ATOM      8  C   UNL     1      -7.100  11.983  23.145  0.00  0.00    +0.000 C 
ATOM      9  N   UNL     1      -7.915  12.995  23.849  0.00  0.00    +0.000 NA
ATOM     10  C   UNL     1      -7.059  14.146  24.206  0.00  0.00    +0.000 C 
ATOM     11  C   UNL     1      -6.311  14.748  23.001  0.00  0.00    +0.000 C 
ATOM     12  N   UNL     1      -3.515  14.655  22.852  0.00  0.00    +0.000 NA
ATOM     13  C   UNL     1      -2.205  14.867  22.648  0.00  0.00    +0.000 A 
ATOM     14  C   UNL     1      -1.480  14.343  21.597  0.00  0.00    +0.000 A 
ATOM     15  C   UNL     1      -2.181  13.493  20.736  0.00  0.00    +0.000 A 
ATOM     16  H   UNL     1      -8.284  12.583  24.706  0.00  0.00    +0.000 HD
ENDROOT
BRANCH   2  17
ATOM     17  C   UNL     1      -3.162  11.334  17.884  0.00  0.00    +0.000 A 
ATOM     18  C   UNL     1      -2.502  10.091  17.831  0.00  0.00    +0.000 A 
ATOM     19  C   UNL     1      -2.590   9.265  16.706  0.00  0.00    +0.000 A 
ATOM     20  C   UNL     1      -3.338   9.668  15.605  0.00  0.00    +0.000 A 
ATOM     21  C   UNL     1      -4.031  10.872  15.651  0.00  0.00    +0.000 A 
ATOM     22  C   UNL     1      -3.972  11.679  16.794  0.00  0.00    +0.000 A 
ENDBRANCH   2  17
BRANCH   1  23
ATOM     23  S   UNL     1      -0.323  12.679  18.918  0.00  0.00    +0.000 S 
ATOM     24  O   UNL     1       0.441  13.691  19.627  0.00  0.00    +0.000 OA
ATOM     25  O   UNL     1      -0.528  12.719  17.484  0.00  0.00    +0.000 OA
BRANCH  23  30
ATOM     26  C   UNL     1       0.862   9.301  20.779  0.00  0.00    +0.000 A 
ATOM     27  C   UNL     1       1.554   8.643  19.758  0.00  0.00    +0.000 A 
ATOM     28  C   UNL     1       1.672   9.210  18.487  0.00  0.00    +0.000 A 
ATOM     29  C   UNL     1       1.097  10.449  18.221  0.00  0.00    +0.000 A 
ATOM     30  C   UNL     1       0.396  11.100  19.240  0.00  0.00    +0.000 A 
ATOM     31  C   UNL     1       0.283  10.543  20.522  0.00  0.00    +0.000 A 
BRANCH  26  33
ATOM     32  C   UNL     1       0.248   9.326  23.080  0.00  0.00    +0.000 C 
ATOM     33  O   UNL     1       0.822   8.637  21.973  0.00  0.00    +0.000 OA
ENDBRANCH  26  33
ENDBRANCH  23  30
ENDBRANCH   1  23
TORSDOF 4
ENDMDL
MODEL 6
REMARK VINA RESULT:      -6.9      4.483      7.045
REMARK  Name = 
REMARK  5 active torsions:
REMARK  status: ('A' for Active; 'I' for Inactive)
REMARK    1  A    between atoms: C_1  and  O_2
REMARK    2  A    between atoms: O_2  and  C_3
REMARK    3  A    between atoms: C_7  and  S_8
REMARK    4  A    between atoms: S_8  and  N_11
REMARK    5  A    between atoms: C_12  and  C_13
REMARK                            x       y       z     vdW  Elec       q    Type
REMARK                         _______ _______ _______ _____ _____    ______ ____
ROOT
ATOM      1  N   UNL     1       0.196  11.505  19.940  0.00  0.00    +0.000 N 
ATOM      2  C   UNL     1      -0.659  11.885  18.917  0.00  0.00    +0.000 A 
ATOM      3  N   UNL     1      -0.403  13.149  18.610  0.00  0.00    +0.000 NA
ATOM      4  C   UNL     1       0.699  13.549  19.346  0.00  0.00    +0.000 A 
ATOM      5  C   UNL     1       1.413  14.789  19.335  0.00  0.00    +0.000 A 
ATOM      6  N   UNL     1       1.106  15.877  18.557  0.00  0.00    +0.000 N 
ATOM      7  C   UNL     1      -0.241  16.168  18.078  0.00  0.00    +0.000 C 
ATOM      8  C   UNL     1      -0.609  17.630  18.438  0.00  0.00    +0.000 C 
ATOM      9  N   UNL     1       0.385  18.631  17.995  0.00  0.00    +0.000 NA
ATOM     10  C   UNL     1       1.713  18.268  18.533  0.00  0.00    +0.000 C 
ATOM     11  C   UNL     1       2.146  16.833  18.176  0.00  0.00    +0.000 C 
ATOM     12  N   UNL     1       2.490  14.897  20.172  0.00  0.00    +0.000 NA
ATOM     13  C   UNL     1       2.868  13.874  20.955  0.00  0.00    +0.000 A 
ATOM     14  C   UNL     1       2.250  12.640  20.983  0.00  0.00    +0.000 A 
ATOM     15  C   UNL     1       1.123  12.503  20.166  0.00  0.00    +0.000 A 
ATOM     16  H   UNL     1       0.120  19.543  18.364  0.00  0.00    +0.000 HD
ENDROOT
BRANCH   2  17
ATOM     17  C   UNL     1      -1.754  11.129  18.271  0.00  0.00    +0.000 A 
ATOM     18  C   UNL     1      -3.081  11.451  18.620  0.00  0.00    +0.000 A 
ATOM     19  C   UNL     1      -4.167  10.763  18.071  0.00  0.00    +0.000 A 
ATOM     20  C   UNL     1      -3.950   9.731  17.163  0.00  0.00    +0.000 A 
ATOM     21  C   UNL     1      -2.651   9.424  16.773  0.00  0.00    +0.000 A 
ATOM     22  C   UNL     1      -1.567  10.141  17.296  0.00  0.00    +0.000 A 
ENDBRANCH   2  17
BRANCH   1  23
ATOM     23  S   UNL     1       0.244   9.967  20.637  0.00  0.00    +0.000 S 
ATOM     24  O   UNL     1      -1.119   9.476  20.524  0.00  0.00    +0.000 OA
ATOM     25  O   UNL     1       0.921  10.101  21.910  0.00  0.00    +0.000 OA
BRANCH  23  30
ATOM     26  C   UNL     1       2.622   6.941  19.428  0.00  0.00    +0.000 A 
ATOM     27  C   UNL     1       2.973   7.353  18.139  0.00  0.00    +0.000 A 
ATOM     28  C   UNL     1       2.492   8.554  17.611  0.00  0.00    +0.000 A 
ATOM     29  C   UNL     1       1.652   9.362  18.373  0.00  0.00    +0.000 A 
ATOM     30  C   UNL     1       1.295   8.943  19.657  0.00  0.00    +0.000 A 
ATOM     31  C   UNL     1       1.782   7.744  20.198  0.00  0.00    +0.000 A 
BRANCH  26  33
ATOM     32  C   UNL     1       4.371   5.342  19.187  0.00  0.00    +0.000 C 
ATOM     33  O   UNL     1       3.161   5.747  19.820  0.00  0.00    +0.000 OA
ENDBRANCH  26  33
ENDBRANCH  23  30
ENDBRANCH   1  23
TORSDOF 4
ENDMDL
MODEL 7
REMARK VINA RESULT:      -6.8      8.475     12.523
REMARK  Name = 
REMARK  5 active torsions:
REMARK  status: ('A' for Active; 'I' for Inactive)
REMARK    1  A    between atoms: C_1  and  O_2
REMARK    2  A    between atoms: O_2  and  C_3
REMARK    3  A    between atoms: C_7  and  S_8
REMARK    4  A    between atoms: S_8  and  N_11
REMARK    5  A    between atoms: C_12  and  C_13
REMARK                            x       y       z     vdW  Elec       q    Type
REMARK                         _______ _______ _______ _____ _____    ______ ____
ROOT
ATOM      1  N   UNL     1      -5.161  13.066  21.856  0.00  0.00    +0.000 N 
ATOM      2  C   UNL     1      -3.899  13.523  21.512  0.00  0.00    +0.000 A 
ATOM      3  N   UNL     1      -3.569  12.993  20.342  0.00  0.00    +0.000 NA
ATOM      4  C   UNL     1      -4.666  12.294  19.870  0.00  0.00    +0.000 A 
ATOM      5  C   UNL     1      -4.854  11.601  18.633  0.00  0.00    +0.000 A 
ATOM      6  N   UNL     1      -3.918  11.483  17.636  0.00  0.00    +0.000 N 
ATOM      7  C   UNL     1      -2.479  11.524  17.877  0.00  0.00    +0.000 C 
ATOM      8  C   UNL     1      -1.814  10.288  17.220  0.00  0.00    +0.000 C 
ATOM      9  N   UNL     1      -2.150  10.108  15.792  0.00  0.00    +0.000 NA
ATOM     10  C   UNL     1      -3.619  10.065  15.640  0.00  0.00    +0.000 C 
ATOM     11  C   UNL     1      -4.333  11.288  16.248  0.00  0.00    +0.000 C 
ATOM     12  N   UNL     1      -6.069  11.003  18.428  0.00  0.00    +0.000 NA
ATOM     13  C   UNL     1      -7.046  11.084  19.346  0.00  0.00    +0.000 A 
ATOM     14  C   UNL     1      -6.945  11.770  20.539  0.00  0.00    +0.000 A 
ATOM     15  C   UNL     1      -5.706  12.365  20.799  0.00  0.00    +0.000 A 
ATOM     16  H   UNL     1      -1.761   9.222  15.471  0.00  0.00    +0.000 HD
ENDROOT
BRANCH   2  17
ATOM     17  C   UNL     1      -2.963  14.377  22.276  0.00  0.00    +0.000 A 
ATOM     18  C   UNL     1      -2.251  13.796  23.343  0.00  0.00    +0.000 A 
ATOM     19  C   UNL     1      -1.369  14.547  24.126  0.00  0.00    +0.000 A 
ATOM     20  C   UNL     1      -1.182  15.899  23.861  0.00  0.00    +0.000 A 
ATOM     21  C   UNL     1      -1.842  16.484  22.786  0.00  0.00    +0.000 A 
ATOM     22  C   UNL     1      -2.696  15.721  21.980  0.00  0.00    +0.000 A 
ENDBRANCH   2  17
BRANCH   1  23
ATOM     23  S   UNL     1      -5.996  13.500  23.258  0.00  0.00    +0.000 S 
ATOM     24  O   UNL     1      -5.244  12.878  24.335  0.00  0.00    +0.000 OA
ATOM     25  O   UNL     1      -7.397  13.217  23.021  0.00  0.00    +0.000 OA
BRANCH  23  30
ATOM     26  C   UNL     1      -6.424  17.462  22.627  0.00  0.00    +0.000 A 
ATOM     27  C   UNL     1      -5.726  17.999  23.713  0.00  0.00    +0.000 A 
ATOM     28  C   UNL     1      -5.115  17.170  24.657  0.00  0.00    +0.000 A 
ATOM     29  C   UNL     1      -5.195  15.787  24.524  0.00  0.00    +0.000 A 
ATOM     30  C   UNL     1      -5.903  15.253  23.444  0.00  0.00    +0.000 A 
ATOM     31  C   UNL     1      -6.509  16.078  22.486  0.00  0.00    +0.000 A 
BRANCH  26  33
ATOM     32  C   UNL     1      -6.485  18.406  20.442  0.00  0.00    +0.000 C 
ATOM     33  O   UNL     1      -6.973  18.383  21.780  0.00  0.00    +0.000 OA
ENDBRANCH  26  33
ENDBRANCH  23  30
ENDBRANCH   1  23
TORSDOF 4
ENDMDL
MODEL 8
REMARK VINA RESULT:      -6.8      7.123     10.230
REMARK  Name = 
REMARK  5 active torsions:
REMARK  status: ('A' for Active; 'I' for Inactive)
REMARK    1  A    between atoms: C_1  and  O_2
REMARK    2  A    between atoms: O_2  and  C_3
REMARK    3  A    between atoms: C_7  and  S_8
REMARK    4  A    between atoms: S_8  and  N_11
REMARK    5  A    between atoms: C_12  and  C_13
REMARK                            x       y       z     vdW  Elec       q    Type
REMARK                         _______ _______ _______ _____ _____    ______ ____
ROOT
ATOM      1  N   UNL     1       8.165  14.820  20.833  0.00  0.00    +0.000 N 
ATOM      2  C   UNL     1       8.281  15.703  19.772  0.00  0.00    +0.000 A 
ATOM      3  N   UNL     1       7.073  16.170  19.486  0.00  0.00    +0.000 NA
ATOM      4  C   UNL     1       6.196  15.686  20.441  0.00  0.00    +0.000 A 
ATOM      5  C   UNL     1       4.800  15.944  20.624  0.00  0.00    +0.000 A 
ATOM      6  N   UNL     1       4.029  16.753  19.828  0.00  0.00    +0.000 N 
ATOM      7  C   UNL     1       4.318  17.006  18.420  0.00  0.00    +0.000 C 
ATOM      8  C   UNL     1       3.048  16.725  17.577  0.00  0.00    +0.000 C 
ATOM      9  N   UNL     1       1.840  17.433  18.049  0.00  0.00    +0.000 NA
ATOM     10  C   UNL     1       1.614  17.112  19.474  0.00  0.00    +0.000 C 
ATOM     11  C   UNL     1       2.836  17.404  20.368  0.00  0.00    +0.000 C 
ATOM     12  N   UNL     1       4.184  15.329  21.681  0.00  0.00    +0.000 NA
ATOM     13  C   UNL     1       4.869  14.533  22.518  0.00  0.00    +0.000 A 
ATOM     14  C   UNL     1       6.222  14.277  22.423  0.00  0.00    +0.000 A 
ATOM     15  C   UNL     1       6.879  14.861  21.335  0.00  0.00    +0.000 A 
ATOM     16  H   UNL     1       1.037  17.111  17.510  0.00  0.00    +0.000 HD
ENDROOT
BRANCH   2  17
ATOM     17  C   UNL     1       9.469  16.066  18.969  0.00  0.00    +0.000 A 
ATOM     18  C   UNL     1       9.689  15.383  17.758  0.00  0.00    +0.000 A 
ATOM     19  C   UNL     1      10.804  15.653  16.959  0.00  0.00    +0.000 A 
ATOM     20  C   UNL     1      11.729  16.611  17.358  0.00  0.00    +0.000 A 
ATOM     21  C   UNL     1      11.511  17.327  18.530  0.00  0.00    +0.000 A 
ATOM     22  C   UNL     1      10.374  17.081  19.308  0.00  0.00    +0.000 A 
ENDBRANCH   2  17
BRANCH   1  23
ATOM     23  S   UNL     1       9.455  14.001  21.553  0.00  0.00    +0.000 S 
ATOM     24  O   UNL     1       8.824  13.055  22.457  0.00  0.00    +0.000 OA
ATOM     25  O   UNL     1      10.394  15.006  22.008  0.00  0.00    +0.000 OA
BRANCH  23  30
ATOM     26  C   UNL     1      10.316  11.378  18.611  0.00  0.00    +0.000 A 
ATOM     27  C   UNL     1      11.663  11.659  18.364  0.00  0.00    +0.000 A 
ATOM     28  C   UNL     1      12.333  12.652  19.083  0.00  0.00    +0.000 A 
ATOM     29  C   UNL     1      11.661  13.376  20.064  0.00  0.00    +0.000 A 
ATOM     30  C   UNL     1      10.312  13.099  20.301  0.00  0.00    +0.000 A 
ATOM     31  C   UNL     1       9.634  12.097  19.591  0.00  0.00    +0.000 A 
BRANCH  26  33
ATOM     32  C   UNL     1       8.575   9.783  18.298  0.00  0.00    +0.000 C 
ATOM     33  O   UNL     1       9.781  10.385  17.838  0.00  0.00    +0.000 OA
ENDBRANCH  26  33
ENDBRANCH  23  30
ENDBRANCH   1  23
TORSDOF 4
ENDMDL
MODEL 9
REMARK VINA RESULT:      -6.7      6.136      9.211
REMARK  Name = 
REMARK  5 active torsions:
REMARK  status: ('A' for Active; 'I' for Inactive)
REMARK    1  A    between atoms: C_1  and  O_2
REMARK    2  A    between atoms: O_2  and  C_3
REMARK    3  A    between atoms: C_7  and  S_8
REMARK    4  A    between atoms: S_8  and  N_11
REMARK    5  A    between atoms: C_12  and  C_13
REMARK                            x       y       z     vdW  Elec       q    Type
REMARK                         _______ _______ _______ _____ _____    ______ ____
ROOT
ATOM      1  N   UNL     1      -1.273  13.536  20.440  0.00  0.00    +0.000 N 
ATOM      2  C   UNL     1      -0.238  12.668  20.752  0.00  0.00    +0.000 A 
ATOM      3  N   UNL     1       0.908  13.261  20.447  0.00  0.00    +0.000 NA
ATOM      4  C   UNL     1       0.622  14.558  20.056  0.00  0.00    +0.000 A 
ATOM      5  C   UNL     1       1.503  15.626  19.694  0.00  0.00    +0.000 A 
ATOM      6  N   UNL     1       2.873  15.547  19.649  0.00  0.00    +0.000 N 
ATOM      7  C   UNL     1       3.599  14.305  19.403  0.00  0.00    +0.000 C 
ATOM      8  C   UNL     1       4.614  14.525  18.252  0.00  0.00    +0.000 C 
ATOM      9  N   UNL     1       5.511  15.683  18.449  0.00  0.00    +0.000 NA
ATOM     10  C   UNL     1       4.696  16.895  18.678  0.00  0.00    +0.000 C 
ATOM     11  C   UNL     1       3.690  16.745  19.836  0.00  0.00    +0.000 C 
ATOM     12  N   UNL     1       0.930  16.823  19.361  0.00  0.00    +0.000 NA
ATOM     13  C   UNL     1      -0.402  16.989  19.393  0.00  0.00    +0.000 A 
ATOM     14  C   UNL     1      -1.303  16.016  19.773  0.00  0.00    +0.000 A 
ATOM     15  C   UNL     1      -0.757  14.768  20.087  0.00  0.00    +0.000 A 
ATOM     16  H   UNL     1       6.066  15.817  17.605  0.00  0.00    +0.000 HD
ENDROOT
BRANCH   2  17
ATOM     17  C   UNL     1      -0.291  11.277  21.253  0.00  0.00    +0.000 A 
ATOM     18  C   UNL     1      -0.434  11.074  22.639  0.00  0.00    +0.000 A 
ATOM     19  C   UNL     1      -0.466   9.789  23.190  0.00  0.00    +0.000 A 
ATOM     20  C   UNL     1      -0.347   8.676  22.364  0.00  0.00    +0.000 A 
ATOM     21  C   UNL     1      -0.246   8.852  20.988  0.00  0.00    +0.000 A 
ATOM     22  C   UNL     1      -0.254  10.139  20.437  0.00  0.00    +0.000 A 
ENDBRANCH   2  17
BRANCH   1  23
ATOM     23  S   UNL     1      -2.912  13.211  20.683  0.00  0.00    +0.000 S 
ATOM     24  O   UNL     1      -3.541  14.521  20.710  0.00  0.00    +0.000 OA
ATOM     25  O   UNL     1      -3.000  12.282  21.791  0.00  0.00    +0.000 OA
BRANCH  23  30
ATOM     26  C   UNL     1      -3.108  11.255  17.160  0.00  0.00    +0.000 A 
ATOM     27  C   UNL     1      -4.473  10.964  17.072  0.00  0.00    +0.000 A 
ATOM     28  C   UNL     1      -5.357  11.353  18.081  0.00  0.00    +0.000 A 
ATOM     29  C   UNL     1      -4.885  12.043  19.194  0.00  0.00    +0.000 A 
ATOM     30  C   UNL     1      -3.519  12.323  19.283  0.00  0.00    +0.000 A 
ATOM     31  C   UNL     1      -2.626  11.946  18.270  0.00  0.00    +0.000 A 
BRANCH  26  33
ATOM     32  C   UNL     1      -3.047  10.205  15.023  0.00  0.00    +0.000 C 
ATOM     33  O   UNL     1      -2.354  10.817  16.106  0.00  0.00    +0.000 OA
ENDBRANCH  26  33
ENDBRANCH  23  30
ENDBRANCH   1  23
TORSDOF 4
ENDMDL
