MODEL 1
REMARK VINA RESULT:      -8.4      0.000      0.000
REMARK  Name = 
REMARK  6 active torsions:
REMARK  status: ('A' for Active; 'I' for Inactive)
REMARK    1  A    between atoms: C_1  and  C_2
REMARK    2  A    between atoms: C_2  and  N_3
REMARK    3  A    between atoms: C_13  and  S_14
REMARK    4  A    between atoms: S_14  and  C_15
REMARK    5  A    between atoms: C_15  and  C_16
REMARK    6  A    between atoms: C_19  and  C_20
REMARK                            x       y       z     vdW  Elec       q    Type
REMARK                         _______ _______ _______ _____ _____    ______ ____
ROOT
ATOM      1  N   UNL     1      -2.003  12.104  20.666  0.00  0.00    +0.000 N 
ATOM      2  C   UNL     1      -3.094  12.221  19.810  0.00  0.00    +0.000 A 
ATOM      3  O   UNL     1      -4.084  12.900  20.070  0.00  0.00    +0.000 OA
ATOM      4  C   UNL     1      -3.043  11.494  18.512  0.00  0.00    +0.000 A 
ATOM      5  C   UNL     1      -4.135  11.623  17.639  0.00  0.00    +0.000 A 
ATOM      6  C   UNL     1      -4.128  10.981  16.404  0.00  0.00    +0.000 A 
ATOM      7  C   UNL     1      -3.034  10.201  16.043  0.00  0.00    +0.000 A 
ATOM      8  C   UNL     1      -1.943  10.065  16.908  0.00  0.00    +0.000 A 
ATOM      9  C   UNL     1      -1.933  10.717  18.145  0.00  0.00    +0.000 A 
ATOM     10  N   UNL     1      -0.860  10.661  19.066  0.00  0.00    +0.000 N 
ATOM     11  C   UNL     1       0.390  10.059  19.073  0.00  0.00    +0.000 A 
ATOM     12  N   UNL     1       1.012  10.328  20.201  0.00  0.00    +0.000 NA
ATOM     13  N   UNL     1       0.193  11.131  20.955  0.00  0.00    +0.000 NA
ATOM     14  C   UNL     1      -0.916  11.333  20.278  0.00  0.00    +0.000 A 
ENDROOT
BRANCH   1  16
ATOM     15  C   UNL     1      -2.498  12.075  23.079  0.00  0.00    +0.000 C 
ATOM     16  C   UNL     1      -1.994  12.891  21.896  0.00  0.00    +0.000 C 
ENDBRANCH   1  16
BRANCH  11  17
ATOM     17  S   UNL     1       1.079   9.127  17.786  0.00  0.00    +0.000 S 
BRANCH  17  18
ATOM     18  C   UNL     1       2.575   8.404  18.519  0.00  0.00    +0.000 C 
BRANCH  18  19
ATOM     19  C   UNL     1       2.319   6.956  18.891  0.00  0.00    +0.000 A 
ATOM     20  C   UNL     1       2.267   5.961  17.902  0.00  0.00    +0.000 A 
ATOM     21  C   UNL     1       1.952   4.639  18.232  0.00  0.00    +0.000 A 
ATOM     22  C   UNL     1       1.676   4.278  19.559  0.00  0.00    +0.000 A 
ATOM     23  C   UNL     1       1.744   5.269  20.551  0.00  0.00    +0.000 A 
ATOM     24  C   UNL     1       2.060   6.591  20.221  0.00  0.00    +0.000 A 
BRANCH  22  25
ATOM     25  C   UNL     1       1.294   2.863  19.920  0.00  0.00    +0.000 C 
ATOM     26  F   UNL     1       0.727   2.747  21.154  0.00  0.00    +0.000 F 
ATOM     27  F   UNL     1       0.400   2.320  19.047  0.00  0.00    +0.000 F 
ATOM     28  F   UNL     1       2.365   2.019  19.928  0.00  0.00    +0.000 F 
ENDBRANCH  22  25
ENDBRANCH  18  19
ENDBRANCH  17  18
ENDBRANCH  11  17
TORSDOF 5
ENDMDL
MODEL 2
REMARK VINA RESULT:      -8.4      4.906      8.475
REMARK  Name = 
REMARK  6 active torsions:
REMARK  status: ('A' for Active; 'I' for Inactive)
REMARK    1  A    between atoms: C_1  and  C_2
REMARK    2  A    between atoms: C_2  and  N_3
REMARK    3  A    between atoms: C_13  and  S_14
REMARK    4  A    between atoms: S_14  and  C_15
REMARK    5  A    between atoms: C_15  and  C_16
REMARK    6  A    between atoms: C_19  and  C_20
REMARK                            x       y       z     vdW  Elec       q    Type
REMARK                         _______ _______ _______ _____ _____    ______ ____
ROOT
ATOM      1  N   UNL     1       3.043   4.423  20.154  0.00  0.00    +0.000 N 
ATOM      2  C   UNL     1       3.947   3.902  19.233  0.00  0.00    +0.000 A 
ATOM      3  O   UNL     1       4.418   2.770  19.319  0.00  0.00    +0.000 OA
ATOM      4  C   UNL     1       4.346   4.760  18.085  0.00  0.00    +0.000 A 
ATOM      5  C   UNL     1       5.245   4.232  17.145  0.00  0.00    +0.000 A 
ATOM      6  C   UNL     1       5.634   4.986  16.042  0.00  0.00    +0.000 A 
ATOM      7  C   UNL     1       5.133   6.273  15.881  0.00  0.00    +0.000 A 
ATOM      8  C   UNL     1       4.239   6.810  16.813  0.00  0.00    +0.000 A 
ATOM      9  C   UNL     1       3.831   6.055  17.918  0.00  0.00    +0.000 A 
ATOM     10  N   UNL     1       2.907   6.505  18.892  0.00  0.00    +0.000 N 
ATOM     11  C   UNL     1       2.162   7.662  19.070  0.00  0.00    +0.000 A 
ATOM     12  N   UNL     1       1.441   7.568  20.167  0.00  0.00    +0.000 NA
ATOM     13  N   UNL     1       1.679   6.337  20.725  0.00  0.00    +0.000 NA
ATOM     14  C   UNL     1       2.545   5.704  19.965  0.00  0.00    +0.000 A 
ENDROOT
BRANCH   1  16
ATOM     15  C   UNL     1       1.245   2.893  20.859  0.00  0.00    +0.000 C 
ATOM     16  C   UNL     1       2.565   3.557  21.229  0.00  0.00    +0.000 C 
ENDBRANCH   1  16
BRANCH  11  17
ATOM     17  S   UNL     1       2.128   9.025  18.002  0.00  0.00    +0.000 S 
BRANCH  17  18
ATOM     18  C   UNL     1       1.508  10.381  19.041  0.00  0.00    +0.000 C 
BRANCH  18  19
ATOM     19  C   UNL     1       0.028  10.595  18.780  0.00  0.00    +0.000 A 
ATOM     20  C   UNL     1      -0.638   9.857  17.789  0.00  0.00    +0.000 A 
ATOM     21  C   UNL     1      -1.982  10.107  17.493  0.00  0.00    +0.000 A 
ATOM     22  C   UNL     1      -2.693  11.105  18.175  0.00  0.00    +0.000 A 
ATOM     23  C   UNL     1      -2.031  11.833  19.177  0.00  0.00    +0.000 A 
ATOM     24  C   UNL     1      -0.688  11.582  19.475  0.00  0.00    +0.000 A 
BRANCH  22  25
ATOM     25  C   UNL     1      -4.130  11.413  17.833  0.00  0.00    +0.000 C 
ATOM     26  F   UNL     1      -4.297  11.936  16.586  0.00  0.00    +0.000 F 
ATOM     27  F   UNL     1      -4.931  10.312  17.884  0.00  0.00    +0.000 F 
ATOM     28  F   UNL     1      -4.687  12.317  18.689  0.00  0.00    +0.000 F 
ENDBRANCH  22  25
ENDBRANCH  18  19
ENDBRANCH  17  18
ENDBRANCH  11  17
TORSDOF 5
ENDMDL
MODEL 3
REMARK VINA RESULT:      -8.4      4.845      8.455
REMARK  Name = 
REMARK  6 active torsions:
REMARK  status: ('A' for Active; 'I' for Inactive)
REMARK    1  A    between atoms: C_1  and  C_2
REMARK    2  A    between atoms: C_2  and  N_3
REMARK    3  A    between atoms: C_13  and  S_14
REMARK    4  A    between atoms: S_14  and  C_15
REMARK    5  A    between atoms: C_15  and  C_16
REMARK    6  A    between atoms: C_19  and  C_20
REMARK                            x       y       z     vdW  Elec       q    Type
REMARK                         _______ _______ _______ _____ _____    ______ ____
ROOT
ATOM      1  N   UNL     1       3.054   4.393  20.115  0.00  0.00    +0.000 N 
ATOM      2  C   UNL     1       3.935   3.900  19.157  0.00  0.00    +0.000 A 
ATOM      3  O   UNL     1       4.398   2.762  19.191  0.00  0.00    +0.000 OA
ATOM      4  C   UNL     1       4.319   4.798  18.033  0.00  0.00    +0.000 A 
ATOM      5  C   UNL     1       5.195   4.298  17.057  0.00  0.00    +0.000 A 
ATOM      6  C   UNL     1       5.567   5.090  15.976  0.00  0.00    +0.000 A 
ATOM      7  C   UNL     1       5.074   6.387  15.873  0.00  0.00    +0.000 A 
ATOM      8  C   UNL     1       4.204   6.894  16.842  0.00  0.00    +0.000 A 
ATOM      9  C   UNL     1       3.810   6.102  17.926  0.00  0.00    +0.000 A 
ATOM     10  N   UNL     1       2.910   6.522  18.934  0.00  0.00    +0.000 N 
ATOM     11  C   UNL     1       2.178   7.677  19.170  0.00  0.00    +0.000 A 
ATOM     12  N   UNL     1       1.478   7.547  20.277  0.00  0.00    +0.000 NA
ATOM     13  N   UNL     1       1.717   6.294  20.784  0.00  0.00    +0.000 NA
ATOM     14  C   UNL     1       2.563   5.684  19.983  0.00  0.00    +0.000 A 
ENDROOT
BRANCH   1  16
ATOM     15  C   UNL     1       1.239   2.882  20.815  0.00  0.00    +0.000 C 
ATOM     16  C   UNL     1       2.590   3.491  21.165  0.00  0.00    +0.000 C 
ENDBRANCH   1  16
BRANCH  11  17
ATOM     17  S   UNL     1       2.134   9.079  18.155  0.00  0.00    +0.000 S 
BRANCH  17  18
ATOM     18  C   UNL     1       1.356  10.350  19.195  0.00  0.00    +0.000 C 
BRANCH  18  19
ATOM     19  C   UNL     1      -0.068  10.594  18.732  0.00  0.00    +0.000 A 
ATOM     20  C   UNL     1      -0.877  11.544  19.375  0.00  0.00    +0.000 A 
ATOM     21  C   UNL     1      -2.214  11.716  19.002  0.00  0.00    +0.000 A 
ATOM     22  C   UNL     1      -2.779  10.938  17.981  0.00  0.00    +0.000 A 
ATOM     23  C   UNL     1      -1.967   9.998  17.327  0.00  0.00    +0.000 A 
ATOM     24  C   UNL     1      -0.629   9.828  17.698  0.00  0.00    +0.000 A 
BRANCH  22  25
ATOM     25  C   UNL     1      -4.232  11.085  17.600  0.00  0.00    +0.000 C 
ATOM     26  F   UNL     1      -4.804  12.236  18.053  0.00  0.00    +0.000 F 
ATOM     27  F   UNL     1      -4.426  11.079  16.252  0.00  0.00    +0.000 F 
ATOM     28  F   UNL     1      -5.004  10.073  18.090  0.00  0.00    +0.000 F 
ENDBRANCH  22  25
ENDBRANCH  18  19
ENDBRANCH  17  18
ENDBRANCH  11  17
TORSDOF 5
ENDMDL
MODEL 4
REMARK VINA RESULT:      -8.2      0.462      1.071
REMARK  Name = 
REMARK  6 active torsions:
REMARK  status: ('A' for Active; 'I' for Inactive)
REMARK    1  A    between atoms: C_1  and  C_2
REMARK    2  A    between atoms: C_2  and  N_3
REMARK    3  A    between atoms: C_13  and  S_14
REMARK    4  A    between atoms: S_14  and  C_15
REMARK    5  A    between atoms: C_15  and  C_16
REMARK    6  A    between atoms: C_19  and  C_20
REMARK                            x       y       z     vdW  Elec       q    Type
REMARK                         _______ _______ _______ _____ _____    ______ ____
ROOT
ATOM      1  N   UNL     1      -1.791  12.063  20.604  0.00  0.00    +0.000 N 
ATOM      2  C   UNL     1      -2.917  12.198  19.798  0.00  0.00    +0.000 A 
ATOM      3  O   UNL     1      -3.876  12.908  20.094  0.00  0.00    +0.000 OA
ATOM      4  C   UNL     1      -2.946  11.453  18.510  0.00  0.00    +0.000 A 
ATOM      5  C   UNL     1      -4.074  11.599  17.687  0.00  0.00    +0.000 A 
ATOM      6  C   UNL     1      -4.141  10.941  16.463  0.00  0.00    +0.000 A 
ATOM      7  C   UNL     1      -3.086  10.126  16.063  0.00  0.00    +0.000 A 
ATOM      8  C   UNL     1      -1.960   9.972  16.878  0.00  0.00    +0.000 A 
ATOM      9  C   UNL     1      -1.876  10.640  18.104  0.00  0.00    +0.000 A 
ATOM     10  N   UNL     1      -0.763  10.568  18.975  0.00  0.00    +0.000 N 
ATOM     11  C   UNL     1       0.470   9.933  18.934  0.00  0.00    +0.000 A 
ATOM     12  N   UNL     1       1.150  10.200  20.028  0.00  0.00    +0.000 NA
ATOM     13  N   UNL     1       0.389  11.035  20.806  0.00  0.00    +0.000 NA
ATOM     14  C   UNL     1      -0.745  11.257  20.178  0.00  0.00    +0.000 A 
ENDROOT
BRANCH   1  16
ATOM     15  C   UNL     1      -2.198  12.089  23.034  0.00  0.00    +0.000 C 
ATOM     16  C   UNL     1      -1.705  12.866  21.821  0.00  0.00    +0.000 C 
ENDBRANCH   1  16
BRANCH  11  17
ATOM     17  S   UNL     1       1.073   8.965  17.630  0.00  0.00    +0.000 S 
BRANCH  17  18
ATOM     18  C   UNL     1       2.617   8.264  18.282  0.00  0.00    +0.000 C 
BRANCH  18  19
ATOM     19  C   UNL     1       2.353   6.888  18.864  0.00  0.00    +0.000 A 
ATOM     20  C   UNL     1       2.060   6.732  20.228  0.00  0.00    +0.000 A 
ATOM     21  C   UNL     1       1.895   5.460  20.783  0.00  0.00    +0.000 A 
ATOM     22  C   UNL     1       2.024   4.309  19.992  0.00  0.00    +0.000 A 
ATOM     23  C   UNL     1       2.302   4.465  18.624  0.00  0.00    +0.000 A 
ATOM     24  C   UNL     1       2.466   5.737  18.068  0.00  0.00    +0.000 A 
BRANCH  22  25
ATOM     25  C   UNL     1       1.890   2.930  20.589  0.00  0.00    +0.000 C 
ATOM     26  F   UNL     1       0.667   2.687  21.139  0.00  0.00    +0.000 F 
ATOM     27  F   UNL     1       2.091   1.939  19.677  0.00  0.00    +0.000 F 
ATOM     28  F   UNL     1       2.793   2.704  21.587  0.00  0.00    +0.000 F 
ENDBRANCH  22  25
ENDBRANCH  18  19
ENDBRANCH  17  18
ENDBRANCH  11  17
TORSDOF 5
ENDMDL
MODEL 5
REMARK VINA RESULT:      -7.9      5.305      9.042
REMARK  Name = 
REMARK  6 active torsions:
REMARK  status: ('A' for Active; 'I' for Inactive)
REMARK    1  A    between atoms: C_1  and  C_2
REMARK    2  A    between atoms: C_2  and  N_3
REMARK    3  A    between atoms: C_13  and  S_14
REMARK    4  A    between atoms: S_14  and  C_15
REMARK    5  A    between atoms: C_15  and  C_16
REMARK    6  A    between atoms: C_19  and  C_20
REMARK                            x       y       z     vdW  Elec       q    Type
REMARK                         _______ _______ _______ _____ _____    ______ ____
ROOT
ATOM      1  N   UNL     1       4.206   4.463  17.008  0.00  0.00    +0.000 N 
ATOM      2  C   UNL     1       3.793   3.290  17.633  0.00  0.00    +0.000 A 
ATOM      3  O   UNL     1       4.162   2.172  17.278  0.00  0.00    +0.000 OA
ATOM      4  C   UNL     1       2.870   3.406  18.796  0.00  0.00    +0.000 A 
ATOM      5  C   UNL     1       2.465   2.225  19.438  0.00  0.00    +0.000 A 
ATOM      6  C   UNL     1       1.621   2.280  20.542  0.00  0.00    +0.000 A 
ATOM      7  C   UNL     1       1.171   3.514  21.001  0.00  0.00    +0.000 A 
ATOM      8  C   UNL     1       1.566   4.695  20.365  0.00  0.00    +0.000 A 
ATOM      9  C   UNL     1       2.427   4.653  19.263  0.00  0.00    +0.000 A 
ATOM     10  N   UNL     1       2.904   5.797  18.580  0.00  0.00    +0.000 N 
ATOM     11  C   UNL     1       2.744   7.166  18.740  0.00  0.00    +0.000 A 
ATOM     12  N   UNL     1       3.420   7.808  17.812  0.00  0.00    +0.000 NA
ATOM     13  N   UNL     1       4.059   6.877  17.033  0.00  0.00    +0.000 NA
ATOM     14  C   UNL     1       3.756   5.683  17.492  0.00  0.00    +0.000 A 
ENDROOT
BRANCH   1  16
ATOM     15  C   UNL     1       6.610   4.447  16.473  0.00  0.00    +0.000 C 
ATOM     16  C   UNL     1       5.189   4.371  15.932  0.00  0.00    +0.000 C 
ENDBRANCH   1  16
BRANCH  11  17
ATOM     17  S   UNL     1       1.835   7.946  19.991  0.00  0.00    +0.000 S 
BRANCH  17  18
ATOM     18  C   UNL     1       1.119   9.401  19.172  0.00  0.00    +0.000 C 
BRANCH  18  19
ATOM     19  C   UNL     1       0.216  10.144  20.139  0.00  0.00    +0.000 A 
ATOM     20  C   UNL     1      -0.599  11.196  19.692  0.00  0.00    +0.000 A 
ATOM     21  C   UNL     1      -1.372  11.935  20.593  0.00  0.00    +0.000 A 
ATOM     22  C   UNL     1      -1.346  11.645  21.965  0.00  0.00    +0.000 A 
ATOM     23  C   UNL     1      -0.543  10.583  22.411  0.00  0.00    +0.000 A 
ATOM     24  C   UNL     1       0.229   9.843  21.510  0.00  0.00    +0.000 A 
BRANCH  22  25
ATOM     25  C   UNL     1      -2.143  12.463  22.952  0.00  0.00    +0.000 C 
ATOM     26  F   UNL     1      -3.037  13.310  22.367  0.00  0.00    +0.000 F 
ATOM     27  F   UNL     1      -2.868  11.694  23.811  0.00  0.00    +0.000 F 
ATOM     28  F   UNL     1      -1.352  13.250  23.736  0.00  0.00    +0.000 F 
ENDBRANCH  22  25
ENDBRANCH  18  19
ENDBRANCH  17  18
ENDBRANCH  11  17
TORSDOF 5
ENDMDL
MODEL 6
REMARK VINA RESULT:      -7.9      5.284      9.038
REMARK  Name = 
REMARK  6 active torsions:
REMARK  status: ('A' for Active; 'I' for Inactive)
REMARK    1  A    between atoms: C_1  and  C_2
REMARK    2  A    between atoms: C_2  and  N_3
REMARK    3  A    between atoms: C_13  and  S_14
REMARK    4  A    between atoms: S_14  and  C_15
REMARK    5  A    between atoms: C_15  and  C_16
REMARK    6  A    between atoms: C_19  and  C_20
REMARK                            x       y       z     vdW  Elec       q    Type
REMARK                         _______ _______ _______ _____ _____    ______ ____
ROOT
ATOM      1  N   UNL     1       4.187   4.510  17.082  0.00  0.00    +0.000 N 
ATOM      2  C   UNL     1       3.780   3.340  17.717  0.00  0.00    +0.000 A 
ATOM      3  O   UNL     1       4.156   2.222  17.371  0.00  0.00    +0.000 OA
ATOM      4  C   UNL     1       2.856   3.460  18.877  0.00  0.00    +0.000 A 
ATOM      5  C   UNL     1       2.457   2.283  19.529  0.00  0.00    +0.000 A 
ATOM      6  C   UNL     1       1.612   2.342  20.632  0.00  0.00    +0.000 A 
ATOM      7  C   UNL     1       1.154   3.577  21.080  0.00  0.00    +0.000 A 
ATOM      8  C   UNL     1       1.543   4.755  20.435  0.00  0.00    +0.000 A 
ATOM      9  C   UNL     1       2.405   4.709  19.334  0.00  0.00    +0.000 A 
ATOM     10  N   UNL     1       2.876   5.850  18.642  0.00  0.00    +0.000 N 
ATOM     11  C   UNL     1       2.708   7.219  18.790  0.00  0.00    +0.000 A 
ATOM     12  N   UNL     1       3.382   7.858  17.858  0.00  0.00    +0.000 NA
ATOM     13  N   UNL     1       4.026   6.924  17.087  0.00  0.00    +0.000 NA
ATOM     14  C   UNL     1       3.730   5.732  17.556  0.00  0.00    +0.000 A 
ENDROOT
BRANCH   1  16
ATOM     15  C   UNL     1       6.592   4.498  16.550  0.00  0.00    +0.000 C 
ATOM     16  C   UNL     1       5.171   4.415  16.008  0.00  0.00    +0.000 C 
ENDBRANCH   1  16
BRANCH  11  17
ATOM     17  S   UNL     1       1.794   8.004  20.034  0.00  0.00    +0.000 S 
BRANCH  17  18
ATOM     18  C   UNL     1       1.099   9.468  19.212  0.00  0.00    +0.000 C 
BRANCH  18  19
ATOM     19  C   UNL     1       0.281  10.276  20.202  0.00  0.00    +0.000 A 
ATOM     20  C   UNL     1       0.269   9.938  21.564  0.00  0.00    +0.000 A 
ATOM     21  C   UNL     1      -0.545  10.631  22.466  0.00  0.00    +0.000 A 
ATOM     22  C   UNL     1      -1.374  11.675  22.028  0.00  0.00    +0.000 A 
ATOM     23  C   UNL     1      -1.351  12.023  20.668  0.00  0.00    +0.000 A 
ATOM     24  C   UNL     1      -0.535  11.332  19.766  0.00  0.00    +0.000 A 
BRANCH  22  25
ATOM     25  C   UNL     1      -2.289  12.400  22.984  0.00  0.00    +0.000 C 
ATOM     26  F   UNL     1      -1.652  13.324  23.757  0.00  0.00    +0.000 F 
ATOM     27  F   UNL     1      -3.288  13.073  22.349  0.00  0.00    +0.000 F 
ATOM     28  F   UNL     1      -2.907  11.554  23.857  0.00  0.00    +0.000 F 
ENDBRANCH  22  25
ENDBRANCH  18  19
ENDBRANCH  17  18
ENDBRANCH  11  17
TORSDOF 5
ENDMDL
MODEL 7
REMARK VINA RESULT:      -7.9      4.836      8.643
REMARK  Name = 
REMARK  6 active torsions:
REMARK  status: ('A' for Active; 'I' for Inactive)
REMARK    1  A    between atoms: C_1  and  C_2
REMARK    2  A    between atoms: C_2  and  N_3
REMARK    3  A    between atoms: C_13  and  S_14
REMARK    4  A    between atoms: S_14  and  C_15
REMARK    5  A    between atoms: C_15  and  C_16
REMARK    6  A    between atoms: C_19  and  C_20
REMARK                            x       y       z     vdW  Elec       q    Type
REMARK                         _______ _______ _______ _____ _____    ______ ____
ROOT
ATOM      1  N   UNL     1       4.215   5.473  17.145  0.00  0.00    +0.000 N 
ATOM      2  C   UNL     1       4.003   4.228  17.728  0.00  0.00    +0.000 A 
ATOM      3  O   UNL     1       4.572   3.204  17.355  0.00  0.00    +0.000 OA
ATOM      4  C   UNL     1       3.048   4.143  18.867  0.00  0.00    +0.000 A 
ATOM      5  C   UNL     1       2.845   2.891  19.467  0.00  0.00    +0.000 A 
ATOM      6  C   UNL     1       1.979   2.763  20.549  0.00  0.00    +0.000 A 
ATOM      7  C   UNL     1       1.307   3.883  21.027  0.00  0.00    +0.000 A 
ATOM      8  C   UNL     1       1.501   5.134  20.433  0.00  0.00    +0.000 A 
ATOM      9  C   UNL     1       2.380   5.278  19.354  0.00  0.00    +0.000 A 
ATOM     10  N   UNL     1       2.661   6.509  18.715  0.00  0.00    +0.000 N 
ATOM     11  C   UNL     1       2.258   7.822  18.905  0.00  0.00    +0.000 A 
ATOM     12  N   UNL     1       2.830   8.602  18.013  0.00  0.00    +0.000 NA
ATOM     13  N   UNL     1       3.642   7.822  17.228  0.00  0.00    +0.000 NA
ATOM     14  C   UNL     1       3.545   6.580  17.648  0.00  0.00    +0.000 A 
ENDROOT
BRANCH   1  16
ATOM     15  C   UNL     1       6.597   5.892  16.677  0.00  0.00    +0.000 C 
ATOM     16  C   UNL     1       5.223   5.590  16.095  0.00  0.00    +0.000 C 
ENDBRANCH   1  16
BRANCH  11  17
ATOM     17  S   UNL     1       1.197   8.391  20.150  0.00  0.00    +0.000 S 
BRANCH  17  18
ATOM     18  C   UNL     1       1.033  10.168  19.809  0.00  0.00    +0.000 C 
BRANCH  18  19
ATOM     19  C   UNL     1      -0.280  10.438  19.098  0.00  0.00    +0.000 A 
ATOM     20  C   UNL     1      -1.235  11.299  19.661  0.00  0.00    +0.000 A 
ATOM     21  C   UNL     1      -2.477  11.488  19.047  0.00  0.00    +0.000 A 
ATOM     22  C   UNL     1      -2.800  10.816  17.860  0.00  0.00    +0.000 A 
ATOM     23  C   UNL     1      -1.840   9.966  17.288  0.00  0.00    +0.000 A 
ATOM     24  C   UNL     1      -0.596   9.778  17.900  0.00  0.00    +0.000 A 
BRANCH  22  25
ATOM     25  C   UNL     1      -4.154  10.979  17.213  0.00  0.00    +0.000 C 
ATOM     26  F   UNL     1      -4.583  12.272  17.157  0.00  0.00    +0.000 F 
ATOM     27  F   UNL     1      -4.183  10.523  15.930  0.00  0.00    +0.000 F 
ATOM     28  F   UNL     1      -5.133  10.296  17.872  0.00  0.00    +0.000 F 
ENDBRANCH  22  25
ENDBRANCH  18  19
ENDBRANCH  17  18
ENDBRANCH  11  17
TORSDOF 5
ENDMDL
MODEL 8
REMARK VINA RESULT:      -7.9      5.077      8.896
REMARK  Name = 
REMARK  6 active torsions:
REMARK  status: ('A' for Active; 'I' for Inactive)
REMARK    1  A    between atoms: C_1  and  C_2
REMARK    2  A    between atoms: C_2  and  N_3
REMARK    3  A    between atoms: C_13  and  S_14
REMARK    4  A    between atoms: S_14  and  C_15
REMARK    5  A    between atoms: C_15  and  C_16
REMARK    6  A    between atoms: C_19  and  C_20
REMARK                            x       y       z     vdW  Elec       q    Type
REMARK                         _______ _______ _______ _____ _____    ______ ____
ROOT
ATOM      1  N   UNL     1       4.373   4.388  17.085  0.00  0.00    +0.000 N 
ATOM      2  C   UNL     1       3.883   3.279  17.769  0.00  0.00    +0.000 A 
ATOM      3  O   UNL     1       4.272   2.132  17.558  0.00  0.00    +0.000 OA
ATOM      4  C   UNL     1       2.848   3.505  18.814  0.00  0.00    +0.000 A 
ATOM      5  C   UNL     1       2.363   2.390  19.516  0.00  0.00    +0.000 A 
ATOM      6  C   UNL     1       1.411   2.550  20.518  0.00  0.00    +0.000 A 
ATOM      7  C   UNL     1       0.932   3.822  20.813  0.00  0.00    +0.000 A 
ATOM      8  C   UNL     1       1.407   4.938  20.116  0.00  0.00    +0.000 A 
ATOM      9  C   UNL     1       2.375   4.791  19.118  0.00  0.00    +0.000 A 
ATOM     10  N   UNL     1       2.934   5.866  18.386  0.00  0.00    +0.000 N 
ATOM     11  C   UNL     1       2.777   7.245  18.402  0.00  0.00    +0.000 A 
ATOM     12  N   UNL     1       3.553   7.796  17.495  0.00  0.00    +0.000 NA
ATOM     13  N   UNL     1       4.256   6.795  16.874  0.00  0.00    +0.000 NA
ATOM     14  C   UNL     1       3.892   5.649  17.407  0.00  0.00    +0.000 A 
ENDROOT
BRANCH   1  16
ATOM     15  C   UNL     1       6.807   4.549  16.744  0.00  0.00    +0.000 C 
ATOM     16  C   UNL     1       5.460   4.194  16.130  0.00  0.00    +0.000 C 
ENDBRANCH   1  16
BRANCH  11  17
ATOM     17  S   UNL     1       1.755   8.140  19.476  0.00  0.00    +0.000 S 
BRANCH  17  18
ATOM     18  C   UNL     1       1.705   9.804  18.750  0.00  0.00    +0.000 C 
BRANCH  18  19
ATOM     19  C   UNL     1       0.265  10.235  18.546  0.00  0.00    +0.000 A 
ATOM     20  C   UNL     1      -0.352  11.120  19.445  0.00  0.00    +0.000 A 
ATOM     21  C   UNL     1      -1.701  11.457  19.304  0.00  0.00    +0.000 A 
ATOM     22  C   UNL     1      -2.472  10.914  18.266  0.00  0.00    +0.000 A 
ATOM     23  C   UNL     1      -1.853  10.041  17.358  0.00  0.00    +0.000 A 
ATOM     24  C   UNL     1      -0.502   9.705  17.497  0.00  0.00    +0.000 A 
BRANCH  22  25
ATOM     25  C   UNL     1      -3.940  11.236  18.131  0.00  0.00    +0.000 C 
ATOM     26  F   UNL     1      -4.256  11.876  16.970  0.00  0.00    +0.000 F 
ATOM     27  F   UNL     1      -4.729  10.127  18.171  0.00  0.00    +0.000 F 
ATOM     28  F   UNL     1      -4.390  12.048  19.131  0.00  0.00    +0.000 F 
ENDBRANCH  22  25
ENDBRANCH  18  19
ENDBRANCH  17  18
ENDBRANCH  11  17
TORSDOF 5
ENDMDL
MODEL 9
REMARK VINA RESULT:      -7.8      5.145      8.910
REMARK  Name = 
REMARK  6 active torsions:
REMARK  status: ('A' for Active; 'I' for Inactive)
REMARK    1  A    between atoms: C_1  and  C_2
REMARK    2  A    between atoms: C_2  and  N_3
REMARK    3  A    between atoms: C_13  and  S_14
REMARK    4  A    between atoms: S_14  and  C_15
REMARK    5  A    between atoms: C_15  and  C_16
REMARK    6  A    between atoms: C_19  and  C_20
REMARK                            x       y       z     vdW  Elec       q    Type
REMARK                         _______ _______ _______ _____ _____    ______ ____
ROOT
ATOM      1  N   UNL     1       4.585   4.514  17.085  0.00  0.00    +0.000 N 
ATOM      2  C   UNL     1       4.035   3.396  17.705  0.00  0.00    +0.000 A 
ATOM      3  O   UNL     1       4.446   2.253  17.519  0.00  0.00    +0.000 OA
ATOM      4  C   UNL     1       2.901   3.608  18.646  0.00  0.00    +0.000 A 
ATOM      5  C   UNL     1       2.354   2.484  19.285  0.00  0.00    +0.000 A 
ATOM      6  C   UNL     1       1.308   2.630  20.190  0.00  0.00    +0.000 A 
ATOM      7  C   UNL     1       0.799   3.898  20.451  0.00  0.00    +0.000 A 
ATOM      8  C   UNL     1       1.335   5.023  19.817  0.00  0.00    +0.000 A 
ATOM      9  C   UNL     1       2.397   4.890  18.916  0.00  0.00    +0.000 A 
ATOM     10  N   UNL     1       3.021   5.974  18.255  0.00  0.00    +0.000 N 
ATOM     11  C   UNL     1       2.859   7.352  18.271  0.00  0.00    +0.000 A 
ATOM     12  N   UNL     1       3.718   7.916  17.450  0.00  0.00    +0.000 NA
ATOM     13  N   UNL     1       4.482   6.923  16.890  0.00  0.00    +0.000 NA
ATOM     14  C   UNL     1       4.071   5.771  17.372  0.00  0.00    +0.000 A 
ENDROOT
BRANCH   1  16
ATOM     15  C   UNL     1       5.386   4.336  14.762  0.00  0.00    +0.000 C 
ATOM     16  C   UNL     1       5.761   4.334  16.238  0.00  0.00    +0.000 C 
ENDBRANCH   1  16
BRANCH  11  17
ATOM     17  S   UNL     1       1.734   8.233  19.251  0.00  0.00    +0.000 S 
BRANCH  17  18
ATOM     18  C   UNL     1       1.502   9.796  18.355  0.00  0.00    +0.000 C 
BRANCH  18  19
ATOM     19  C   UNL     1       0.031  10.169  18.339  0.00  0.00    +0.000 A 
ATOM     20  C   UNL     1      -0.860   9.524  17.467  0.00  0.00    +0.000 A 
ATOM     21  C   UNL     1      -2.200   9.919  17.394  0.00  0.00    +0.000 A 
ATOM     22  C   UNL     1      -2.682  10.972  18.185  0.00  0.00    +0.000 A 
ATOM     23  C   UNL     1      -1.794  11.607  19.068  0.00  0.00    +0.000 A 
ATOM     24  C   UNL     1      -0.455  11.211  19.144  0.00  0.00    +0.000 A 
BRANCH  22  25
ATOM     25  C   UNL     1      -4.114  11.435  18.082  0.00  0.00    +0.000 C 
ATOM     26  F   UNL     1      -4.402  12.073  16.912  0.00  0.00    +0.000 F 
ATOM     27  F   UNL     1      -5.007  10.411  18.176  0.00  0.00    +0.000 F 
ATOM     28  F   UNL     1      -4.451  12.313  19.071  0.00  0.00    +0.000 F 
ENDBRANCH  22  25
ENDBRANCH  18  19
ENDBRANCH  17  18
ENDBRANCH  11  17
TORSDOF 5
ENDMDL
