MODEL 1
REMARK VINA RESULT:      -8.2      0.000      0.000
REMARK  Name = 
REMARK  9 active torsions:
REMARK  status: ('A' for Active; 'I' for Inactive)
REMARK    1  A    between atoms: C_1  and  C_2
REMARK    2  A    between atoms: C_2  and  O_3
REMARK    3  A    between atoms: O_3  and  C_4
REMARK    4  A    between atoms: C_4  and  C_6
REMARK    5  A    between atoms: C_9  and  N_10
REMARK    6  A    between atoms: C_12  and  N_13
REMARK    7  A    between atoms: C_14  and  C_16
REMARK    8  A    between atoms: C_16  and  N_17
REMARK    9  A    between atoms: C_24  and  C_25
REMARK                            x       y       z     vdW  Elec       q    Type
REMARK                         _______ _______ _______ _____ _____    ______ ____
ROOT
ATOM      1  N   UNL     1       2.054   7.983  18.330  0.00  0.00    +0.000 N 
ATOM      2  C   UNL     1       1.606   8.994  19.155  0.00  0.00    +0.000 C 
ATOM      3  O   UNL     1       1.380   8.831  20.358  0.00  0.00    +0.000 OA
ATOM      4  H   UNL     1       2.452   8.282  17.435  0.00  0.00    +0.000 HD
ENDROOT
BRANCH   1   7
ATOM      5  N   UNL     1       4.134   5.732  18.096  0.00  0.00    +0.000 NA
ATOM      6  C   UNL     1       2.687   5.555  17.816  0.00  0.00    +0.000 C 
ATOM      7  C   UNL     1       2.351   6.628  18.860  0.00  0.00    +0.000 C 
ATOM      8  C   UNL     1       3.788   6.414  19.374  0.00  0.00    +0.000 C 
BRANCH   5  12
ATOM      9  C   UNL     1       6.480   4.036  15.880  0.00  0.00    +0.000 C 
ATOM     10  C   UNL     1       6.929   4.944  17.032  0.00  0.00    +0.000 C 
ATOM     11  C   UNL     1       6.323   4.549  18.380  0.00  0.00    +0.000 C 
ATOM     12  C   UNL     1       4.786   4.426  18.351  0.00  0.00    +0.000 C 
ATOM     13  C   UNL     1       4.436   3.385  17.268  0.00  0.00    +0.000 C 
ATOM     14  C   UNL     1       4.973   3.749  15.890  0.00  0.00    +0.000 C 
BRANCH   9  15
ATOM     15  C   UNL     1       6.815   4.661  14.535  0.00  0.00    +0.000 C 
ATOM     16  O   UNL     1       7.729   5.448  14.328  0.00  0.00    +0.000 OA
BRANCH  15  17
ATOM     17  O   UNL     1       5.865   4.307  13.620  0.00  0.00    +0.000 OA
BRANCH  17  19
ATOM     18  C   UNL     1       5.148   2.999  11.750  0.00  0.00    +0.000 C 
ATOM     19  C   UNL     1       6.348   3.562  12.492  0.00  0.00    +0.000 C 
ENDBRANCH  17  19
ENDBRANCH  15  17
ENDBRANCH   9  15
ENDBRANCH   5  12
ENDBRANCH   1   7
BRANCH   2  20
ATOM     20  C   UNL     1       1.444  10.356  18.488  0.00  0.00    +0.000 C 
BRANCH  20  21
ATOM     21  N   UNL     1       0.034  10.665  18.289  0.00  0.00    +0.000 N 
ATOM     22  C   UNL     1      -0.657  11.339  19.232  0.00  0.00    +0.000 A 
ATOM     23  N   UNL     1      -0.139  11.815  20.368  0.00  0.00    +0.000 NA
ATOM     24  N   UNL     1      -1.174  12.435  20.960  0.00  0.00    +0.000 N 
ATOM     25  C   UNL     1      -2.350  12.361  20.263  0.00  0.00    +0.000 A 
ATOM     26  C   UNL     1      -3.624  12.868  20.533  0.00  0.00    +0.000 A 
ATOM     27  C   UNL     1      -4.627  12.604  19.590  0.00  0.00    +0.000 A 
ATOM     28  C   UNL     1      -4.369  11.871  18.424  0.00  0.00    +0.000 A 
ATOM     29  C   UNL     1      -3.066  11.383  18.180  0.00  0.00    +0.000 A 
ATOM     30  C   UNL     1      -2.046  11.632  19.121  0.00  0.00    +0.000 A 
ATOM     31  H   UNL     1      -0.457   9.982  17.719  0.00  0.00    +0.000 HD
ATOM     32  H   UNL     1      -1.012  12.895  21.848  0.00  0.00    +0.000 HD
BRANCH  28  33
ATOM     33  C   UNL     1      -5.462  11.593  17.419  0.00  0.00    +0.000 C 
ATOM     34  F   UNL     1      -6.456  10.795  17.900  0.00  0.00    +0.000 F 
ATOM     35  F   UNL     1      -6.075  12.730  16.986  0.00  0.00    +0.000 F 
ATOM     36  F   UNL     1      -4.995  10.972  16.301  0.00  0.00    +0.000 F 
ENDBRANCH  28  33
ENDBRANCH  20  21
ENDBRANCH   2  20
TORSDOF 8
ENDMDL
MODEL 2
REMARK VINA RESULT:      -8.1      4.970     11.713
REMARK  Name = 
REMARK  9 active torsions:
REMARK  status: ('A' for Active; 'I' for Inactive)
REMARK    1  A    between atoms: C_1  and  C_2
REMARK    2  A    between atoms: C_2  and  O_3
REMARK    3  A    between atoms: O_3  and  C_4
REMARK    4  A    between atoms: C_4  and  C_6
REMARK    5  A    between atoms: C_9  and  N_10
REMARK    6  A    between atoms: C_12  and  N_13
REMARK    7  A    between atoms: C_14  and  C_16
REMARK    8  A    between atoms: C_16  and  N_17
REMARK    9  A    between atoms: C_24  and  C_25
REMARK                            x       y       z     vdW  Elec       q    Type
REMARK                         _______ _______ _______ _____ _____    ______ ____
ROOT
ATOM      1  N   UNL     1      -1.394  10.163  18.397  0.00  0.00    +0.000 N 
ATOM      2  C   UNL     1      -0.322  10.872  18.898  0.00  0.00    +0.000 C 
ATOM      3  O   UNL     1      -0.127  12.065  18.646  0.00  0.00    +0.000 OA
ATOM      4  H   UNL     1      -1.602   9.278  18.867  0.00  0.00    +0.000 HD
ENDROOT
BRANCH   1   7
ATOM      5  N   UNL     1      -4.343  11.028  18.480  0.00  0.00    +0.000 NA
ATOM      6  C   UNL     1      -3.780  10.099  17.467  0.00  0.00    +0.000 C 
ATOM      7  C   UNL     1      -2.427  10.818  17.555  0.00  0.00    +0.000 C 
ATOM      8  C   UNL     1      -3.210  11.961  18.231  0.00  0.00    +0.000 C 
BRANCH   5  12
ATOM      9  C   UNL     1      -7.136  12.050  20.587  0.00  0.00    +0.000 C 
ATOM     10  C   UNL     1      -6.051  13.024  20.111  0.00  0.00    +0.000 C 
ATOM     11  C   UNL     1      -5.860  13.017  18.593  0.00  0.00    +0.000 C 
ATOM     12  C   UNL     1      -5.622  11.608  18.010  0.00  0.00    +0.000 C 
ATOM     13  C   UNL     1      -6.833  10.742  18.414  0.00  0.00    +0.000 C 
ATOM     14  C   UNL     1      -7.045  10.671  19.920  0.00  0.00    +0.000 C 
BRANCH   9  15
ATOM     15  C   UNL     1      -7.050  11.835  22.090  0.00  0.00    +0.000 C 
ATOM     16  O   UNL     1      -7.910  11.301  22.778  0.00  0.00    +0.000 OA
BRANCH  15  17
ATOM     17  O   UNL     1      -5.925  12.437  22.573  0.00  0.00    +0.000 OA
BRANCH  17  19
ATOM     18  C   UNL     1      -4.641  12.509  24.590  0.00  0.00    +0.000 C 
ATOM     19  C   UNL     1      -5.982  12.830  23.952  0.00  0.00    +0.000 C 
ENDBRANCH  17  19
ENDBRANCH  15  17
ENDBRANCH   9  15
ENDBRANCH   5  12
ENDBRANCH   1   7
BRANCH   2  20
ATOM     20  C   UNL     1       0.599  10.090  19.829  0.00  0.00    +0.000 C 
BRANCH  20  21
ATOM     21  N   UNL     1       1.494   9.232  19.063  0.00  0.00    +0.000 N 
ATOM     22  C   UNL     1       1.878   8.035  19.555  0.00  0.00    +0.000 A 
ATOM     23  N   UNL     1       1.461   7.512  20.712  0.00  0.00    +0.000 NA
ATOM     24  N   UNL     1       2.066   6.314  20.761  0.00  0.00    +0.000 N 
ATOM     25  C   UNL     1       2.877   6.047  19.691  0.00  0.00    +0.000 A 
ATOM     26  C   UNL     1       3.662   4.934  19.374  0.00  0.00    +0.000 A 
ATOM     27  C   UNL     1       4.386   4.987  18.175  0.00  0.00    +0.000 A 
ATOM     28  C   UNL     1       4.327   6.100  17.326  0.00  0.00    +0.000 A 
ATOM     29  C   UNL     1       3.516   7.201  17.675  0.00  0.00    +0.000 A 
ATOM     30  C   UNL     1       2.785   7.170  18.880  0.00  0.00    +0.000 A 
ATOM     31  H   UNL     1       2.137   9.744  18.465  0.00  0.00    +0.000 HD
ATOM     32  H   UNL     1       1.883   5.717  21.559  0.00  0.00    +0.000 HD
BRANCH  28  33
ATOM     33  C   UNL     1       5.117   6.142  16.039  0.00  0.00    +0.000 C 
ATOM     34  F   UNL     1       4.759   7.162  15.211  0.00  0.00    +0.000 F 
ATOM     35  F   UNL     1       6.455   6.288  16.252  0.00  0.00    +0.000 F 
ATOM     36  F   UNL     1       4.978   5.002  15.306  0.00  0.00    +0.000 F 
ENDBRANCH  28  33
ENDBRANCH  20  21
ENDBRANCH   2  20
TORSDOF 8
ENDMDL
MODEL 3
REMARK VINA RESULT:      -7.9      6.871     10.403
REMARK  Name = 
REMARK  9 active torsions:
REMARK  status: ('A' for Active; 'I' for Inactive)
REMARK    1  A    between atoms: C_1  and  C_2
REMARK    2  A    between atoms: C_2  and  O_3
REMARK    3  A    between atoms: O_3  and  C_4
REMARK    4  A    between atoms: C_4  and  C_6
REMARK    5  A    between atoms: C_9  and  N_10
REMARK    6  A    between atoms: C_12  and  N_13
REMARK    7  A    between atoms: C_14  and  C_16
REMARK    8  A    between atoms: C_16  and  N_17
REMARK    9  A    between atoms: C_24  and  C_25
REMARK                            x       y       z     vdW  Elec       q    Type
REMARK                         _______ _______ _______ _____ _____    ______ ____
ROOT
ATOM      1  N   UNL     1       8.358   9.308  18.145  0.00  0.00    +0.000 N 
ATOM      2  C   UNL     1       7.956   7.989  18.092  0.00  0.00    +0.000 C 
ATOM      3  O   UNL     1       8.502   7.092  18.742  0.00  0.00    +0.000 OA
ATOM      4  H   UNL     1       7.689   9.992  17.781  0.00  0.00    +0.000 HD
ENDROOT
BRANCH   1   7
ATOM      5  N   UNL     1       9.455  11.832  19.514  0.00  0.00    +0.000 NA
ATOM      6  C   UNL     1      10.248  10.977  18.593  0.00  0.00    +0.000 C 
ATOM      7  C   UNL     1       9.452   9.746  19.047  0.00  0.00    +0.000 C 
ATOM      8  C   UNL     1       9.020  10.611  20.247  0.00  0.00    +0.000 C 
BRANCH   5  12
ATOM      9  C   UNL     1       9.316  15.460  19.833  0.00  0.00    +0.000 C 
ATOM     10  C   UNL     1       8.613  14.510  20.810  0.00  0.00    +0.000 C 
ATOM     11  C   UNL     1       9.552  13.462  21.412  0.00  0.00    +0.000 C 
ATOM     12  C   UNL     1      10.344  12.667  20.354  0.00  0.00    +0.000 C 
ATOM     13  C   UNL     1      11.135  13.693  19.516  0.00  0.00    +0.000 C 
ATOM     14  C   UNL     1      10.247  14.736  18.851  0.00  0.00    +0.000 C 
BRANCH   9  15
ATOM     15  C   UNL     1       8.304  16.240  19.010  0.00  0.00    +0.000 C 
ATOM     16  O   UNL     1       7.668  17.209  19.403  0.00  0.00    +0.000 OA
BRANCH  15  17
ATOM     17  O   UNL     1       8.121  15.620  17.807  0.00  0.00    +0.000 OA
BRANCH  17  19
ATOM     18  C   UNL     1       7.172  13.458  17.425  0.00  0.00    +0.000 C 
ATOM     19  C   UNL     1       6.872  14.928  17.657  0.00  0.00    +0.000 C 
ENDBRANCH  17  19
ENDBRANCH  15  17
ENDBRANCH   9  15
ENDBRANCH   5  12
ENDBRANCH   1   7
BRANCH   2  20
ATOM     20  C   UNL     1       6.754   7.709  17.197  0.00  0.00    +0.000 C 
BRANCH  20  21
ATOM     21  N   UNL     1       5.747   6.938  17.917  0.00  0.00    +0.000 N 
ATOM     22  C   UNL     1       5.458   5.674  17.540  0.00  0.00    +0.000 A 
ATOM     23  N   UNL     1       6.066   5.010  16.552  0.00  0.00    +0.000 NA
ATOM     24  N   UNL     1       5.485   3.800  16.572  0.00  0.00    +0.000 N 
ATOM     25  C   UNL     1       4.507   3.658  17.519  0.00  0.00    +0.000 A 
ATOM     26  C   UNL     1       3.687   2.576  17.854  0.00  0.00    +0.000 A 
ATOM     27  C   UNL     1       2.772   2.771  18.898  0.00  0.00    +0.000 A 
ATOM     28  C   UNL     1       2.681   3.991  19.582  0.00  0.00    +0.000 A 
ATOM     29  C   UNL     1       3.533   5.058  19.221  0.00  0.00    +0.000 A 
ATOM     30  C   UNL     1       4.456   4.883  18.170  0.00  0.00    +0.000 A 
ATOM     31  H   UNL     1       5.011   7.507  18.323  0.00  0.00    +0.000 HD
ATOM     32  H   UNL     1       5.802   3.105  15.905  0.00  0.00    +0.000 HD
BRANCH  28  33
ATOM     33  C   UNL     1       1.687   4.185  20.702  0.00  0.00    +0.000 C 
ATOM     34  F   UNL     1       1.131   5.429  20.730  0.00  0.00    +0.000 F 
ATOM     35  F   UNL     1       0.642   3.313  20.630  0.00  0.00    +0.000 F 
ATOM     36  F   UNL     1       2.244   4.000  21.930  0.00  0.00    +0.000 F 
ENDBRANCH  28  33
ENDBRANCH  20  21
ENDBRANCH   2  20
TORSDOF 8
ENDMDL
MODEL 4
REMARK VINA RESULT:      -7.9      7.156     10.750
REMARK  Name = 
REMARK  9 active torsions:
REMARK  status: ('A' for Active; 'I' for Inactive)
REMARK    1  A    between atoms: C_1  and  C_2
REMARK    2  A    between atoms: C_2  and  O_3
REMARK    3  A    between atoms: O_3  and  C_4
REMARK    4  A    between atoms: C_4  and  C_6
REMARK    5  A    between atoms: C_9  and  N_10
REMARK    6  A    between atoms: C_12  and  N_13
REMARK    7  A    between atoms: C_14  and  C_16
REMARK    8  A    between atoms: C_16  and  N_17
REMARK    9  A    between atoms: C_24  and  C_25
REMARK                            x       y       z     vdW  Elec       q    Type
REMARK                         _______ _______ _______ _____ _____    ______ ____
ROOT
ATOM      1  N   UNL     1       8.156   9.058  17.950  0.00  0.00    +0.000 N 
ATOM      2  C   UNL     1       7.747   7.741  17.994  0.00  0.00    +0.000 C 
ATOM      3  O   UNL     1       8.306   6.885  18.685  0.00  0.00    +0.000 OA
ATOM      4  H   UNL     1       7.480   9.722  17.562  0.00  0.00    +0.000 HD
ENDROOT
BRANCH   1   7
ATOM      5  N   UNL     1       9.246  11.642  19.211  0.00  0.00    +0.000 NA
ATOM      6  C   UNL     1      10.018  10.787  18.274  0.00  0.00    +0.000 C 
ATOM      7  C   UNL     1       9.278   9.546  18.791  0.00  0.00    +0.000 C 
ATOM      8  C   UNL     1       8.877  10.427  19.990  0.00  0.00    +0.000 C 
BRANCH   5  12
ATOM      9  C   UNL     1       9.130  15.284  19.318  0.00  0.00    +0.000 C 
ATOM     10  C   UNL     1       8.432  14.396  20.356  0.00  0.00    +0.000 C 
ATOM     11  C   UNL     1       9.372  13.381  21.008  0.00  0.00    +0.000 C 
ATOM     12  C   UNL     1      10.148  12.519  19.991  0.00  0.00    +0.000 C 
ATOM     13  C   UNL     1      10.935  13.489  19.085  0.00  0.00    +0.000 C 
ATOM     14  C   UNL     1      10.045  14.497  18.369  0.00  0.00    +0.000 C 
BRANCH   9  15
ATOM     15  C   UNL     1       8.113  16.020  18.461  0.00  0.00    +0.000 C 
ATOM     16  O   UNL     1       7.498  15.535  17.520  0.00  0.00    +0.000 OA
BRANCH  15  17
ATOM     17  O   UNL     1       8.081  17.336  18.822  0.00  0.00    +0.000 OA
BRANCH  17  19
ATOM     18  C   UNL     1       9.903  18.452  17.747  0.00  0.00    +0.000 C 
ATOM     19  C   UNL     1       9.361  17.936  19.068  0.00  0.00    +0.000 C 
ENDBRANCH  17  19
ENDBRANCH  15  17
ENDBRANCH   9  15
ENDBRANCH   5  12
ENDBRANCH   1   7
BRANCH   2  20
ATOM     20  C   UNL     1       6.517   7.413  17.153  0.00  0.00    +0.000 C 
BRANCH  20  21
ATOM     21  N   UNL     1       5.568   6.618  17.922  0.00  0.00    +0.000 N 
ATOM     22  C   UNL     1       5.261   5.361  17.538  0.00  0.00    +0.000 A 
ATOM     23  N   UNL     1       5.805   4.724  16.496  0.00  0.00    +0.000 NA
ATOM     24  N   UNL     1       5.233   3.508  16.529  0.00  0.00    +0.000 N 
ATOM     25  C   UNL     1       4.324   3.338  17.537  0.00  0.00    +0.000 A 
ATOM     26  C   UNL     1       3.535   2.243  17.903  0.00  0.00    +0.000 A 
ATOM     27  C   UNL     1       2.693   2.408  19.011  0.00  0.00    +0.000 A 
ATOM     28  C   UNL     1       2.641   3.612  19.726  0.00  0.00    +0.000 A 
ATOM     29  C   UNL     1       3.460   4.693  19.333  0.00  0.00    +0.000 A 
ATOM     30  C   UNL     1       4.309   4.549  18.217  0.00  0.00    +0.000 A 
ATOM     31  H   UNL     1       4.857   7.173  18.391  0.00  0.00    +0.000 HD
ATOM     32  H   UNL     1       5.509   2.831  15.827  0.00  0.00    +0.000 HD
BRANCH  28  33
ATOM     33  C   UNL     1       1.724   3.774  20.916  0.00  0.00    +0.000 C 
ATOM     34  F   UNL     1       0.768   4.729  20.742  0.00  0.00    +0.000 F 
ATOM     35  F   UNL     1       1.054   2.627  21.219  0.00  0.00    +0.000 F 
ATOM     36  F   UNL     1       2.397   4.124  22.047  0.00  0.00    +0.000 F 
ENDBRANCH  28  33
ENDBRANCH  20  21
ENDBRANCH   2  20
TORSDOF 8
ENDMDL
MODEL 5
REMARK VINA RESULT:      -7.9      6.710     10.360
REMARK  Name = 
REMARK  9 active torsions:
REMARK  status: ('A' for Active; 'I' for Inactive)
REMARK    1  A    between atoms: C_1  and  C_2
REMARK    2  A    between atoms: C_2  and  O_3
REMARK    3  A    between atoms: O_3  and  C_4
REMARK    4  A    between atoms: C_4  and  C_6
REMARK    5  A    between atoms: C_9  and  N_10
REMARK    6  A    between atoms: C_12  and  N_13
REMARK    7  A    between atoms: C_14  and  C_16
REMARK    8  A    between atoms: C_16  and  N_17
REMARK    9  A    between atoms: C_24  and  C_25
REMARK                            x       y       z     vdW  Elec       q    Type
REMARK                         _______ _______ _______ _____ _____    ______ ____
ROOT
ATOM      1  N   UNL     1       8.438   9.523  18.035  0.00  0.00    +0.000 N 
ATOM      2  C   UNL     1       8.093   8.188  18.079  0.00  0.00    +0.000 C 
ATOM      3  O   UNL     1       8.592   7.390  18.877  0.00  0.00    +0.000 OA
ATOM      4  H   UNL     1       7.791  10.134  17.529  0.00  0.00    +0.000 HD
ENDROOT
BRANCH   1   7
ATOM      5  N   UNL     1       9.398  12.237  19.114  0.00  0.00    +0.000 NA
ATOM      6  C   UNL     1      10.289  11.239  18.470  0.00  0.00    +0.000 C 
ATOM      7  C   UNL     1       9.405  10.103  19.000  0.00  0.00    +0.000 C 
ATOM      8  C   UNL     1       8.831  11.157  19.967  0.00  0.00    +0.000 C 
BRANCH   5  12
ATOM      9  C   UNL     1       8.676  15.788  19.517  0.00  0.00    +0.000 C 
ATOM     10  C   UNL     1       8.195  14.721  20.508  0.00  0.00    +0.000 C 
ATOM     11  C   UNL     1       9.326  13.838  21.038  0.00  0.00    +0.000 C 
ATOM     12  C   UNL     1      10.180  13.199  19.924  0.00  0.00    +0.000 C 
ATOM     13  C   UNL     1      10.742  14.353  19.068  0.00  0.00    +0.000 C 
ATOM     14  C   UNL     1       9.658  15.241  18.472  0.00  0.00    +0.000 C 
BRANCH   9  15
ATOM     15  C   UNL     1       7.505  16.398  18.764  0.00  0.00    +0.000 C 
ATOM     16  O   UNL     1       7.400  17.577  18.454  0.00  0.00    +0.000 OA
BRANCH  15  17
ATOM     17  O   UNL     1       6.532  15.455  18.595  0.00  0.00    +0.000 OA
BRANCH  17  19
ATOM     18  C   UNL     1       4.331  15.194  17.697  0.00  0.00    +0.000 C 
ATOM     19  C   UNL     1       5.184  15.936  18.710  0.00  0.00    +0.000 C 
ENDBRANCH  17  19
ENDBRANCH  15  17
ENDBRANCH   9  15
ENDBRANCH   5  12
ENDBRANCH   1   7
BRANCH   2  20
ATOM     20  C   UNL     1       7.012   7.761  17.092  0.00  0.00    +0.000 C 
BRANCH  20  21
ATOM     21  N   UNL     1       5.920   7.091  17.786  0.00  0.00    +0.000 N 
ATOM     22  C   UNL     1       5.346   5.991  17.253  0.00  0.00    +0.000 A 
ATOM     23  N   UNL     1       5.730   5.400  16.118  0.00  0.00    +0.000 NA
ATOM     24  N   UNL     1       4.910   4.341  16.013  0.00  0.00    +0.000 N 
ATOM     25  C   UNL     1       3.994   4.233  17.024  0.00  0.00    +0.000 A 
ATOM     26  C   UNL     1       2.990   3.292  17.274  0.00  0.00    +0.000 A 
ATOM     27  C   UNL     1       2.212   3.482  18.424  0.00  0.00    +0.000 A 
ATOM     28  C   UNL     1       2.428   4.561  19.291  0.00  0.00    +0.000 A 
ATOM     29  C   UNL     1       3.457   5.486  19.011  0.00  0.00    +0.000 A 
ATOM     30  C   UNL     1       4.247   5.316  17.855  0.00  0.00    +0.000 A 
ATOM     31  H   UNL     1       5.349   7.716  18.348  0.00  0.00    +0.000 HD
ATOM     32  H   UNL     1       5.027   3.721  15.219  0.00  0.00    +0.000 HD
BRANCH  28  33
ATOM     33  C   UNL     1       1.578   4.753  20.525  0.00  0.00    +0.000 C 
ATOM     34  F   UNL     1       0.345   4.180  20.433  0.00  0.00    +0.000 F 
ATOM     35  F   UNL     1       2.151   4.225  21.642  0.00  0.00    +0.000 F 
ATOM     36  F   UNL     1       1.356   6.067  20.804  0.00  0.00    +0.000 F 
ENDBRANCH  28  33
ENDBRANCH  20  21
ENDBRANCH   2  20
TORSDOF 8
ENDMDL
MODEL 6
REMARK VINA RESULT:      -7.8      1.816      2.428
REMARK  Name = 
REMARK  9 active torsions:
REMARK  status: ('A' for Active; 'I' for Inactive)
REMARK    1  A    between atoms: C_1  and  C_2
REMARK    2  A    between atoms: C_2  and  O_3
REMARK    3  A    between atoms: O_3  and  C_4
REMARK    4  A    between atoms: C_4  and  C_6
REMARK    5  A    between atoms: C_9  and  N_10
REMARK    6  A    between atoms: C_12  and  N_13
REMARK    7  A    between atoms: C_14  and  C_16
REMARK    8  A    between atoms: C_16  and  N_17
REMARK    9  A    between atoms: C_24  and  C_25
REMARK                            x       y       z     vdW  Elec       q    Type
REMARK                         _______ _______ _______ _____ _____    ______ ____
ROOT
ATOM      1  N   UNL     1       1.938   7.721  18.109  0.00  0.00    +0.000 N 
ATOM      2  C   UNL     1       1.518   8.792  18.871  0.00  0.00    +0.000 C 
ATOM      3  O   UNL     1       1.460   8.760  20.104  0.00  0.00    +0.000 OA
ATOM      4  H   UNL     1       2.193   7.936  17.142  0.00  0.00    +0.000 HD
ENDROOT
BRANCH   1   7
ATOM      5  N   UNL     1       4.211   5.660  17.917  0.00  0.00    +0.000 NA
ATOM      6  C   UNL     1       2.772   5.321  17.780  0.00  0.00    +0.000 C 
ATOM      7  C   UNL     1       2.409   6.462  18.740  0.00  0.00    +0.000 C 
ATOM      8  C   UNL     1       3.895   6.437  19.148  0.00  0.00    +0.000 C 
BRANCH   5  12
ATOM      9  C   UNL     1       6.735   4.123  15.783  0.00  0.00    +0.000 C 
ATOM     10  C   UNL     1       7.077   5.140  16.880  0.00  0.00    +0.000 C 
ATOM     11  C   UNL     1       6.522   4.754  18.252  0.00  0.00    +0.000 C 
ATOM     12  C   UNL     1       5.009   4.455  18.241  0.00  0.00    +0.000 C 
ATOM     13  C   UNL     1       4.780   3.321  17.220  0.00  0.00    +0.000 C 
ATOM     14  C   UNL     1       5.271   3.665  15.820  0.00  0.00    +0.000 C 
BRANCH   9  15
ATOM     15  C   UNL     1       6.995   4.705  14.403  0.00  0.00    +0.000 C 
ATOM     16  O   UNL     1       7.880   5.503  14.127  0.00  0.00    +0.000 OA
BRANCH  15  17
ATOM     17  O   UNL     1       6.014   4.296  13.545  0.00  0.00    +0.000 OA
BRANCH  17  19
ATOM     18  C   UNL     1       5.298   2.864  11.768  0.00  0.00    +0.000 C 
ATOM     19  C   UNL     1       6.473   3.617  12.367  0.00  0.00    +0.000 C 
ENDBRANCH  17  19
ENDBRANCH  15  17
ENDBRANCH   9  15
ENDBRANCH   5  12
ENDBRANCH   1   7
BRANCH   2  20
ATOM     20  C   UNL     1       1.162  10.050  18.087  0.00  0.00    +0.000 C 
BRANCH  20  21
ATOM     21  N   UNL     1       0.077  10.772  18.739  0.00  0.00    +0.000 N 
ATOM     22  C   UNL     1      -1.180  10.702  18.251  0.00  0.00    +0.000 A 
ATOM     23  N   UNL     1      -1.555   9.962  17.203  0.00  0.00    +0.000 NA
ATOM     24  N   UNL     1      -2.879  10.174  17.116  0.00  0.00    +0.000 N 
ATOM     25  C   UNL     1      -3.375  11.040  18.053  0.00  0.00    +0.000 A 
ATOM     26  C   UNL     1      -4.670  11.508  18.293  0.00  0.00    +0.000 A 
ATOM     27  C   UNL     1      -4.835  12.407  19.356  0.00  0.00    +0.000 A 
ATOM     28  C   UNL     1      -3.755  12.819  20.149  0.00  0.00    +0.000 A 
ATOM     29  C   UNL     1      -2.462  12.317  19.882  0.00  0.00    +0.000 A 
ATOM     30  C   UNL     1      -2.275  11.417  18.813  0.00  0.00    +0.000 A 
ATOM     31  H   UNL     1       0.375  11.627  19.200  0.00  0.00    +0.000 HD
ATOM     32  H   UNL     1      -3.394   9.694  16.387  0.00  0.00    +0.000 HD
BRANCH  28  33
ATOM     33  C   UNL     1      -3.950  13.791  21.288  0.00  0.00    +0.000 C 
ATOM     34  F   UNL     1      -3.277  14.965  21.126  0.00  0.00    +0.000 F 
ATOM     35  F   UNL     1      -5.256  14.133  21.466  0.00  0.00    +0.000 F 
ATOM     36  F   UNL     1      -3.531  13.285  22.481  0.00  0.00    +0.000 F 
ENDBRANCH  28  33
ENDBRANCH  20  21
ENDBRANCH   2  20
TORSDOF 8
ENDMDL
MODEL 7
REMARK VINA RESULT:      -7.8      7.448     10.817
REMARK  Name = 
REMARK  9 active torsions:
REMARK  status: ('A' for Active; 'I' for Inactive)
REMARK    1  A    between atoms: C_1  and  C_2
REMARK    2  A    between atoms: C_2  and  O_3
REMARK    3  A    between atoms: O_3  and  C_4
REMARK    4  A    between atoms: C_4  and  C_6
REMARK    5  A    between atoms: C_9  and  N_10
REMARK    6  A    between atoms: C_12  and  N_13
REMARK    7  A    between atoms: C_14  and  C_16
REMARK    8  A    between atoms: C_16  and  N_17
REMARK    9  A    between atoms: C_24  and  C_25
REMARK                            x       y       z     vdW  Elec       q    Type
REMARK                         _______ _______ _______ _____ _____    ______ ____
ROOT
ATOM      1  N   UNL     1       8.479   9.337  18.120  0.00  0.00    +0.000 N 
ATOM      2  C   UNL     1       8.045   8.028  18.183  0.00  0.00    +0.000 C 
ATOM      3  O   UNL     1       8.528   7.195  18.955  0.00  0.00    +0.000 OA
ATOM      4  H   UNL     1       7.851   9.992  17.648  0.00  0.00    +0.000 HD
ENDROOT
BRANCH   1   7
ATOM      5  N   UNL     1       9.417  11.934  19.470  0.00  0.00    +0.000 NA
ATOM      6  C   UNL     1      10.270  11.110  18.576  0.00  0.00    +0.000 C 
ATOM      7  C   UNL     1       9.533   9.845  19.034  0.00  0.00    +0.000 C 
ATOM      8  C   UNL     1       9.034  10.703  20.214  0.00  0.00    +0.000 C 
BRANCH   5  12
ATOM      9  C   UNL     1       9.590  15.567  19.220  0.00  0.00    +0.000 C 
ATOM     10  C   UNL     1       8.655  14.842  20.196  0.00  0.00    +0.000 C 
ATOM     11  C   UNL     1       9.383  13.840  21.094  0.00  0.00    +0.000 C 
ATOM     12  C   UNL     1      10.245  12.827  20.313  0.00  0.00    +0.000 C 
ATOM     13  C   UNL     1      11.252  13.643  19.475  0.00  0.00    +0.000 C 
ATOM     14  C   UNL     1      10.583  14.627  18.524  0.00  0.00    +0.000 C 
BRANCH   9  15
ATOM     15  C   UNL     1       8.796  16.275  18.133  0.00  0.00    +0.000 C 
ATOM     16  O   UNL     1       7.599  16.130  17.923  0.00  0.00    +0.000 OA
BRANCH  15  17
ATOM     17  O   UNL     1       9.646  17.001  17.349  0.00  0.00    +0.000 OA
BRANCH  17  19
ATOM     18  C   UNL     1      11.496  18.480  17.687  0.00  0.00    +0.000 C 
ATOM     19  C   UNL     1       9.998  18.295  17.862  0.00  0.00    +0.000 C 
ENDBRANCH  17  19
ENDBRANCH  15  17
ENDBRANCH   9  15
ENDBRANCH   5  12
ENDBRANCH   1   7
BRANCH   2  20
ATOM     20  C   UNL     1       6.888   7.680  17.253  0.00  0.00    +0.000 C 
BRANCH  20  21
ATOM     21  N   UNL     1       5.872   6.914  17.963  0.00  0.00    +0.000 N 
ATOM     22  C   UNL     1       5.541   5.672  17.549  0.00  0.00    +0.000 A 
ATOM     23  N   UNL     1       6.114   5.026  16.529  0.00  0.00    +0.000 NA
ATOM     24  N   UNL     1       5.498   3.832  16.518  0.00  0.00    +0.000 N 
ATOM     25  C   UNL     1       4.532   3.685  17.477  0.00  0.00    +0.000 A 
ATOM     26  C   UNL     1       3.687   2.616  17.790  0.00  0.00    +0.000 A 
ATOM     27  C   UNL     1       2.795   2.801  18.855  0.00  0.00    +0.000 A 
ATOM     28  C   UNL     1       2.750   3.999  19.580  0.00  0.00    +0.000 A 
ATOM     29  C   UNL     1       3.626   5.053  19.242  0.00  0.00    +0.000 A 
ATOM     30  C   UNL     1       4.526   4.889  18.169  0.00  0.00    +0.000 A 
ATOM     31  H   UNL     1       5.158   7.489  18.401  0.00  0.00    +0.000 HD
ATOM     32  H   UNL     1       5.785   3.152  15.824  0.00  0.00    +0.000 HD
BRANCH  28  33
ATOM     33  C   UNL     1       1.779   4.183  20.723  0.00  0.00    +0.000 C 
ATOM     34  F   UNL     1       2.360   4.099  21.952  0.00  0.00    +0.000 F 
ATOM     35  F   UNL     1       1.155   5.394  20.689  0.00  0.00    +0.000 F 
ATOM     36  F   UNL     1       0.786   3.251  20.716  0.00  0.00    +0.000 F 
ENDBRANCH  28  33
ENDBRANCH  20  21
ENDBRANCH   2  20
TORSDOF 8
ENDMDL
MODEL 8
REMARK VINA RESULT:      -7.8      4.825     12.076
REMARK  Name = 
REMARK  9 active torsions:
REMARK  status: ('A' for Active; 'I' for Inactive)
REMARK    1  A    between atoms: C_1  and  C_2
REMARK    2  A    between atoms: C_2  and  O_3
REMARK    3  A    between atoms: O_3  and  C_4
REMARK    4  A    between atoms: C_4  and  C_6
REMARK    5  A    between atoms: C_9  and  N_10
REMARK    6  A    between atoms: C_12  and  N_13
REMARK    7  A    between atoms: C_14  and  C_16
REMARK    8  A    between atoms: C_16  and  N_17
REMARK    9  A    between atoms: C_24  and  C_25
REMARK                            x       y       z     vdW  Elec       q    Type
REMARK                         _______ _______ _______ _____ _____    ______ ____
ROOT
ATOM      1  N   UNL     1       0.861  10.656  20.763  0.00  0.00    +0.000 N 
ATOM      2  C   UNL     1       0.908   9.596  19.881  0.00  0.00    +0.000 C 
ATOM      3  O   UNL     1       0.528   9.677  18.710  0.00  0.00    +0.000 OA
ATOM      4  H   UNL     1       1.430  10.558  21.608  0.00  0.00    +0.000 HD
ENDROOT
BRANCH   1   7
ATOM      5  N   UNL     1      -1.177  12.830  21.518  0.00  0.00    +0.000 NA
ATOM      6  C   UNL     1      -1.123  12.171  20.188  0.00  0.00    +0.000 C 
ATOM      7  C   UNL     1       0.395  11.998  20.332  0.00  0.00    +0.000 C 
ATOM      8  C   UNL     1       0.293  13.057  21.448  0.00  0.00    +0.000 C 
BRANCH   5  12
ATOM      9  C   UNL     1      -4.259  13.637  23.289  0.00  0.00    +0.000 C 
ATOM     10  C   UNL     1      -2.869  14.003  23.825  0.00  0.00    +0.000 C 
ATOM     11  C   UNL     1      -2.027  14.792  22.821  0.00  0.00    +0.000 C 
ATOM     12  C   UNL     1      -1.916  14.111  21.441  0.00  0.00    +0.000 C 
ATOM     13  C   UNL     1      -3.354  13.918  20.917  0.00  0.00    +0.000 C 
ATOM     14  C   UNL     1      -4.230  13.097  21.853  0.00  0.00    +0.000 C 
BRANCH   9  15
ATOM     15  C   UNL     1      -4.914  12.576  24.160  0.00  0.00    +0.000 C 
ATOM     16  O   UNL     1      -4.337  11.887  24.991  0.00  0.00    +0.000 OA
BRANCH  15  17
ATOM     17  O   UNL     1      -6.219  12.424  23.787  0.00  0.00    +0.000 OA
BRANCH  17  19
ATOM     18  C   UNL     1      -7.913  13.749  22.741  0.00  0.00    +0.000 C 
ATOM     19  C   UNL     1      -7.051  13.577  23.980  0.00  0.00    +0.000 C 
ENDBRANCH  17  19
ENDBRANCH  15  17
ENDBRANCH   9  15
ENDBRANCH   5  12
ENDBRANCH   1   7
BRANCH   2  20
ATOM     20  C   UNL     1       1.505   8.309  20.441  0.00  0.00    +0.000 C 
BRANCH  20  21
ATOM     21  N   UNL     1       2.263   7.606  19.413  0.00  0.00    +0.000 N 
ATOM     22  C   UNL     1       2.490   6.279  19.521  0.00  0.00    +0.000 A 
ATOM     23  N   UNL     1       2.027   5.499  20.502  0.00  0.00    +0.000 NA
ATOM     24  N   UNL     1       2.466   4.273  20.173  0.00  0.00    +0.000 N 
ATOM     25  C   UNL     1       3.215   4.229  19.028  0.00  0.00    +0.000 A 
ATOM     26  C   UNL     1       3.837   3.168  18.363  0.00  0.00    +0.000 A 
ATOM     27  C   UNL     1       4.540   3.476  17.191  0.00  0.00    +0.000 A 
ATOM     28  C   UNL     1       4.617   4.786  16.699  0.00  0.00    +0.000 A 
ATOM     29  C   UNL     1       3.967   5.831  17.393  0.00  0.00    +0.000 A 
ATOM     30  C   UNL     1       3.260   5.542  18.578  0.00  0.00    +0.000 A 
ATOM     31  H   UNL     1       2.958   8.185  18.951  0.00  0.00    +0.000 HD
ATOM     32  H   UNL     1       2.219   3.498  20.777  0.00  0.00    +0.000 HD
BRANCH  28  33
ATOM     33  C   UNL     1       5.382   5.102  15.436  0.00  0.00    +0.000 C 
ATOM     34  F   UNL     1       5.154   6.356  14.957  0.00  0.00    +0.000 F 
ATOM     35  F   UNL     1       6.731   5.008  15.605  0.00  0.00    +0.000 F 
ATOM     36  F   UNL     1       5.075   4.253  14.416  0.00  0.00    +0.000 F 
ENDBRANCH  28  33
ENDBRANCH  20  21
ENDBRANCH   2  20
TORSDOF 8
ENDMDL
MODEL 9
REMARK VINA RESULT:      -7.7      3.193      4.108
REMARK  Name = 
REMARK  9 active torsions:
REMARK  status: ('A' for Active; 'I' for Inactive)
REMARK    1  A    between atoms: C_1  and  C_2
REMARK    2  A    between atoms: C_2  and  O_3
REMARK    3  A    between atoms: O_3  and  C_4
REMARK    4  A    between atoms: C_4  and  C_6
REMARK    5  A    between atoms: C_9  and  N_10
REMARK    6  A    between atoms: C_12  and  N_13
REMARK    7  A    between atoms: C_14  and  C_16
REMARK    8  A    between atoms: C_16  and  N_17
REMARK    9  A    between atoms: C_24  and  C_25
REMARK                            x       y       z     vdW  Elec       q    Type
REMARK                         _______ _______ _______ _____ _____    ______ ____
ROOT
ATOM      1  N   UNL     1       1.825   7.557  20.797  0.00  0.00    +0.000 N 
ATOM      2  C   UNL     1       0.805   8.221  21.445  0.00  0.00    +0.000 C 
ATOM      3  O   UNL     1      -0.331   7.754  21.569  0.00  0.00    +0.000 OA
ATOM      4  H   UNL     1       2.770   7.907  20.978  0.00  0.00    +0.000 HD
ENDROOT
BRANCH   1   7
ATOM      5  N   UNL     1       3.380   5.302  19.400  0.00  0.00    +0.000 NA
ATOM      6  C   UNL     1       2.171   5.951  18.831  0.00  0.00    +0.000 C 
ATOM      7  C   UNL     1       1.630   6.192  20.247  0.00  0.00    +0.000 C 
ATOM      8  C   UNL     1       2.664   5.140  20.696  0.00  0.00    +0.000 C 
BRANCH   5  12
ATOM      9  C   UNL     1       6.044   4.534  17.033  0.00  0.00    +0.000 C 
ATOM     10  C   UNL     1       6.168   4.279  18.540  0.00  0.00    +0.000 C 
ATOM     11  C   UNL     1       5.023   3.436  19.104  0.00  0.00    +0.000 C 
ATOM     12  C   UNL     1       3.625   3.989  18.761  0.00  0.00    +0.000 C 
ATOM     13  C   UNL     1       3.538   4.071  17.222  0.00  0.00    +0.000 C 
ATOM     14  C   UNL     1       4.627   4.939  16.605  0.00  0.00    +0.000 C 
BRANCH   9  15
ATOM     15  C   UNL     1       6.986   5.642  16.590  0.00  0.00    +0.000 C 
ATOM     16  O   UNL     1       7.486   5.743  15.478  0.00  0.00    +0.000 OA
BRANCH  15  17
ATOM     17  O   UNL     1       7.287   6.437  17.658  0.00  0.00    +0.000 OA
BRANCH  17  19
ATOM     18  C   UNL     1       8.235   8.602  18.030  0.00  0.00    +0.000 C 
ATOM     19  C   UNL     1       7.048   7.840  17.466  0.00  0.00    +0.000 C 
ENDBRANCH  17  19
ENDBRANCH  15  17
ENDBRANCH   9  15
ENDBRANCH   5  12
ENDBRANCH   1   7
BRANCH   2  20
ATOM     20  C   UNL     1       1.184   9.571  22.045  0.00  0.00    +0.000 C 
BRANCH  20  21
ATOM     21  N   UNL     1      -0.007  10.295  22.472  0.00  0.00    +0.000 N 
ATOM     22  C   UNL     1      -0.669  11.092  21.605  0.00  0.00    +0.000 A 
ATOM     23  N   UNL     1      -0.350  11.254  20.317  0.00  0.00    +0.000 NA
ATOM     24  N   UNL     1      -1.295  12.089  19.855  0.00  0.00    +0.000 N 
ATOM     25  C   UNL     1      -2.202  12.494  20.797  0.00  0.00    +0.000 A 
ATOM     26  C   UNL     1      -3.313  13.338  20.716  0.00  0.00    +0.000 A 
ATOM     27  C   UNL     1      -4.043  13.545  21.895  0.00  0.00    +0.000 A 
ATOM     28  C   UNL     1      -3.683  12.931  23.102  0.00  0.00    +0.000 A 
ATOM     29  C   UNL     1      -2.560  12.076  23.143  0.00  0.00    +0.000 A 
ATOM     30  C   UNL     1      -1.809  11.861  21.969  0.00  0.00    +0.000 A 
ATOM     31  H   UNL     1      -0.003  10.543  23.457  0.00  0.00    +0.000 HD
ATOM     32  H   UNL     1      -1.266  12.350  18.876  0.00  0.00    +0.000 HD
BRANCH  28  33
ATOM     33  C   UNL     1      -4.479  13.167  24.365  0.00  0.00    +0.000 C 
ATOM     34  F   UNL     1      -5.702  13.724  24.144  0.00  0.00    +0.000 F 
ATOM     35  F   UNL     1      -4.713  12.018  25.058  0.00  0.00    +0.000 F 
ATOM     36  F   UNL     1      -3.842  14.002  25.232  0.00  0.00    +0.000 F 
ENDBRANCH  28  33
ENDBRANCH  20  21
ENDBRANCH   2  20
TORSDOF 8
ENDMDL
