MODEL 1
REMARK VINA RESULT:      -7.3      0.000      0.000
REMARK  Name = 
REMARK  13 active torsions:
REMARK  status: ('A' for Active; 'I' for Inactive)
REMARK    1  A    between atoms: C_1  and  C_2
REMARK    2  A    between atoms: C_2  and  N_3
REMARK    3  A    between atoms: N_3  and  C_4
REMARK    4  A    between atoms: N_3  and  C_5
REMARK    5  A    between atoms: C_5  and  C_6
REMARK    6  A    between atoms: C_6  and  C_7
REMARK    7  A    between atoms: C_7  and  C_9
REMARK    8  A    between atoms: C_12  and  O_13
REMARK    9  A    between atoms: O_13  and  C_14
REMARK   10  A    between atoms: C_18  and  O_19
REMARK   11  A    between atoms: O_19  and  C_20
REMARK   12  A    between atoms: C_21  and  O_22
REMARK   13  A    between atoms: O_22  and  C_23
REMARK                            x       y       z     vdW  Elec       q    Type
REMARK                         _______ _______ _______ _____ _____    ______ ____
ROOT
ATOM      1  O   UNL     1       1.701   8.355  21.283  0.00  0.00    +0.000 OA
ENDROOT
BRANCH   1   2
ATOM      2  C   UNL     1       0.378   8.854  21.449  0.00  0.00    +0.000 C 
ATOM      3  C   UNL     1       0.129   9.795  20.242  0.00  0.00    +0.000 C 
ATOM      4  C   UNL     1      -0.268  11.098  20.859  0.00  0.00    +0.000 A 
ATOM      5  C   UNL     1      -0.121  12.376  20.359  0.00  0.00    +0.000 A 
ATOM      6  C   UNL     1      -0.571  13.457  21.136  0.00  0.00    +0.000 A 
ATOM      7  C   UNL     1      -1.324  13.229  22.316  0.00  0.00    +0.000 A 
ATOM      8  C   UNL     1      -1.346  11.950  22.873  0.00  0.00    +0.000 A 
ATOM      9  C   UNL     1      -0.705  10.945  22.160  0.00  0.00    +0.000 A 
ATOM     10  C   UNL     1       0.006   9.760  22.647  0.00  0.00    +0.000 C 
ATOM     11  O   UNL     1       0.378   9.666  23.805  0.00  0.00    +0.000 OA
BRANCH   6  12
ATOM     12  O   UNL     1      -0.285  14.771  20.862  0.00  0.00    +0.000 OA
ATOM     13  C   UNL     1      -0.759  15.287  19.626  0.00  0.00    +0.000 C 
ENDBRANCH   6  12
BRANCH   7  14
ATOM     14  O   UNL     1      -1.854  14.336  22.928  0.00  0.00    +0.000 OA
ATOM     15  C   UNL     1      -1.465  14.568  24.278  0.00  0.00    +0.000 C 
ENDBRANCH   7  14
ENDBRANCH   1   2
BRANCH   1  19
ATOM     16  C   UNL     1       2.435   5.286  18.559  0.00  0.00    +0.000 A 
ATOM     17  C   UNL     1       2.649   6.624  18.197  0.00  0.00    +0.000 A 
ATOM     18  C   UNL     1       2.357   7.649  19.105  0.00  0.00    +0.000 A 
ATOM     19  C   UNL     1       1.833   7.351  20.366  0.00  0.00    +0.000 A 
ATOM     20  C   UNL     1       1.601   6.026  20.718  0.00  0.00    +0.000 A 
ATOM     21  C   UNL     1       1.896   4.998  19.812  0.00  0.00    +0.000 A 
BRANCH  16  22
ATOM     22  C   UNL     1       2.791   4.116  17.674  0.00  0.00    +0.000 C 
ATOM     23  O   UNL     1       1.898   3.448  17.155  0.00  0.00    +0.000 OA
BRANCH  22  24
ATOM     24  C   UNL     1       4.252   3.830  17.432  0.00  0.00    +0.000 C 
BRANCH  24  25
ATOM     25  C   UNL     1       5.122   4.137  18.656  0.00  0.00    +0.000 C 
BRANCH  25  26
ATOM     26  N   UNL     1       6.481   4.634  18.312  0.00  0.00    +0.000 NA
ATOM     27  C   UNL     1       7.026   5.484  19.374  0.00  0.00    +0.000 C 
BRANCH  26  29
ATOM     28  C   UNL     1       6.211   6.868  17.175  0.00  0.00    +0.000 C 
ATOM     29  C   UNL     1       6.413   5.362  17.027  0.00  0.00    +0.000 C 
ENDBRANCH  26  29
ENDBRANCH  25  26
ENDBRANCH  24  25
ENDBRANCH  22  24
ENDBRANCH  16  22
ENDBRANCH   1  19
TORSDOF 9
ENDMDL
MODEL 2
REMARK VINA RESULT:      -7.2      0.872      1.147
REMARK  Name = 
REMARK  13 active torsions:
REMARK  status: ('A' for Active; 'I' for Inactive)
REMARK    1  A    between atoms: C_1  and  C_2
REMARK    2  A    between atoms: C_2  and  N_3
REMARK    3  A    between atoms: N_3  and  C_4
REMARK    4  A    between atoms: N_3  and  C_5
REMARK    5  A    between atoms: C_5  and  C_6
REMARK    6  A    between atoms: C_6  and  C_7
REMARK    7  A    between atoms: C_7  and  C_9
REMARK    8  A    between atoms: C_12  and  O_13
REMARK    9  A    between atoms: O_13  and  C_14
REMARK   10  A    between atoms: C_18  and  O_19
REMARK   11  A    between atoms: O_19  and  C_20
REMARK   12  A    between atoms: C_21  and  O_22
REMARK   13  A    between atoms: O_22  and  C_23
REMARK                            x       y       z     vdW  Elec       q    Type
REMARK                         _______ _______ _______ _____ _____    ______ ____
ROOT
ATOM      1  O   UNL     1       1.617   8.466  21.195  0.00  0.00    +0.000 OA
ENDROOT
BRANCH   1   2
ATOM      2  C   UNL     1       0.281   8.807  21.546  0.00  0.00    +0.000 C 
ATOM      3  C   UNL     1      -0.235   9.716  20.400  0.00  0.00    +0.000 C 
ATOM      4  C   UNL     1      -0.691  10.963  21.086  0.00  0.00    +0.000 A 
ATOM      5  C   UNL     1      -0.761  12.250  20.594  0.00  0.00    +0.000 A 
ATOM      6  C   UNL     1      -1.222  13.271  21.443  0.00  0.00    +0.000 A 
ATOM      7  C   UNL     1      -1.777  12.955  22.709  0.00  0.00    +0.000 A 
ATOM      8  C   UNL     1      -1.578  11.681  23.241  0.00  0.00    +0.000 A 
ATOM      9  C   UNL     1      -0.928  10.759  22.432  0.00  0.00    +0.000 A 
ATOM     10  C   UNL     1      -0.027   9.663  22.798  0.00  0.00    +0.000 C 
ATOM     11  O   UNL     1       0.507   9.610  23.894  0.00  0.00    +0.000 OA
BRANCH   6  12
ATOM     12  O   UNL     1      -1.128  14.609  21.155  0.00  0.00    +0.000 OA
ATOM     13  C   UNL     1       0.076  15.053  20.545  0.00  0.00    +0.000 C 
ENDBRANCH   6  12
BRANCH   7  14
ATOM     14  O   UNL     1      -2.343  13.992  23.406  0.00  0.00    +0.000 OA
ATOM     15  C   UNL     1      -3.423  13.664  24.274  0.00  0.00    +0.000 C 
ENDBRANCH   7  14
ENDBRANCH   1   2
BRANCH   1  19
ATOM     16  C   UNL     1       2.328   5.237  18.656  0.00  0.00    +0.000 A 
ATOM     17  C   UNL     1       2.544   6.550  18.214  0.00  0.00    +0.000 A 
ATOM     18  C   UNL     1       2.259   7.628  19.060  0.00  0.00    +0.000 A 
ATOM     19  C   UNL     1       1.742   7.408  20.339  0.00  0.00    +0.000 A 
ATOM     20  C   UNL     1       1.509   6.108  20.772  0.00  0.00    +0.000 A 
ATOM     21  C   UNL     1       1.797   5.026  19.927  0.00  0.00    +0.000 A 
BRANCH  16  22
ATOM     22  C   UNL     1       2.676   4.015  17.841  0.00  0.00    +0.000 C 
ATOM     23  O   UNL     1       1.852   3.548  17.057  0.00  0.00    +0.000 OA
BRANCH  22  24
ATOM     24  C   UNL     1       4.056   3.427  18.000  0.00  0.00    +0.000 C 
BRANCH  24  25
ATOM     25  C   UNL     1       4.973   3.747  16.815  0.00  0.00    +0.000 C 
BRANCH  25  26
ATOM     26  N   UNL     1       5.311   5.190  16.696  0.00  0.00    +0.000 NA
ATOM     27  C   UNL     1       5.744   5.530  15.338  0.00  0.00    +0.000 C 
BRANCH  26  29
ATOM     28  C   UNL     1       7.262   6.679  17.274  0.00  0.00    +0.000 C 
ATOM     29  C   UNL     1       6.357   5.521  17.687  0.00  0.00    +0.000 C 
ENDBRANCH  26  29
ENDBRANCH  25  26
ENDBRANCH  24  25
ENDBRANCH  22  24
ENDBRANCH  16  22
ENDBRANCH   1  19
TORSDOF 9
ENDMDL
MODEL 3
REMARK VINA RESULT:      -7.2      0.960      1.475
REMARK  Name = 
REMARK  13 active torsions:
REMARK  status: ('A' for Active; 'I' for Inactive)
REMARK    1  A    between atoms: C_1  and  C_2
REMARK    2  A    between atoms: C_2  and  N_3
REMARK    3  A    between atoms: N_3  and  C_4
REMARK    4  A    between atoms: N_3  and  C_5
REMARK    5  A    between atoms: C_5  and  C_6
REMARK    6  A    between atoms: C_6  and  C_7
REMARK    7  A    between atoms: C_7  and  C_9
REMARK    8  A    between atoms: C_12  and  O_13
REMARK    9  A    between atoms: O_13  and  C_14
REMARK   10  A    between atoms: C_18  and  O_19
REMARK   11  A    between atoms: O_19  and  C_20
REMARK   12  A    between atoms: C_21  and  O_22
REMARK   13  A    between atoms: O_22  and  C_23
REMARK                            x       y       z     vdW  Elec       q    Type
REMARK                         _______ _______ _______ _____ _____    ______ ____
ROOT
ATOM      1  O   UNL     1       1.757   8.629  20.930  0.00  0.00    +0.000 OA
ENDROOT
BRANCH   1   2
ATOM      2  C   UNL     1       0.411   8.840  21.341  0.00  0.00    +0.000 C 
ATOM      3  C   UNL     1      -0.230   9.727  20.242  0.00  0.00    +0.000 C 
ATOM      4  C   UNL     1      -0.766  10.910  20.981  0.00  0.00    +0.000 A 
ATOM      5  C   UNL     1      -0.970  12.198  20.530  0.00  0.00    +0.000 A 
ATOM      6  C   UNL     1      -1.485  13.151  21.425  0.00  0.00    +0.000 A 
ATOM      7  C   UNL     1      -1.959  12.754  22.701  0.00  0.00    +0.000 A 
ATOM      8  C   UNL     1      -1.625  11.490  23.189  0.00  0.00    +0.000 A 
ATOM      9  C   UNL     1      -0.930  10.651  22.328  0.00  0.00    +0.000 A 
ATOM     10  C   UNL     1       0.080   9.632  22.628  0.00  0.00    +0.000 C 
ATOM     11  O   UNL     1       0.659   9.599  23.701  0.00  0.00    +0.000 OA
BRANCH   6  12
ATOM     12  O   UNL     1      -1.523  14.500  21.173  0.00  0.00    +0.000 OA
ATOM     13  C   UNL     1      -0.599  15.001  20.217  0.00  0.00    +0.000 C 
ENDBRANCH   6  12
BRANCH   7  14
ATOM     14  O   UNL     1      -2.586  13.718  23.449  0.00  0.00    +0.000 OA
ATOM     15  C   UNL     1      -4.006  13.652  23.514  0.00  0.00    +0.000 C 
ENDBRANCH   7  14
ENDBRANCH   1   2
BRANCH   1  19
ATOM     16  C   UNL     1       2.107   5.087  18.759  0.00  0.00    +0.000 A 
ATOM     17  C   UNL     1       1.705   5.061  20.102  0.00  0.00    +0.000 A 
ATOM     18  C   UNL     1       1.634   6.252  20.834  0.00  0.00    +0.000 A 
ATOM     19  C   UNL     1       1.981   7.470  20.242  0.00  0.00    +0.000 A 
ATOM     20  C   UNL     1       2.398   7.495  18.916  0.00  0.00    +0.000 A 
ATOM     21  C   UNL     1       2.467   6.303  18.180  0.00  0.00    +0.000 A 
BRANCH  16  22
ATOM     22  C   UNL     1       2.140   3.864  17.875  0.00  0.00    +0.000 C 
ATOM     23  O   UNL     1       1.231   3.039  17.939  0.00  0.00    +0.000 OA
BRANCH  22  24
ATOM     24  C   UNL     1       3.291   3.718  16.911  0.00  0.00    +0.000 C 
BRANCH  24  25
ATOM     25  C   UNL     1       4.644   3.603  17.622  0.00  0.00    +0.000 C 
BRANCH  25  26
ATOM     26  N   UNL     1       5.632   4.628  17.194  0.00  0.00    +0.000 NA
ATOM     27  C   UNL     1       6.385   4.189  16.016  0.00  0.00    +0.000 C 
BRANCH  26  29
ATOM     28  C   UNL     1       7.401   6.166  18.123  0.00  0.00    +0.000 C 
ATOM     29  C   UNL     1       6.537   4.923  18.325  0.00  0.00    +0.000 C 
ENDBRANCH  26  29
ENDBRANCH  25  26
ENDBRANCH  24  25
ENDBRANCH  22  24
ENDBRANCH  16  22
ENDBRANCH   1  19
TORSDOF 9
ENDMDL
MODEL 4
REMARK VINA RESULT:      -7.2      1.079      1.520
REMARK  Name = 
REMARK  13 active torsions:
REMARK  status: ('A' for Active; 'I' for Inactive)
REMARK    1  A    between atoms: C_1  and  C_2
REMARK    2  A    between atoms: C_2  and  N_3
REMARK    3  A    between atoms: N_3  and  C_4
REMARK    4  A    between atoms: N_3  and  C_5
REMARK    5  A    between atoms: C_5  and  C_6
REMARK    6  A    between atoms: C_6  and  C_7
REMARK    7  A    between atoms: C_7  and  C_9
REMARK    8  A    between atoms: C_12  and  O_13
REMARK    9  A    between atoms: O_13  and  C_14
REMARK   10  A    between atoms: C_18  and  O_19
REMARK   11  A    between atoms: O_19  and  C_20
REMARK   12  A    between atoms: C_21  and  O_22
REMARK   13  A    between atoms: O_22  and  C_23
REMARK                            x       y       z     vdW  Elec       q    Type
REMARK                         _______ _______ _______ _____ _____    ______ ____
ROOT
ATOM      1  O   UNL     1       1.633   9.071  20.620  0.00  0.00    +0.000 OA
ENDROOT
BRANCH   1   2
ATOM      2  C   UNL     1       0.290   9.183  21.081  0.00  0.00    +0.000 C 
ATOM      3  C   UNL     1      -0.397  10.196  20.129  0.00  0.00    +0.000 C 
ATOM      4  C   UNL     1      -0.949  11.248  21.037  0.00  0.00    +0.000 A 
ATOM      5  C   UNL     1      -1.196  12.580  20.775  0.00  0.00    +0.000 A 
ATOM      6  C   UNL     1      -1.717  13.382  21.804  0.00  0.00    +0.000 A 
ATOM      7  C   UNL     1      -2.153  12.796  23.020  0.00  0.00    +0.000 A 
ATOM      8  C   UNL     1      -1.776  11.486  23.318  0.00  0.00    +0.000 A 
ATOM      9  C   UNL     1      -1.077  10.798  22.336  0.00  0.00    +0.000 A 
ATOM     10  C   UNL     1      -0.035   9.776  22.472  0.00  0.00    +0.000 C 
ATOM     11  O   UNL     1       0.568   9.610  23.519  0.00  0.00    +0.000 OA
BRANCH   6  12
ATOM     12  O   UNL     1      -1.796  14.751  21.746  0.00  0.00    +0.000 OA
ATOM     13  C   UNL     1      -2.691  15.303  20.791  0.00  0.00    +0.000 C 
ENDBRANCH   6  12
BRANCH   7  14
ATOM     14  O   UNL     1      -2.789  13.627  23.907  0.00  0.00    +0.000 OA
ATOM     15  C   UNL     1      -4.004  13.147  24.472  0.00  0.00    +0.000 C 
ENDBRANCH   7  14
ENDBRANCH   1   2
BRANCH   1  19
ATOM     16  C   UNL     1       2.256   5.409  18.728  0.00  0.00    +0.000 A 
ATOM     17  C   UNL     1       1.877   5.457  20.077  0.00  0.00    +0.000 A 
ATOM     18  C   UNL     1       1.715   6.693  20.715  0.00  0.00    +0.000 A 
ATOM     19  C   UNL     1       1.945   7.884  20.021  0.00  0.00    +0.000 A 
ATOM     20  C   UNL     1       2.339   7.838  18.688  0.00  0.00    +0.000 A 
ATOM     21  C   UNL     1       2.500   6.601  18.047  0.00  0.00    +0.000 A 
BRANCH  16  22
ATOM     22  C   UNL     1       2.382   4.126  17.943  0.00  0.00    +0.000 C 
ATOM     23  O   UNL     1       1.437   3.732  17.261  0.00  0.00    +0.000 OA
BRANCH  22  24
ATOM     24  C   UNL     1       3.695   3.386  18.002  0.00  0.00    +0.000 C 
BRANCH  24  25
ATOM     25  C   UNL     1       4.763   4.009  17.096  0.00  0.00    +0.000 C 
BRANCH  25  26
ATOM     26  N   UNL     1       6.058   4.254  17.783  0.00  0.00    +0.000 NA
ATOM     27  C   UNL     1       5.905   5.189  18.900  0.00  0.00    +0.000 C 
BRANCH  26  29
ATOM     28  C   UNL     1       6.691   4.417  15.348  0.00  0.00    +0.000 C 
ATOM     29  C   UNL     1       7.037   4.758  16.795  0.00  0.00    +0.000 C 
ENDBRANCH  26  29
ENDBRANCH  25  26
ENDBRANCH  24  25
ENDBRANCH  22  24
ENDBRANCH  16  22
ENDBRANCH   1  19
TORSDOF 9
ENDMDL
MODEL 5
REMARK VINA RESULT:      -7.1      3.220      9.368
REMARK  Name = 
REMARK  13 active torsions:
REMARK  status: ('A' for Active; 'I' for Inactive)
REMARK    1  A    between atoms: C_1  and  C_2
REMARK    2  A    between atoms: C_2  and  N_3
REMARK    3  A    between atoms: N_3  and  C_4
REMARK    4  A    between atoms: N_3  and  C_5
REMARK    5  A    between atoms: C_5  and  C_6
REMARK    6  A    between atoms: C_6  and  C_7
REMARK    7  A    between atoms: C_7  and  C_9
REMARK    8  A    between atoms: C_12  and  O_13
REMARK    9  A    between atoms: O_13  and  C_14
REMARK   10  A    between atoms: C_18  and  O_19
REMARK   11  A    between atoms: O_19  and  C_20
REMARK   12  A    between atoms: C_21  and  O_22
REMARK   13  A    between atoms: O_22  and  C_23
REMARK                            x       y       z     vdW  Elec       q    Type
REMARK                         _______ _______ _______ _____ _____    ______ ____
ROOT
ATOM      1  O   UNL     1       2.440   4.075  19.499  0.00  0.00    +0.000 OA
ENDROOT
BRANCH   1   2
ATOM      2  C   UNL     1       3.624   3.492  18.966  0.00  0.00    +0.000 C 
ATOM      3  C   UNL     1       4.799   4.312  19.559  0.00  0.00    +0.000 C 
ATOM      4  C   UNL     1       5.570   4.780  18.366  0.00  0.00    +0.000 A 
ATOM      5  C   UNL     1       6.363   5.900  18.228  0.00  0.00    +0.000 A 
ATOM      6  C   UNL     1       6.987   6.135  16.991  0.00  0.00    +0.000 A 
ATOM      7  C   UNL     1       6.954   5.148  15.973  0.00  0.00    +0.000 A 
ATOM      8  C   UNL     1       6.047   4.093  16.075  0.00  0.00    +0.000 A 
ATOM      9  C   UNL     1       5.299   4.023  17.243  0.00  0.00    +0.000 A 
ATOM     10  C   UNL     1       3.930   3.541  17.449  0.00  0.00    +0.000 C 
ATOM     11  O   UNL     1       3.151   3.403  16.521  0.00  0.00    +0.000 OA
BRANCH   6  12
ATOM     12  O   UNL     1       7.610   7.311  16.655  0.00  0.00    +0.000 OA
ATOM     13  C   UNL     1       7.860   8.229  17.710  0.00  0.00    +0.000 C 
ENDBRANCH   6  12
BRANCH   7  14
ATOM     14  O   UNL     1       7.717   5.392  14.858  0.00  0.00    +0.000 OA
ATOM     15  C   UNL     1       7.280   4.794  13.643  0.00  0.00    +0.000 C 
ENDBRANCH   7  14
ENDBRANCH   1   2
BRANCH   1  19
ATOM     16  C   UNL     1       1.870   8.182  19.071  0.00  0.00    +0.000 A 
ATOM     17  C   UNL     1       2.163   7.385  17.955  0.00  0.00    +0.000 A 
ATOM     18  C   UNL     1       2.396   6.014  18.118  0.00  0.00    +0.000 A 
ATOM     19  C   UNL     1       2.360   5.434  19.388  0.00  0.00    +0.000 A 
ATOM     20  C   UNL     1       2.089   6.227  20.498  0.00  0.00    +0.000 A 
ATOM     21  C   UNL     1       1.852   7.600  20.338  0.00  0.00    +0.000 A 
BRANCH  16  22
ATOM     22  C   UNL     1       1.532   9.651  18.981  0.00  0.00    +0.000 C 
ATOM     23  O   UNL     1       1.911  10.306  18.012  0.00  0.00    +0.000 OA
BRANCH  22  24
ATOM     24  C   UNL     1       0.702  10.255  20.086  0.00  0.00    +0.000 C 
BRANCH  24  25
ATOM     25  C   UNL     1      -0.670  10.733  19.597  0.00  0.00    +0.000 C 
BRANCH  25  26
ATOM     26  N   UNL     1      -1.307  11.733  20.494  0.00  0.00    +0.000 NA
ATOM     27  C   UNL     1      -1.298  13.072  19.899  0.00  0.00    +0.000 C 
BRANCH  26  29
ATOM     28  C   UNL     1      -1.532  11.538  22.998  0.00  0.00    +0.000 C 
ATOM     29  C   UNL     1      -0.608  11.723  21.797  0.00  0.00    +0.000 C 
ENDBRANCH  26  29
ENDBRANCH  25  26
ENDBRANCH  24  25
ENDBRANCH  22  24
ENDBRANCH  16  22
ENDBRANCH   1  19
TORSDOF 9
ENDMDL
MODEL 6
REMARK VINA RESULT:      -7.1      3.757      9.290
REMARK  Name = 
REMARK  13 active torsions:
REMARK  status: ('A' for Active; 'I' for Inactive)
REMARK    1  A    between atoms: C_1  and  C_2
REMARK    2  A    between atoms: C_2  and  N_3
REMARK    3  A    between atoms: N_3  and  C_4
REMARK    4  A    between atoms: N_3  and  C_5
REMARK    5  A    between atoms: C_5  and  C_6
REMARK    6  A    between atoms: C_6  and  C_7
REMARK    7  A    between atoms: C_7  and  C_9
REMARK    8  A    between atoms: C_12  and  O_13
REMARK    9  A    between atoms: O_13  and  C_14
REMARK   10  A    between atoms: C_18  and  O_19
REMARK   11  A    between atoms: O_19  and  C_20
REMARK   12  A    between atoms: C_21  and  O_22
REMARK   13  A    between atoms: O_22  and  C_23
REMARK                            x       y       z     vdW  Elec       q    Type
REMARK                         _______ _______ _______ _____ _____    ______ ____
ROOT
ATOM      1  O   UNL     1       2.179   4.499  19.608  0.00  0.00    +0.000 OA
ENDROOT
BRANCH   1   2
ATOM      2  C   UNL     1       3.342   3.792  19.192  0.00  0.00    +0.000 C 
ATOM      3  C   UNL     1       4.545   4.605  19.739  0.00  0.00    +0.000 C 
ATOM      4  C   UNL     1       5.384   4.890  18.534  0.00  0.00    +0.000 A 
ATOM      5  C   UNL     1       6.249   5.940  18.306  0.00  0.00    +0.000 A 
ATOM      6  C   UNL     1       6.929   5.996  17.078  0.00  0.00    +0.000 A 
ATOM      7  C   UNL     1       6.870   4.904  16.175  0.00  0.00    +0.000 A 
ATOM      8  C   UNL     1       5.896   3.922  16.356  0.00  0.00    +0.000 A 
ATOM      9  C   UNL     1       5.105   4.027  17.492  0.00  0.00    +0.000 A 
ATOM     10  C   UNL     1       3.704   3.652  17.694  0.00  0.00    +0.000 C 
ATOM     11  O   UNL     1       2.950   3.454  16.755  0.00  0.00    +0.000 OA
BRANCH   6  12
ATOM     12  O   UNL     1       7.634   7.089  16.640  0.00  0.00    +0.000 OA
ATOM     13  C   UNL     1       7.759   8.178  17.544  0.00  0.00    +0.000 C 
ENDBRANCH   6  12
BRANCH   7  14
ATOM     14  O   UNL     1       7.685   4.977  15.073  0.00  0.00    +0.000 OA
ATOM     15  C   UNL     1       7.064   4.786  13.807  0.00  0.00    +0.000 C 
ENDBRANCH   7  14
ENDBRANCH   1   2
BRANCH   1  19
ATOM     16  C   UNL     1       1.909   8.573  18.767  0.00  0.00    +0.000 A 
ATOM     17  C   UNL     1       2.183   7.653  17.745  0.00  0.00    +0.000 A 
ATOM     18  C   UNL     1       2.316   6.292  18.047  0.00  0.00    +0.000 A 
ATOM     19  C   UNL     1       2.196   5.843  19.365  0.00  0.00    +0.000 A 
ATOM     20  C   UNL     1       1.944   6.757  20.382  0.00  0.00    +0.000 A 
ATOM     21  C   UNL     1       1.807   8.120  20.082  0.00  0.00    +0.000 A 
BRANCH  16  22
ATOM     22  C   UNL     1       1.676  10.044  18.523  0.00  0.00    +0.000 C 
ATOM     23  O   UNL     1       2.288  10.619  17.624  0.00  0.00    +0.000 OA
BRANCH  22  24
ATOM     24  C   UNL     1       0.662  10.753  19.385  0.00  0.00    +0.000 C 
BRANCH  24  25
ATOM     25  C   UNL     1      -0.451  11.414  18.564  0.00  0.00    +0.000 C 
BRANCH  25  26
ATOM     26  N   UNL     1      -1.682  10.588  18.455  0.00  0.00    +0.000 NA
ATOM     27  C   UNL     1      -1.711   9.828  17.203  0.00  0.00    +0.000 C 
BRANCH  26  29
ATOM     28  C   UNL     1      -3.739  11.505  17.320  0.00  0.00    +0.000 C 
ATOM     29  C   UNL     1      -2.863  11.472  18.570  0.00  0.00    +0.000 C 
ENDBRANCH  26  29
ENDBRANCH  25  26
ENDBRANCH  24  25
ENDBRANCH  22  24
ENDBRANCH  16  22
ENDBRANCH   1  19
TORSDOF 9
ENDMDL
MODEL 7
REMARK VINA RESULT:      -7.0      1.922      2.831
REMARK  Name = 
REMARK  13 active torsions:
REMARK  status: ('A' for Active; 'I' for Inactive)
REMARK    1  A    between atoms: C_1  and  C_2
REMARK    2  A    between atoms: C_2  and  N_3
REMARK    3  A    between atoms: N_3  and  C_4
REMARK    4  A    between atoms: N_3  and  C_5
REMARK    5  A    between atoms: C_5  and  C_6
REMARK    6  A    between atoms: C_6  and  C_7
REMARK    7  A    between atoms: C_7  and  C_9
REMARK    8  A    between atoms: C_12  and  O_13
REMARK    9  A    between atoms: O_13  and  C_14
REMARK   10  A    between atoms: C_18  and  O_19
REMARK   11  A    between atoms: O_19  and  C_20
REMARK   12  A    between atoms: C_21  and  O_22
REMARK   13  A    between atoms: O_22  and  C_23
REMARK                            x       y       z     vdW  Elec       q    Type
REMARK                         _______ _______ _______ _____ _____    ______ ____
ROOT
ATOM      1  O   UNL     1       1.403   9.635  19.157  0.00  0.00    +0.000 OA
ENDROOT
BRANCH   1   2
ATOM      2  C   UNL     1       0.316   9.561  20.073  0.00  0.00    +0.000 C 
ATOM      3  C   UNL     1      -0.841  10.360  19.417  0.00  0.00    +0.000 C 
ATOM      4  C   UNL     1      -1.220  11.379  20.443  0.00  0.00    +0.000 A 
ATOM      5  C   UNL     1      -1.789  12.624  20.262  0.00  0.00    +0.000 A 
ATOM      6  C   UNL     1      -2.050  13.414  21.394  0.00  0.00    +0.000 A 
ATOM      7  C   UNL     1      -1.908  12.871  22.697  0.00  0.00    +0.000 A 
ATOM      8  C   UNL     1      -1.213  11.673  22.863  0.00  0.00    +0.000 A 
ATOM      9  C   UNL     1      -0.792  11.028  21.708  0.00  0.00    +0.000 A 
ATOM     10  C   UNL     1       0.402  10.211  21.475  0.00  0.00    +0.000 C 
ATOM     11  O   UNL     1       1.357  10.239  22.233  0.00  0.00    +0.000 OA
BRANCH   6  12
ATOM     12  O   UNL     1      -2.399  14.740  21.341  0.00  0.00    +0.000 OA
ATOM     13  C   UNL     1      -1.500  15.614  20.672  0.00  0.00    +0.000 C 
ENDBRANCH   6  12
BRANCH   7  14
ATOM     14  O   UNL     1      -2.332  13.658  23.738  0.00  0.00    +0.000 OA
ATOM     15  C   UNL     1      -3.608  13.354  24.289  0.00  0.00    +0.000 C 
ENDBRANCH   7  14
ENDBRANCH   1   2
BRANCH   1  19
ATOM     16  C   UNL     1       3.594   6.156  18.469  0.00  0.00    +0.000 A 
ATOM     17  C   UNL     1       3.567   7.180  17.511  0.00  0.00    +0.000 A 
ATOM     18  C   UNL     1       2.792   8.325  17.733  0.00  0.00    +0.000 A 
ATOM     19  C   UNL     1       2.027   8.448  18.896  0.00  0.00    +0.000 A 
ATOM     20  C   UNL     1       2.037   7.425  19.838  0.00  0.00    +0.000 A 
ATOM     21  C   UNL     1       2.815   6.278  19.618  0.00  0.00    +0.000 A 
BRANCH  16  22
ATOM     22  C   UNL     1       4.456   4.923  18.346  0.00  0.00    +0.000 C 
ATOM     23  O   UNL     1       5.626   4.956  18.726  0.00  0.00    +0.000 OA
BRANCH  22  24
ATOM     24  C   UNL     1       3.828   3.672  17.785  0.00  0.00    +0.000 C 
BRANCH  24  25
ATOM     25  C   UNL     1       3.815   2.517  18.793  0.00  0.00    +0.000 C 
BRANCH  25  26
ATOM     26  N   UNL     1       2.449   2.121  19.227  0.00  0.00    +0.000 NA
ATOM     27  C   UNL     1       1.419   2.741  18.391  0.00  0.00    +0.000 C 
BRANCH  26  29
ATOM     28  C   UNL     1       1.139   3.475  20.902  0.00  0.00    +0.000 C 
ATOM     29  C   UNL     1       2.274   2.486  20.649  0.00  0.00    +0.000 C 
ENDBRANCH  26  29
ENDBRANCH  25  26
ENDBRANCH  24  25
ENDBRANCH  22  24
ENDBRANCH  16  22
ENDBRANCH   1  19
TORSDOF 9
ENDMDL
MODEL 8
REMARK VINA RESULT:      -7.0      3.209      9.184
REMARK  Name = 
REMARK  13 active torsions:
REMARK  status: ('A' for Active; 'I' for Inactive)
REMARK    1  A    between atoms: C_1  and  C_2
REMARK    2  A    between atoms: C_2  and  N_3
REMARK    3  A    between atoms: N_3  and  C_4
REMARK    4  A    between atoms: N_3  and  C_5
REMARK    5  A    between atoms: C_5  and  C_6
REMARK    6  A    between atoms: C_6  and  C_7
REMARK    7  A    between atoms: C_7  and  C_9
REMARK    8  A    between atoms: C_12  and  O_13
REMARK    9  A    between atoms: O_13  and  C_14
REMARK   10  A    between atoms: C_18  and  O_19
REMARK   11  A    between atoms: O_19  and  C_20
REMARK   12  A    between atoms: C_21  and  O_22
REMARK   13  A    between atoms: O_22  and  C_23
REMARK                            x       y       z     vdW  Elec       q    Type
REMARK                         _______ _______ _______ _____ _____    ______ ____
ROOT
ATOM      1  O   UNL     1       2.423   3.766  19.439  0.00  0.00    +0.000 OA
ENDROOT
BRANCH   1   2
ATOM      2  C   UNL     1       3.667   3.302  18.926  0.00  0.00    +0.000 C 
ATOM      3  C   UNL     1       4.747   4.224  19.549  0.00  0.00    +0.000 C 
ATOM      4  C   UNL     1       5.493   4.773  18.375  0.00  0.00    +0.000 A 
ATOM      5  C   UNL     1       6.180   5.965  18.262  0.00  0.00    +0.000 A 
ATOM      6  C   UNL     1       6.803   6.268  17.040  0.00  0.00    +0.000 A 
ATOM      7  C   UNL     1       6.884   5.292  16.014  0.00  0.00    +0.000 A 
ATOM      8  C   UNL     1       6.079   4.155  16.090  0.00  0.00    +0.000 A 
ATOM      9  C   UNL     1       5.318   4.004  17.242  0.00  0.00    +0.000 A 
ATOM     10  C   UNL     1       3.997   3.394  17.417  0.00  0.00    +0.000 C 
ATOM     11  O   UNL     1       3.253   3.191  16.472  0.00  0.00    +0.000 OA
BRANCH   6  12
ATOM     12  O   UNL     1       7.319   7.500  16.725  0.00  0.00    +0.000 OA
ATOM     13  C   UNL     1       7.915   8.237  17.785  0.00  0.00    +0.000 C 
ENDBRANCH   6  12
BRANCH   7  14
ATOM     14  O   UNL     1       7.642   5.617  14.918  0.00  0.00    +0.000 OA
ATOM     15  C   UNL     1       7.340   4.932  13.707  0.00  0.00    +0.000 C 
ENDBRANCH   7  14
ENDBRANCH   1   2
BRANCH   1  19
ATOM     16  C   UNL     1       1.726   7.873  19.589  0.00  0.00    +0.000 A 
ATOM     17  C   UNL     1       2.106   7.260  18.386  0.00  0.00    +0.000 A 
ATOM     18  C   UNL     1       2.380   5.887  18.358  0.00  0.00    +0.000 A 
ATOM     19  C   UNL     1       2.298   5.124  19.525  0.00  0.00    +0.000 A 
ATOM     20  C   UNL     1       1.941   5.734  20.722  0.00  0.00    +0.000 A 
ATOM     21  C   UNL     1       1.662   7.108  20.752  0.00  0.00    +0.000 A 
BRANCH  16  22
ATOM     22  C   UNL     1       1.340   9.328  19.696  0.00  0.00    +0.000 C 
ATOM     23  O   UNL     1       1.277   9.864  20.802  0.00  0.00    +0.000 OA
BRANCH  22  24
ATOM     24  C   UNL     1       1.074  10.087  18.420  0.00  0.00    +0.000 C 
BRANCH  24  25
ATOM     25  C   UNL     1       0.398  11.440  18.669  0.00  0.00    +0.000 C 
BRANCH  25  26
ATOM     26  N   UNL     1      -1.048  11.456  18.322  0.00  0.00    +0.000 NA
ATOM     27  C   UNL     1      -1.882  11.645  19.511  0.00  0.00    +0.000 C 
BRANCH  26  29
ATOM     28  C   UNL     1      -2.887   9.945  17.493  0.00  0.00    +0.000 C 
ATOM     29  C   UNL     1      -1.388  10.197  17.626  0.00  0.00    +0.000 C 
ENDBRANCH  26  29
ENDBRANCH  25  26
ENDBRANCH  24  25
ENDBRANCH  22  24
ENDBRANCH  16  22
ENDBRANCH   1  19
TORSDOF 9
ENDMDL
MODEL 9
REMARK VINA RESULT:      -7.0      2.132      3.700
REMARK  Name = 
REMARK  13 active torsions:
REMARK  status: ('A' for Active; 'I' for Inactive)
REMARK    1  A    between atoms: C_1  and  C_2
REMARK    2  A    between atoms: C_2  and  N_3
REMARK    3  A    between atoms: N_3  and  C_4
REMARK    4  A    between atoms: N_3  and  C_5
REMARK    5  A    between atoms: C_5  and  C_6
REMARK    6  A    between atoms: C_6  and  C_7
REMARK    7  A    between atoms: C_7  and  C_9
REMARK    8  A    between atoms: C_12  and  O_13
REMARK    9  A    between atoms: O_13  and  C_14
REMARK   10  A    between atoms: C_18  and  O_19
REMARK   11  A    between atoms: O_19  and  C_20
REMARK   12  A    between atoms: C_21  and  O_22
REMARK   13  A    between atoms: O_22  and  C_23
REMARK                            x       y       z     vdW  Elec       q    Type
REMARK                         _______ _______ _______ _____ _____    ______ ____
ROOT
ATOM      1  O   UNL     1       0.206   9.890  20.045  0.00  0.00    +0.000 OA
ENDROOT
BRANCH   1   2
ATOM      2  C   UNL     1       0.530  10.762  21.122  0.00  0.00    +0.000 C 
ATOM      3  C   UNL     1      -0.387  10.335  22.298  0.00  0.00    +0.000 C 
ATOM      4  C   UNL     1      -1.106  11.586  22.686  0.00  0.00    +0.000 A 
ATOM      5  C   UNL     1      -2.345  11.729  23.278  0.00  0.00    +0.000 A 
ATOM      6  C   UNL     1      -2.818  13.025  23.543  0.00  0.00    +0.000 A 
ATOM      7  C   UNL     1      -1.966  14.147  23.380  0.00  0.00    +0.000 A 
ATOM      8  C   UNL     1      -0.778  14.002  22.663  0.00  0.00    +0.000 A 
ATOM      9  C   UNL     1      -0.454  12.720  22.241  0.00  0.00    +0.000 A 
ATOM     10  C   UNL     1       0.255  12.282  21.036  0.00  0.00    +0.000 C 
ATOM     11  O   UNL     1       0.402  13.019  20.075  0.00  0.00    +0.000 OA
BRANCH   6  12
ATOM     12  O   UNL     1      -4.108  13.311  23.914  0.00  0.00    +0.000 OA
ATOM     13  C   UNL     1      -4.712  12.440  24.861  0.00  0.00    +0.000 C 
ENDBRANCH   6  12
BRANCH   7  14
ATOM     14  O   UNL     1      -2.456  15.356  23.808  0.00  0.00    +0.000 OA
ATOM     15  C   UNL     1      -2.623  16.363  22.817  0.00  0.00    +0.000 C 
ENDBRANCH   7  14
ENDBRANCH   1   2
BRANCH   1  19
ATOM     16  C   UNL     1       2.869   6.847  19.031  0.00  0.00    +0.000 A 
ATOM     17  C   UNL     1       2.273   6.876  20.300  0.00  0.00    +0.000 A 
ATOM     18  C   UNL     1       1.415   7.928  20.645  0.00  0.00    +0.000 A 
ATOM     19  C   UNL     1       1.161   8.962  19.740  0.00  0.00    +0.000 A 
ATOM     20  C   UNL     1       1.767   8.944  18.489  0.00  0.00    +0.000 A 
ATOM     21  C   UNL     1       2.624   7.891  18.140  0.00  0.00    +0.000 A 
BRANCH  16  22
ATOM     22  C   UNL     1       3.746   5.717  18.548  0.00  0.00    +0.000 C 
ATOM     23  O   UNL     1       4.820   5.497  19.104  0.00  0.00    +0.000 OA
BRANCH  22  24
ATOM     24  C   UNL     1       3.244   4.870  17.406  0.00  0.00    +0.000 C 
BRANCH  24  25
ATOM     25  C   UNL     1       2.079   3.961  17.814  0.00  0.00    +0.000 C 
BRANCH  25  26
ATOM     26  N   UNL     1       2.329   3.197  19.064  0.00  0.00    +0.000 NA
ATOM     27  C   UNL     1       2.762   1.827  18.779  0.00  0.00    +0.000 C 
BRANCH  26  29
ATOM     28  C   UNL     1       1.325   2.829  21.348  0.00  0.00    +0.000 C 
ATOM     29  C   UNL     1       1.099   3.208  19.886  0.00  0.00    +0.000 C 
ENDBRANCH  26  29
ENDBRANCH  25  26
ENDBRANCH  24  25
ENDBRANCH  22  24
ENDBRANCH  16  22
ENDBRANCH   1  19
TORSDOF 9
ENDMDL
