MODEL 1
REMARK VINA RESULT:      -8.1      0.000      0.000
REMARK  Name = 
REMARK  9 active torsions:
REMARK  status: ('A' for Active; 'I' for Inactive)
REMARK    1  A    between atoms: C_1  and  O_2
REMARK    2  A    between atoms: O_2  and  C_3
REMARK    3  A    between atoms: N_8  and  C_9
REMARK    4  A    between atoms: C_9  and  C_10
REMARK    5  A    between atoms: N_17  and  C_18
REMARK    6  A    between atoms: C_18  and  C_19
REMARK    7  A    between atoms: N_21  and  C_22
REMARK    8  A    between atoms: C_31  and  O_32
REMARK    9  A    between atoms: O_32  and  C_33
REMARK                            x       y       z     vdW  Elec       q    Type
REMARK                         _______ _______ _______ _____ _____    ______ ____
ROOT
ATOM      1  C   UNL     1       6.442   5.480  16.315  0.00  0.00    +0.000 A 
ATOM      2  C   UNL     1       5.354   4.605  16.419  0.00  0.00    +0.000 A 
ATOM      3  C   UNL     1       4.190   4.994  17.097  0.00  0.00    +0.000 A 
ATOM      4  C   UNL     1       3.067   4.049  17.267  0.00  0.00    +0.000 A 
ATOM      5  O   UNL     1       3.069   2.996  16.634  0.00  0.00    +0.000 OA
ATOM      6  N   UNL     1       2.087   4.405  18.186  0.00  0.00    +0.000 N 
ATOM      7  C   UNL     1       2.195   5.528  18.987  0.00  0.00    +0.000 A 
ATOM      8  O   UNL     1       1.677   5.620  20.103  0.00  0.00    +0.000 OA
ATOM      9  N   UNL     1       3.000   6.556  18.512  0.00  0.00    +0.000 N 
ATOM     10  C   UNL     1       4.083   6.269  17.640  0.00  0.00    +0.000 A 
ATOM     11  C   UNL     1       5.119   7.186  17.408  0.00  0.00    +0.000 A 
ATOM     12  C   UNL     1       6.319   6.790  16.800  0.00  0.00    +0.000 A 
ENDROOT
BRANCH   1  14
ATOM     13  C   UNL     1       7.391   4.591  14.328  0.00  0.00    +0.000 C 
ATOM     14  O   UNL     1       7.543   4.938  15.702  0.00  0.00    +0.000 OA
ENDBRANCH   1  14
BRANCH  12  15
ATOM     15  O   UNL     1       7.350   7.672  16.615  0.00  0.00    +0.000 OA
ATOM     16  C   UNL     1       7.903   8.242  17.803  0.00  0.00    +0.000 C 
ENDBRANCH  12  15
BRANCH   6  17
ATOM     17  C   UNL     1       1.063   3.407  18.534  0.00  0.00    +0.000 C 
BRANCH  17  18
ATOM     18  C   UNL     1       1.402   2.489  19.728  0.00  0.00    +0.000 C 
ATOM     19  C   UNL     1       0.865   2.933  21.078  0.00  0.00    +0.000 C 
ATOM     20  C   UNL     1       1.840   2.306  22.044  0.00  0.00    +0.000 C 
ATOM     21  C   UNL     1       3.144   2.343  21.279  0.00  0.00    +0.000 C 
ATOM     22  O   UNL     1       2.816   2.301  19.887  0.00  0.00    +0.000 OA
ENDBRANCH  17  18
ENDBRANCH   6  17
BRANCH   9  23
ATOM     23  C   UNL     1       2.852   7.881  19.128  0.00  0.00    +0.000 C 
BRANCH  23  24
ATOM     24  C   UNL     1       1.889   8.832  18.416  0.00  0.00    +0.000 C 
ATOM     25  O   UNL     1       2.097   9.170  17.251  0.00  0.00    +0.000 OA
ATOM     26  N   UNL     1       0.814   9.238  19.182  0.00  0.00    +0.000 N 
ATOM     27  H   UNL     1       0.894   9.086  20.182  0.00  0.00    +0.000 HD
BRANCH  26  28
ATOM     28  C   UNL     1      -0.132  10.175  18.739  0.00  0.00    +0.000 A 
ATOM     29  C   UNL     1      -0.051  11.476  19.247  0.00  0.00    +0.000 A 
ATOM     30  C   UNL     1      -0.938  12.457  18.797  0.00  0.00    +0.000 A 
ATOM     31  C   UNL     1      -1.941  12.124  17.889  0.00  0.00    +0.000 A 
ATOM     32  C   UNL     1      -2.046  10.813  17.417  0.00  0.00    +0.000 A 
ATOM     33 CL   UNL     1      -3.319  10.396  16.342  0.00  0.00    +0.000 Cl
ATOM     34  C   UNL     1      -1.128   9.844  17.821  0.00  0.00    +0.000 A 
ENDBRANCH  26  28
ENDBRANCH  23  24
ENDBRANCH   9  23
TORSDOF 7
ENDMDL
MODEL 2
REMARK VINA RESULT:      -8.0      0.964      1.263
REMARK  Name = 
REMARK  9 active torsions:
REMARK  status: ('A' for Active; 'I' for Inactive)
REMARK    1  A    between atoms: C_1  and  O_2
REMARK    2  A    between atoms: O_2  and  C_3
REMARK    3  A    between atoms: N_8  and  C_9
REMARK    4  A    between atoms: C_9  and  C_10
REMARK    5  A    between atoms: N_17  and  C_18
REMARK    6  A    between atoms: C_18  and  C_19
REMARK    7  A    between atoms: N_21  and  C_22
REMARK    8  A    between atoms: C_31  and  O_32
REMARK    9  A    between atoms: O_32  and  C_33
REMARK                            x       y       z     vdW  Elec       q    Type
REMARK                         _______ _______ _______ _____ _____    ______ ____
ROOT
ATOM      1  C   UNL     1       6.411   5.515  16.341  0.00  0.00    +0.000 A 
ATOM      2  C   UNL     1       5.329   4.631  16.432  0.00  0.00    +0.000 A 
ATOM      3  C   UNL     1       4.165   4.998  17.124  0.00  0.00    +0.000 A 
ATOM      4  C   UNL     1       3.049   4.044  17.279  0.00  0.00    +0.000 A 
ATOM      5  O   UNL     1       3.055   3.004  16.624  0.00  0.00    +0.000 OA
ATOM      6  N   UNL     1       2.071   4.374  18.210  0.00  0.00    +0.000 N 
ATOM      7  C   UNL     1       2.177   5.480  19.034  0.00  0.00    +0.000 A 
ATOM      8  O   UNL     1       1.664   5.546  20.154  0.00  0.00    +0.000 OA
ATOM      9  N   UNL     1       2.973   6.523  18.577  0.00  0.00    +0.000 N 
ATOM     10  C   UNL     1       4.054   6.261  17.694  0.00  0.00    +0.000 A 
ATOM     11  C   UNL     1       5.083   7.190  17.477  0.00  0.00    +0.000 A 
ATOM     12  C   UNL     1       6.282   6.813  16.854  0.00  0.00    +0.000 A 
ENDROOT
BRANCH   1  14
ATOM     13  C   UNL     1       7.362   4.695  14.325  0.00  0.00    +0.000 C 
ATOM     14  O   UNL     1       7.512   4.992  15.712  0.00  0.00    +0.000 OA
ENDBRANCH   1  14
BRANCH  12  15
ATOM     15  O   UNL     1       7.307   7.705  16.683  0.00  0.00    +0.000 OA
ATOM     16  C   UNL     1       7.974   8.126  17.875  0.00  0.00    +0.000 C 
ENDBRANCH  12  15
BRANCH   6  17
ATOM     17  C   UNL     1       1.056   3.363  18.542  0.00  0.00    +0.000 C 
BRANCH  17  18
ATOM     18  C   UNL     1       1.390   2.446  19.738  0.00  0.00    +0.000 C 
ATOM     19  C   UNL     1       0.864   2.902  21.089  0.00  0.00    +0.000 C 
ATOM     20  C   UNL     1       1.837   2.268  22.053  0.00  0.00    +0.000 C 
ATOM     21  C   UNL     1       3.137   2.286  21.281  0.00  0.00    +0.000 C 
ATOM     22  O   UNL     1       2.802   2.243  19.891  0.00  0.00    +0.000 OA
ENDBRANCH  17  18
ENDBRANCH   6  17
BRANCH   9  23
ATOM     23  C   UNL     1       2.821   7.834  19.221  0.00  0.00    +0.000 C 
BRANCH  23  24
ATOM     24  C   UNL     1       1.893   8.815  18.502  0.00  0.00    +0.000 C 
ATOM     25  O   UNL     1       2.054   9.059  17.306  0.00  0.00    +0.000 OA
ATOM     26  N   UNL     1       0.904   9.357  19.299  0.00  0.00    +0.000 N 
ATOM     27  H   UNL     1       1.034   9.263  20.300  0.00  0.00    +0.000 HD
BRANCH  26  28
ATOM     28  C   UNL     1       0.010  10.339  18.847  0.00  0.00    +0.000 A 
ATOM     29  C   UNL     1      -1.189   9.914  18.265  0.00  0.00    +0.000 A 
ATOM     30  C   UNL     1      -2.134  10.853  17.846  0.00  0.00    +0.000 A 
ATOM     31  C   UNL     1      -1.855  12.215  17.953  0.00  0.00    +0.000 A 
ATOM     32  C   UNL     1      -0.639  12.635  18.495  0.00  0.00    +0.000 A 
ATOM     33 CL   UNL     1      -0.278  14.314  18.572  0.00  0.00    +0.000 Cl
ATOM     34  C   UNL     1       0.284  11.702  18.965  0.00  0.00    +0.000 A 
ENDBRANCH  26  28
ENDBRANCH  23  24
ENDBRANCH   9  23
TORSDOF 7
ENDMDL
MODEL 3
REMARK VINA RESULT:      -7.4      3.949      6.271
REMARK  Name = 
REMARK  9 active torsions:
REMARK  status: ('A' for Active; 'I' for Inactive)
REMARK    1  A    between atoms: C_1  and  O_2
REMARK    2  A    between atoms: O_2  and  C_3
REMARK    3  A    between atoms: N_8  and  C_9
REMARK    4  A    between atoms: C_9  and  C_10
REMARK    5  A    between atoms: N_17  and  C_18
REMARK    6  A    between atoms: C_18  and  C_19
REMARK    7  A    between atoms: N_21  and  C_22
REMARK    8  A    between atoms: C_31  and  O_32
REMARK    9  A    between atoms: O_32  and  C_33
REMARK                            x       y       z     vdW  Elec       q    Type
REMARK                         _______ _______ _______ _____ _____    ______ ____
ROOT
ATOM      1  C   UNL     1       6.062   3.938  13.822  0.00  0.00    +0.000 A 
ATOM      2  C   UNL     1       5.045   3.892  14.783  0.00  0.00    +0.000 A 
ATOM      3  C   UNL     1       5.228   4.482  16.042  0.00  0.00    +0.000 A 
ATOM      4  C   UNL     1       4.183   4.377  17.082  0.00  0.00    +0.000 A 
ATOM      5  O   UNL     1       3.072   3.954  16.773  0.00  0.00    +0.000 OA
ATOM      6  N   UNL     1       4.554   4.729  18.374  0.00  0.00    +0.000 N 
ATOM      7  C   UNL     1       5.855   5.058  18.709  0.00  0.00    +0.000 A 
ATOM      8  O   UNL     1       6.335   4.880  19.832  0.00  0.00    +0.000 OA
ATOM      9  N   UNL     1       6.657   5.541  17.683  0.00  0.00    +0.000 N 
ATOM     10  C   UNL     1       6.406   5.158  16.339  0.00  0.00    +0.000 A 
ATOM     11  C   UNL     1       7.360   5.322  15.324  0.00  0.00    +0.000 A 
ATOM     12  C   UNL     1       7.225   4.674  14.088  0.00  0.00    +0.000 A 
ENDROOT
BRANCH   1  14
ATOM     13  C   UNL     1       4.638   3.686  11.938  0.00  0.00    +0.000 C 
ATOM     14  O   UNL     1       5.779   3.247  12.672  0.00  0.00    +0.000 OA
ENDBRANCH   1  14
BRANCH  12  15
ATOM     15  O   UNL     1       8.178   4.794  13.112  0.00  0.00    +0.000 OA
ATOM     16  C   UNL     1       8.151   6.009  12.360  0.00  0.00    +0.000 C 
ENDBRANCH  12  15
BRANCH   6  17
ATOM     17  C   UNL     1       3.611   4.447  19.469  0.00  0.00    +0.000 C 
BRANCH  17  18
ATOM     18  C   UNL     1       3.070   5.683  20.220  0.00  0.00    +0.000 C 
ATOM     19  C   UNL     1       1.629   5.592  20.693  0.00  0.00    +0.000 C 
ATOM     20  C   UNL     1       1.208   7.040  20.750  0.00  0.00    +0.000 C 
ATOM     21  C   UNL     1       1.988   7.663  19.614  0.00  0.00    +0.000 C 
ATOM     22  O   UNL     1       3.175   6.884  19.441  0.00  0.00    +0.000 OA
ENDBRANCH  17  18
ENDBRANCH   6  17
BRANCH   9  23
ATOM     23  C   UNL     1       7.896   6.239  18.053  0.00  0.00    +0.000 C 
BRANCH  23  24
ATOM     24  C   UNL     1       7.834   7.766  17.982  0.00  0.00    +0.000 C 
ATOM     25  O   UNL     1       7.041   8.322  17.223  0.00  0.00    +0.000 OA
ATOM     26  N   UNL     1       8.715   8.415  18.826  0.00  0.00    +0.000 N 
ATOM     27  H   UNL     1       9.468   7.851  19.206  0.00  0.00    +0.000 HD
BRANCH  26  28
ATOM     28  C   UNL     1       8.871   9.809  18.844  0.00  0.00    +0.000 A 
ATOM     29  C   UNL     1       8.475  10.526  17.710  0.00  0.00    +0.000 A 
ATOM     30  C   UNL     1       8.563  11.920  17.700  0.00  0.00    +0.000 A 
ATOM     31  C   UNL     1       9.102  12.591  18.796  0.00  0.00    +0.000 A 
ATOM     32  C   UNL     1       9.536  11.868  19.909  0.00  0.00    +0.000 A 
ATOM     33 CL   UNL     1      10.252  12.696  21.234  0.00  0.00    +0.000 Cl
ATOM     34  C   UNL     1       9.400  10.481  19.946  0.00  0.00    +0.000 A 
ENDBRANCH  26  28
ENDBRANCH  23  24
ENDBRANCH   9  23
TORSDOF 7
ENDMDL
MODEL 4
REMARK VINA RESULT:      -7.2      4.556      6.113
REMARK  Name = 
REMARK  9 active torsions:
REMARK  status: ('A' for Active; 'I' for Inactive)
REMARK    1  A    between atoms: C_1  and  O_2
REMARK    2  A    between atoms: O_2  and  C_3
REMARK    3  A    between atoms: N_8  and  C_9
REMARK    4  A    between atoms: C_9  and  C_10
REMARK    5  A    between atoms: N_17  and  C_18
REMARK    6  A    between atoms: C_18  and  C_19
REMARK    7  A    between atoms: N_21  and  C_22
REMARK    8  A    between atoms: C_31  and  O_32
REMARK    9  A    between atoms: O_32  and  C_33
REMARK                            x       y       z     vdW  Elec       q    Type
REMARK                         _______ _______ _______ _____ _____    ______ ____
ROOT
ATOM      1  C   UNL     1       5.978   3.997  13.989  0.00  0.00    +0.000 A 
ATOM      2  C   UNL     1       5.026   4.040  15.016  0.00  0.00    +0.000 A 
ATOM      3  C   UNL     1       5.298   4.723  16.210  0.00  0.00    +0.000 A 
ATOM      4  C   UNL     1       4.324   4.715  17.321  0.00  0.00    +0.000 A 
ATOM      5  O   UNL     1       3.190   4.286  17.120  0.00  0.00    +0.000 OA
ATOM      6  N   UNL     1       4.782   5.159  18.555  0.00  0.00    +0.000 N 
ATOM      7  C   UNL     1       6.106   5.493  18.777  0.00  0.00    +0.000 A 
ATOM      8  O   UNL     1       6.658   5.395  19.877  0.00  0.00    +0.000 OA
ATOM      9  N   UNL     1       6.843   5.884  17.666  0.00  0.00    +0.000 N 
ATOM     10  C   UNL     1       6.500   5.402  16.376  0.00  0.00    +0.000 A 
ATOM     11  C   UNL     1       7.386   5.473  15.291  0.00  0.00    +0.000 A 
ATOM     12  C   UNL     1       7.163   4.734  14.121  0.00  0.00    +0.000 A 
ENDROOT
BRANCH   1  14
ATOM     13  C   UNL     1       4.535   3.717  12.123  0.00  0.00    +0.000 C 
ATOM     14  O   UNL     1       5.612   3.224  12.918  0.00  0.00    +0.000 OA
ENDBRANCH   1  14
BRANCH  12  15
ATOM     15  O   UNL     1       8.051   4.764  13.078  0.00  0.00    +0.000 OA
ATOM     16  C   UNL     1       8.727   6.005  12.870  0.00  0.00    +0.000 C 
ENDBRANCH  12  15
BRANCH   6  17
ATOM     17  C   UNL     1       3.912   4.977  19.728  0.00  0.00    +0.000 C 
BRANCH  17  18
ATOM     18  C   UNL     1       2.818   3.896  19.588  0.00  0.00    +0.000 C 
ATOM     19  C   UNL     1       1.391   4.363  19.821  0.00  0.00    +0.000 C 
ATOM     20  C   UNL     1       0.699   3.100  20.270  0.00  0.00    +0.000 C 
ATOM     21  C   UNL     1       1.787   2.369  21.025  0.00  0.00    +0.000 C 
ATOM     22  O   UNL     1       3.037   2.782  20.465  0.00  0.00    +0.000 OA
ENDBRANCH  17  18
ENDBRANCH   6  17
BRANCH   9  23
ATOM     23  C   UNL     1       8.111   6.590  17.900  0.00  0.00    +0.000 C 
BRANCH  23  24
ATOM     24  C   UNL     1       8.005   8.112  18.000  0.00  0.00    +0.000 C 
ATOM     25  O   UNL     1       7.143   8.719  17.364  0.00  0.00    +0.000 OA
ATOM     26  N   UNL     1       8.928   8.696  18.846  0.00  0.00    +0.000 N 
ATOM     27  H   UNL     1       9.720   8.121  19.110  0.00  0.00    +0.000 HD
BRANCH  26  28
ATOM     28  C   UNL     1       9.048  10.085  19.006  0.00  0.00    +0.000 A 
ATOM     29  C   UNL     1       9.027  10.880  17.855  0.00  0.00    +0.000 A 
ATOM     30  C   UNL     1       9.092  12.270  17.966  0.00  0.00    +0.000 A 
ATOM     31  C   UNL     1       9.239  12.862  19.219  0.00  0.00    +0.000 A 
ATOM     32  C   UNL     1       9.303  12.062  20.363  0.00  0.00    +0.000 A 
ATOM     33 CL   UNL     1       9.541  12.794  21.899  0.00  0.00    +0.000 Cl
ATOM     34  C   UNL     1       9.183  10.677  20.262  0.00  0.00    +0.000 A 
ENDBRANCH  26  28
ENDBRANCH  23  24
ENDBRANCH   9  23
TORSDOF 7
ENDMDL
MODEL 5
REMARK VINA RESULT:      -7.0      4.319      9.730
REMARK  Name = 
REMARK  9 active torsions:
REMARK  status: ('A' for Active; 'I' for Inactive)
REMARK    1  A    between atoms: C_1  and  O_2
REMARK    2  A    between atoms: O_2  and  C_3
REMARK    3  A    between atoms: N_8  and  C_9
REMARK    4  A    between atoms: C_9  and  C_10
REMARK    5  A    between atoms: N_17  and  C_18
REMARK    6  A    between atoms: C_18  and  C_19
REMARK    7  A    between atoms: N_21  and  C_22
REMARK    8  A    between atoms: C_31  and  O_32
REMARK    9  A    between atoms: O_32  and  C_33
REMARK                            x       y       z     vdW  Elec       q    Type
REMARK                         _______ _______ _______ _____ _____    ______ ____
ROOT
ATOM      1  C   UNL     1      -3.914  11.064  17.804  0.00  0.00    +0.000 A 
ATOM      2  C   UNL     1      -3.760  12.040  18.796  0.00  0.00    +0.000 A 
ATOM      3  C   UNL     1      -2.506  12.273  19.378  0.00  0.00    +0.000 A 
ATOM      4  C   UNL     1      -2.353  13.254  20.472  0.00  0.00    +0.000 A 
ATOM      5  O   UNL     1      -3.284  14.015  20.727  0.00  0.00    +0.000 OA
ATOM      6  N   UNL     1      -1.159  13.216  21.182  0.00  0.00    +0.000 N 
ATOM      7  C   UNL     1      -0.197  12.246  20.961  0.00  0.00    +0.000 A 
ATOM      8  O   UNL     1       0.585  11.854  21.830  0.00  0.00    +0.000 OA
ATOM      9  N   UNL     1      -0.189  11.653  19.705  0.00  0.00    +0.000 N 
ATOM     10  C   UNL     1      -1.388  11.566  18.949  0.00  0.00    +0.000 A 
ATOM     11  C   UNL     1      -1.522  10.694  17.859  0.00  0.00    +0.000 A 
ATOM     12  C   UNL     1      -2.781  10.395  17.318  0.00  0.00    +0.000 A 
ENDROOT
BRANCH   1  14
ATOM     13  C   UNL     1      -6.024  12.055  17.350  0.00  0.00    +0.000 C 
ATOM     14  O   UNL     1      -5.208  10.886  17.388  0.00  0.00    +0.000 OA
ENDBRANCH   1  14
BRANCH  12  15
ATOM     15  O   UNL     1      -2.921   9.508  16.284  0.00  0.00    +0.000 OA
ATOM     16  C   UNL     1      -2.945  10.077  14.973  0.00  0.00    +0.000 C 
ENDBRANCH  12  15
BRANCH   6  17
ATOM     17  C   UNL     1      -1.047  14.032  22.401  0.00  0.00    +0.000 C 
BRANCH  17  18
ATOM     18  C   UNL     1      -1.952  13.605  23.577  0.00  0.00    +0.000 C 
ATOM     19  C   UNL     1      -2.676  12.280  23.409  0.00  0.00    +0.000 C 
ATOM     20  C   UNL     1      -3.889  12.452  24.290  0.00  0.00    +0.000 C 
ATOM     21  C   UNL     1      -4.190  13.929  24.163  0.00  0.00    +0.000 C 
ATOM     22  O   UNL     1      -2.954  14.588  23.879  0.00  0.00    +0.000 OA
ENDBRANCH  17  18
ENDBRANCH   6  17
BRANCH   9  23
ATOM     23  C   UNL     1       1.014  10.910  19.306  0.00  0.00    +0.000 C 
BRANCH  23  24
ATOM     24  C   UNL     1       1.003   9.417  19.638  0.00  0.00    +0.000 C 
ATOM     25  O   UNL     1       0.216   8.972  20.473  0.00  0.00    +0.000 OA
ATOM     26  N   UNL     1       1.918   8.665  18.927  0.00  0.00    +0.000 N 
ATOM     27  H   UNL     1       2.657   9.181  18.462  0.00  0.00    +0.000 HD
BRANCH  26  28
ATOM     28  C   UNL     1       2.120   7.295  19.150  0.00  0.00    +0.000 A 
ATOM     29  C   UNL     1       1.847   6.792  20.426  0.00  0.00    +0.000 A 
ATOM     30  C   UNL     1       1.984   5.427  20.683  0.00  0.00    +0.000 A 
ATOM     31  C   UNL     1       2.452   4.575  19.684  0.00  0.00    +0.000 A 
ATOM     32  C   UNL     1       2.766   5.088  18.423  0.00  0.00    +0.000 A 
ATOM     33 CL   UNL     1       3.395   4.042  17.214  0.00  0.00    +0.000 Cl
ATOM     34  C   UNL     1       2.577   6.441  18.146  0.00  0.00    +0.000 A 
ENDBRANCH  26  28
ENDBRANCH  23  24
ENDBRANCH   9  23
TORSDOF 7
ENDMDL
MODEL 6
REMARK VINA RESULT:      -6.9      3.819      9.673
REMARK  Name = 
REMARK  9 active torsions:
REMARK  status: ('A' for Active; 'I' for Inactive)
REMARK    1  A    between atoms: C_1  and  O_2
REMARK    2  A    between atoms: O_2  and  C_3
REMARK    3  A    between atoms: N_8  and  C_9
REMARK    4  A    between atoms: C_9  and  C_10
REMARK    5  A    between atoms: N_17  and  C_18
REMARK    6  A    between atoms: C_18  and  C_19
REMARK    7  A    between atoms: N_21  and  C_22
REMARK    8  A    between atoms: C_31  and  O_32
REMARK    9  A    between atoms: O_32  and  C_33
REMARK                            x       y       z     vdW  Elec       q    Type
REMARK                         _______ _______ _______ _____ _____    ______ ____
ROOT
ATOM      1  C   UNL     1      -3.651  10.942  17.841  0.00  0.00    +0.000 A 
ATOM      2  C   UNL     1      -3.378  11.875  18.849  0.00  0.00    +0.000 A 
ATOM      3  C   UNL     1      -2.059  12.113  19.262  0.00  0.00    +0.000 A 
ATOM      4  C   UNL     1      -1.774  13.046  20.371  0.00  0.00    +0.000 A 
ATOM      5  O   UNL     1      -2.673  13.770  20.791  0.00  0.00    +0.000 OA
ATOM      6  N   UNL     1      -0.491  13.006  20.905  0.00  0.00    +0.000 N 
ATOM      7  C   UNL     1       0.449  12.073  20.504  0.00  0.00    +0.000 A 
ATOM      8  O   UNL     1       1.352  11.660  21.236  0.00  0.00    +0.000 OA
ATOM      9  N   UNL     1       0.292  11.538  19.232  0.00  0.00    +0.000 N 
ATOM     10  C   UNL     1      -0.999  11.456  18.647  0.00  0.00    +0.000 A 
ATOM     11  C   UNL     1      -1.269  10.632  17.544  0.00  0.00    +0.000 A 
ATOM     12  C   UNL     1      -2.586  10.326  17.170  0.00  0.00    +0.000 A 
ENDROOT
BRANCH   1  14
ATOM     13  C   UNL     1      -5.776  11.929  17.449  0.00  0.00    +0.000 C 
ATOM     14  O   UNL     1      -4.987  10.750  17.601  0.00  0.00    +0.000 OA
ENDBRANCH   1  14
BRANCH  12  15
ATOM     15  O   UNL     1      -2.852   9.485  16.123  0.00  0.00    +0.000 OA
ATOM     16  C   UNL     1      -3.020  10.108  14.848  0.00  0.00    +0.000 C 
ENDBRANCH  12  15
BRANCH   6  17
ATOM     17  C   UNL     1      -0.225  13.767  22.135  0.00  0.00    +0.000 C 
BRANCH  17  18
ATOM     18  C   UNL     1       0.708  14.987  21.979  0.00  0.00    +0.000 C 
ATOM     19  C   UNL     1       0.762  15.606  20.592  0.00  0.00    +0.000 C 
ATOM     20  C   UNL     1       2.129  16.246  20.569  0.00  0.00    +0.000 C 
ATOM     21  C   UNL     1       2.954  15.309  21.422  0.00  0.00    +0.000 C 
ATOM     22  O   UNL     1       2.062  14.690  22.352  0.00  0.00    +0.000 OA
ENDBRANCH  17  18
ENDBRANCH   6  17
BRANCH   9  23
ATOM     23  C   UNL     1       1.441  10.846  18.633  0.00  0.00    +0.000 C 
BRANCH  23  24
ATOM     24  C   UNL     1       1.574   9.365  18.993  0.00  0.00    +0.000 C 
ATOM     25  O   UNL     1       0.980   8.907  19.968  0.00  0.00    +0.000 OA
ATOM     26  N   UNL     1       2.384   8.640  18.141  0.00  0.00    +0.000 N 
ATOM     27  H   UNL     1       2.995   9.178  17.537  0.00  0.00    +0.000 HD
BRANCH  26  28
ATOM     28  C   UNL     1       2.700   7.289  18.351  0.00  0.00    +0.000 A 
ATOM     29  C   UNL     1       3.785   6.754  17.647  0.00  0.00    +0.000 A 
ATOM     30  C   UNL     1       4.171   5.430  17.861  0.00  0.00    +0.000 A 
ATOM     31  C   UNL     1       3.437   4.623  18.729  0.00  0.00    +0.000 A 
ATOM     32  C   UNL     1       2.328   5.148  19.396  0.00  0.00    +0.000 A 
ATOM     33 CL   UNL     1       1.394   4.133  20.421  0.00  0.00    +0.000 Cl
ATOM     34  C   UNL     1       1.973   6.486  19.228  0.00  0.00    +0.000 A 
ENDBRANCH  26  28
ENDBRANCH  23  24
ENDBRANCH   9  23
TORSDOF 7
ENDMDL
MODEL 7
REMARK VINA RESULT:      -6.9      4.573     10.178
REMARK  Name = 
REMARK  9 active torsions:
REMARK  status: ('A' for Active; 'I' for Inactive)
REMARK    1  A    between atoms: C_1  and  O_2
REMARK    2  A    between atoms: O_2  and  C_3
REMARK    3  A    between atoms: N_8  and  C_9
REMARK    4  A    between atoms: C_9  and  C_10
REMARK    5  A    between atoms: N_17  and  C_18
REMARK    6  A    between atoms: C_18  and  C_19
REMARK    7  A    between atoms: N_21  and  C_22
REMARK    8  A    between atoms: C_31  and  O_32
REMARK    9  A    between atoms: O_32  and  C_33
REMARK                            x       y       z     vdW  Elec       q    Type
REMARK                         _______ _______ _______ _____ _____    ______ ____
ROOT
ATOM      1  C   UNL     1      -4.937  11.460  18.057  0.00  0.00    +0.000 A 
ATOM      2  C   UNL     1      -4.688  11.978  19.334  0.00  0.00    +0.000 A 
ATOM      3  C   UNL     1      -3.374  12.217  19.762  0.00  0.00    +0.000 A 
ATOM      4  C   UNL     1      -3.105  12.700  21.132  0.00  0.00    +0.000 A 
ATOM      5  O   UNL     1      -4.041  13.090  21.824  0.00  0.00    +0.000 OA
ATOM      6  N   UNL     1      -1.786  12.634  21.567  0.00  0.00    +0.000 N 
ATOM      7  C   UNL     1      -0.785  12.050  20.812  0.00  0.00    +0.000 A 
ATOM      8  O   UNL     1       0.215  11.518  21.302  0.00  0.00    +0.000 OA
ATOM      9  N   UNL     1      -0.985  12.012  19.438  0.00  0.00    +0.000 N 
ATOM     10  C   UNL     1      -2.302  11.983  18.909  0.00  0.00    +0.000 A 
ATOM     11  C   UNL     1      -2.567  11.600  17.586  0.00  0.00    +0.000 A 
ATOM     12  C   UNL     1      -3.868  11.284  17.167  0.00  0.00    +0.000 A 
ENDROOT
BRANCH   1  14
ATOM     13  C   UNL     1      -7.108  11.091  18.948  0.00  0.00    +0.000 C 
ATOM     14  O   UNL     1      -6.259  11.196  17.807  0.00  0.00    +0.000 OA
ENDBRANCH   1  14
BRANCH  12  15
ATOM     15  O   UNL     1      -4.124  10.865  15.889  0.00  0.00    +0.000 OA
ATOM     16  C   UNL     1      -2.987  10.452  15.128  0.00  0.00    +0.000 C 
ENDBRANCH  12  15
BRANCH   6  17
ATOM     17  C   UNL     1      -1.507  12.911  22.985  0.00  0.00    +0.000 C 
BRANCH  17  18
ATOM     18  C   UNL     1      -1.610  14.392  23.410  0.00  0.00    +0.000 C 
ATOM     19  C   UNL     1      -0.378  15.243  23.149  0.00  0.00    +0.000 C 
ATOM     20  C   UNL     1      -0.497  16.326  24.193  0.00  0.00    +0.000 C 
ATOM     21  C   UNL     1      -1.149  15.607  25.352  0.00  0.00    +0.000 C 
ATOM     22  O   UNL     1      -1.926  14.540  24.802  0.00  0.00    +0.000 OA
ENDBRANCH  17  18
ENDBRANCH   6  17
BRANCH   9  23
ATOM     23  C   UNL     1       0.182  11.750  18.584  0.00  0.00    +0.000 C 
BRANCH  23  24
ATOM     24  C   UNL     1       0.507  10.273  18.353  0.00  0.00    +0.000 C 
ATOM     25  O   UNL     1      -0.265   9.559  17.714  0.00  0.00    +0.000 OA
ATOM     26  N   UNL     1       1.704   9.858  18.904  0.00  0.00    +0.000 N 
ATOM     27  H   UNL     1       2.114  10.471  19.600  0.00  0.00    +0.000 HD
BRANCH  26  28
ATOM     28  C   UNL     1       2.137   8.524  18.875  0.00  0.00    +0.000 A 
ATOM     29  C   UNL     1       2.928   8.116  17.795  0.00  0.00    +0.000 A 
ATOM     30  C   UNL     1       3.426   6.812  17.748  0.00  0.00    +0.000 A 
ATOM     31  C   UNL     1       3.084   5.901  18.745  0.00  0.00    +0.000 A 
ATOM     32  C   UNL     1       2.259   6.299  19.799  0.00  0.00    +0.000 A 
ATOM     33 CL   UNL     1       1.796   5.156  20.996  0.00  0.00    +0.000 Cl
ATOM     34  C   UNL     1       1.805   7.615  19.880  0.00  0.00    +0.000 A 
ENDBRANCH  26  28
ENDBRANCH  23  24
ENDBRANCH   9  23
TORSDOF 7
ENDMDL
MODEL 8
REMARK VINA RESULT:      -6.8      4.331      5.928
REMARK  Name = 
REMARK  9 active torsions:
REMARK  status: ('A' for Active; 'I' for Inactive)
REMARK    1  A    between atoms: C_1  and  O_2
REMARK    2  A    between atoms: O_2  and  C_3
REMARK    3  A    between atoms: N_8  and  C_9
REMARK    4  A    between atoms: C_9  and  C_10
REMARK    5  A    between atoms: N_17  and  C_18
REMARK    6  A    between atoms: C_18  and  C_19
REMARK    7  A    between atoms: N_21  and  C_22
REMARK    8  A    between atoms: C_31  and  O_32
REMARK    9  A    between atoms: O_32  and  C_33
REMARK                            x       y       z     vdW  Elec       q    Type
REMARK                         _______ _______ _______ _____ _____    ______ ____
ROOT
ATOM      1  C   UNL     1       5.623   4.173  14.098  0.00  0.00    +0.000 A 
ATOM      2  C   UNL     1       4.654   4.305  15.100  0.00  0.00    +0.000 A 
ATOM      3  C   UNL     1       4.968   4.923  16.319  0.00  0.00    +0.000 A 
ATOM      4  C   UNL     1       3.968   5.004  17.403  0.00  0.00    +0.000 A 
ATOM      5  O   UNL     1       2.798   4.716  17.160  0.00  0.00    +0.000 OA
ATOM      6  N   UNL     1       4.439   5.362  18.660  0.00  0.00    +0.000 N 
ATOM      7  C   UNL     1       5.786   5.533  18.926  0.00  0.00    +0.000 A 
ATOM      8  O   UNL     1       6.289   5.345  20.036  0.00  0.00    +0.000 OA
ATOM      9  N   UNL     1       6.596   5.860  17.846  0.00  0.00    +0.000 N 
ATOM     10  C   UNL     1       6.236   5.451  16.535  0.00  0.00    +0.000 A 
ATOM     11  C   UNL     1       7.156   5.443  15.476  0.00  0.00    +0.000 A 
ATOM     12  C   UNL     1       6.883   4.762  14.280  0.00  0.00    +0.000 A 
ENDROOT
BRANCH   1  14
ATOM     13  C   UNL     1       6.215   2.812  12.244  0.00  0.00    +0.000 C 
ATOM     14  O   UNL     1       5.201   3.474  12.997  0.00  0.00    +0.000 OA
ENDBRANCH   1  14
BRANCH  12  15
ATOM     15  O   UNL     1       7.798   4.712  13.263  0.00  0.00    +0.000 OA
ATOM     16  C   UNL     1       8.342   5.967  12.850  0.00  0.00    +0.000 C 
ENDBRANCH  12  15
BRANCH   6  17
ATOM     17  C   UNL     1       3.519   5.257  19.804  0.00  0.00    +0.000 C 
BRANCH  17  18
ATOM     18  C   UNL     1       2.753   3.922  19.926  0.00  0.00    +0.000 C 
ATOM     19  C   UNL     1       1.320   4.023  20.421  0.00  0.00    +0.000 C 
ATOM     20  C   UNL     1       1.090   2.669  21.047  0.00  0.00    +0.000 C 
ATOM     21  C   UNL     1       2.455   2.316  21.596  0.00  0.00    +0.000 C 
ATOM     22  O   UNL     1       3.422   2.986  20.783  0.00  0.00    +0.000 OA
ENDBRANCH  17  18
ENDBRANCH   6  17
BRANCH   9  23
ATOM     23  C   UNL     1       7.930   6.405  18.131  0.00  0.00    +0.000 C 
BRANCH  23  24
ATOM     24  C   UNL     1       8.068   7.920  17.964  0.00  0.00    +0.000 C 
ATOM     25  O   UNL     1       7.581   8.484  16.985  0.00  0.00    +0.000 OA
ATOM     26  N   UNL     1       8.756   8.548  18.984  0.00  0.00    +0.000 N 
ATOM     27  H   UNL     1       9.306   7.948  19.589  0.00  0.00    +0.000 HD
BRANCH  26  28
ATOM     28  C   UNL     1       9.062   9.917  18.971  0.00  0.00    +0.000 A 
ATOM     29  C   UNL     1      10.059  10.373  19.840  0.00  0.00    +0.000 A 
ATOM     30  C   UNL     1      10.435  11.717  19.827  0.00  0.00    +0.000 A 
ATOM     31  C   UNL     1       9.773  12.616  18.992  0.00  0.00    +0.000 A 
ATOM     32  C   UNL     1       8.748  12.166  18.158  0.00  0.00    +0.000 A 
ATOM     33 CL   UNL     1       7.899  13.289  17.173  0.00  0.00    +0.000 Cl
ATOM     34  C   UNL     1       8.407  10.814  18.127  0.00  0.00    +0.000 A 
ENDBRANCH  26  28
ENDBRANCH  23  24
ENDBRANCH   9  23
TORSDOF 7
ENDMDL
MODEL 9
REMARK VINA RESULT:      -6.8      4.271      9.648
REMARK  Name = 
REMARK  9 active torsions:
REMARK  status: ('A' for Active; 'I' for Inactive)
REMARK    1  A    between atoms: C_1  and  O_2
REMARK    2  A    between atoms: O_2  and  C_3
REMARK    3  A    between atoms: N_8  and  C_9
REMARK    4  A    between atoms: C_9  and  C_10
REMARK    5  A    between atoms: N_17  and  C_18
REMARK    6  A    between atoms: C_18  and  C_19
REMARK    7  A    between atoms: N_21  and  C_22
REMARK    8  A    between atoms: C_31  and  O_32
REMARK    9  A    between atoms: O_32  and  C_33
REMARK                            x       y       z     vdW  Elec       q    Type
REMARK                         _______ _______ _______ _____ _____    ______ ____
ROOT
ATOM      1  C   UNL     1      -3.716  11.049  17.668  0.00  0.00    +0.000 A 
ATOM      2  C   UNL     1      -3.588  12.002  18.686  0.00  0.00    +0.000 A 
ATOM      3  C   UNL     1      -2.349  12.220  19.306  0.00  0.00    +0.000 A 
ATOM      4  C   UNL     1      -2.226  13.177  20.425  0.00  0.00    +0.000 A 
ATOM      5  O   UNL     1      -3.162  13.932  20.673  0.00  0.00    +0.000 OA
ATOM      6  N   UNL     1      -1.050  13.121  21.164  0.00  0.00    +0.000 N 
ATOM      7  C   UNL     1      -0.083  12.156  20.947  0.00  0.00    +0.000 A 
ATOM      8  O   UNL     1       0.676  11.743  21.827  0.00  0.00    +0.000 OA
ATOM      9  N   UNL     1      -0.042  11.591  19.678  0.00  0.00    +0.000 N 
ATOM     10  C   UNL     1      -1.221  11.523  18.890  0.00  0.00    +0.000 A 
ATOM     11  C   UNL     1      -1.327  10.676  17.777  0.00  0.00    +0.000 A 
ATOM     12  C   UNL     1      -2.572  10.391  17.197  0.00  0.00    +0.000 A 
ENDROOT
BRANCH   1  14
ATOM     13  C   UNL     1      -5.923  11.919  17.538  0.00  0.00    +0.000 C 
ATOM     14  O   UNL     1      -4.999  10.882  17.214  0.00  0.00    +0.000 OA
ENDBRANCH   1  14
BRANCH  12  15
ATOM     15  O   UNL     1      -2.685   9.527  16.139  0.00  0.00    +0.000 OA
ATOM     16  C   UNL     1      -2.848  10.132  14.855  0.00  0.00    +0.000 C 
ENDBRANCH  12  15
BRANCH   6  17
ATOM     17  C   UNL     1      -0.970  13.909  22.404  0.00  0.00    +0.000 C 
BRANCH  17  18
ATOM     18  C   UNL     1      -1.892  13.445  23.553  0.00  0.00    +0.000 C 
ATOM     19  C   UNL     1      -2.618  12.129  23.329  0.00  0.00    +0.000 C 
ATOM     20  C   UNL     1      -3.842  12.276  24.200  0.00  0.00    +0.000 C 
ATOM     21  C   UNL     1      -4.136  13.757  24.122  0.00  0.00    +0.000 C 
ATOM     22  O   UNL     1      -2.893  14.420  23.877  0.00  0.00    +0.000 OA
ENDBRANCH  17  18
ENDBRANCH   6  17
BRANCH   9  23
ATOM     23  C   UNL     1       1.171  10.857  19.294  0.00  0.00    +0.000 C 
BRANCH  23  24
ATOM     24  C   UNL     1       1.116   9.343  19.509  0.00  0.00    +0.000 C 
ATOM     25  O   UNL     1       0.303   8.856  20.294  0.00  0.00    +0.000 OA
ATOM     26  N   UNL     1       2.026   8.625  18.758  0.00  0.00    +0.000 N 
ATOM     27  H   UNL     1       2.787   9.156  18.348  0.00  0.00    +0.000 HD
BRANCH  26  28
ATOM     28  C   UNL     1       2.191   7.237  18.878  0.00  0.00    +0.000 A 
ATOM     29  C   UNL     1       2.383   6.498  17.705  0.00  0.00    +0.000 A 
ATOM     30  C   UNL     1       2.602   5.121  17.776  0.00  0.00    +0.000 A 
ATOM     31  C   UNL     1       2.568   4.474  19.010  0.00  0.00    +0.000 A 
ATOM     32  C   UNL     1       2.333   5.209  20.175  0.00  0.00    +0.000 A 
ATOM     33 CL   UNL     1       2.237   4.398  21.686  0.00  0.00    +0.000 Cl
ATOM     34  C   UNL     1       2.169   6.592  20.114  0.00  0.00    +0.000 A 
ENDBRANCH  26  28
ENDBRANCH  23  24
ENDBRANCH   9  23
TORSDOF 7
ENDMDL
