MODEL 1
REMARK VINA RESULT:      -7.5      0.000      0.000
REMARK  Name = 
REMARK  3 active torsions:
REMARK  status: ('A' for Active; 'I' for Inactive)
REMARK    1  A    between atoms: C_1  and  N_2
REMARK    2  A    between atoms: C_4  and  N_5
REMARK    3  A    between atoms: N_5  and  C_6
REMARK                            x       y       z     vdW  Elec       q    Type
REMARK                         _______ _______ _______ _____ _____    ______ ____
ROOT
ATOM      1  C   UNL     1       0.797  10.497  18.182  0.00  0.00    +0.000 C 
ATOM      2  N   UNL     1       0.944   9.665  19.394  0.00  0.00    +0.000 N 
ATOM      3  C   UNL     1       1.710   8.553  19.305  0.00  0.00    +0.000 A 
ATOM      4  C   UNL     1       1.896   7.680  20.375  0.00  0.00    +0.000 A 
ATOM      5  C   UNL     1       1.264   7.991  21.573  0.00  0.00    +0.000 A 
ATOM      6  C   UNL     1       0.473   9.142  21.683  0.00  0.00    +0.000 A 
ATOM      7  C   UNL     1      -0.175   9.452  22.888  0.00  0.00    +0.000 A 
ATOM      8  C   UNL     1      -0.969  10.594  22.995  0.00  0.00    +0.000 A 
ATOM      9  C   UNL     1      -1.128  11.436  21.901  0.00  0.00    +0.000 A 
ATOM     10  C   UNL     1      -0.494  11.139  20.692  0.00  0.00    +0.000 A 
ATOM     11  C   UNL     1       0.312   9.995  20.559  0.00  0.00    +0.000 A 
ENDROOT
BRANCH   4  12
ATOM     12  N   UNL     1       2.605   6.470  20.254  0.00  0.00    +0.000 N 
ATOM     13  H   UNL     1       3.622   6.551  20.287  0.00  0.00    +0.000 HD
BRANCH  12  14
ATOM     14  C   UNL     1       2.167   5.244  19.701  0.00  0.00    +0.000 A 
ATOM     15  C   UNL     1       1.285   4.422  20.421  0.00  0.00    +0.000 A 
ATOM     16  C   UNL     1       0.755   3.263  19.857  0.00  0.00    +0.000 A 
ATOM     17  C   UNL     1       1.101   2.901  18.559  0.00  0.00    +0.000 A 
ATOM     18  C   UNL     1       1.988   3.691  17.827  0.00  0.00    +0.000 A 
ATOM     19  C   UNL     1       2.518   4.852  18.395  0.00  0.00    +0.000 A 
ATOM     20 CL   UNL     1       3.587   5.824  17.445  0.00  0.00    +0.000 Cl
ENDBRANCH  12  14
ENDBRANCH   4  12
TORSDOF 2
ENDMDL
MODEL 2
REMARK VINA RESULT:      -7.1      3.463      5.596
REMARK  Name = 
REMARK  3 active torsions:
REMARK  status: ('A' for Active; 'I' for Inactive)
REMARK    1  A    between atoms: C_1  and  N_2
REMARK    2  A    between atoms: C_4  and  N_5
REMARK    3  A    between atoms: N_5  and  C_6
REMARK                            x       y       z     vdW  Elec       q    Type
REMARK                         _______ _______ _______ _____ _____    ______ ____
ROOT
ATOM      1  C   UNL     1       2.259   4.458  21.350  0.00  0.00    +0.000 C 
ATOM      2  N   UNL     1       2.756   4.953  20.050  0.00  0.00    +0.000 N 
ATOM      3  C   UNL     1       3.507   4.113  19.301  0.00  0.00    +0.000 A 
ATOM      4  C   UNL     1       4.051   4.482  18.074  0.00  0.00    +0.000 A 
ATOM      5  C   UNL     1       3.790   5.769  17.618  0.00  0.00    +0.000 A 
ATOM      6  C   UNL     1       3.009   6.649  18.378  0.00  0.00    +0.000 A 
ATOM      7  C   UNL     1       2.753   7.951  17.926  0.00  0.00    +0.000 A 
ATOM      8  C   UNL     1       1.981   8.830  18.686  0.00  0.00    +0.000 A 
ATOM      9  C   UNL     1       1.460   8.420  19.907  0.00  0.00    +0.000 A 
ATOM     10  C   UNL     1       1.709   7.127  20.375  0.00  0.00    +0.000 A 
ATOM     11  C   UNL     1       2.483   6.222  19.626  0.00  0.00    +0.000 A 
ENDROOT
BRANCH   4  12
ATOM     12  N   UNL     1       4.919   3.647  17.344  0.00  0.00    +0.000 N 
ATOM     13  H   UNL     1       5.280   2.838  17.851  0.00  0.00    +0.000 HD
BRANCH  12  14
ATOM     14  C   UNL     1       5.674   3.956  16.189  0.00  0.00    +0.000 A 
ATOM     15  C   UNL     1       5.135   3.723  14.913  0.00  0.00    +0.000 A 
ATOM     16  C   UNL     1       5.813   4.116  13.760  0.00  0.00    +0.000 A 
ATOM     17  C   UNL     1       7.049   4.749  13.862  0.00  0.00    +0.000 A 
ATOM     18  C   UNL     1       7.613   4.978  15.117  0.00  0.00    +0.000 A 
ATOM     19  C   UNL     1       6.932   4.582  16.271  0.00  0.00    +0.000 A 
ATOM     20 CL   UNL     1       7.648   4.914  17.809  0.00  0.00    +0.000 Cl
ENDBRANCH  12  14
ENDBRANCH   4  12
TORSDOF 2
ENDMDL
MODEL 3
REMARK VINA RESULT:      -7.0      1.244      1.786
REMARK  Name = 
REMARK  3 active torsions:
REMARK  status: ('A' for Active; 'I' for Inactive)
REMARK    1  A    between atoms: C_1  and  N_2
REMARK    2  A    between atoms: C_4  and  N_5
REMARK    3  A    between atoms: N_5  and  C_6
REMARK                            x       y       z     vdW  Elec       q    Type
REMARK                         _______ _______ _______ _____ _____    ______ ____
ROOT
ATOM      1  C   UNL     1       0.811  10.277  18.085  0.00  0.00    +0.000 C 
ATOM      2  N   UNL     1       0.965   9.504  19.334  0.00  0.00    +0.000 N 
ATOM      3  C   UNL     1       1.712   8.376  19.287  0.00  0.00    +0.000 A 
ATOM      4  C   UNL     1       1.902   7.554  20.396  0.00  0.00    +0.000 A 
ATOM      5  C   UNL     1       1.298   7.935  21.588  0.00  0.00    +0.000 A 
ATOM      6  C   UNL     1       0.527   9.103  21.653  0.00  0.00    +0.000 A 
ATOM      7  C   UNL     1      -0.094   9.484  22.852  0.00  0.00    +0.000 A 
ATOM      8  C   UNL     1      -0.867  10.643  22.916  0.00  0.00    +0.000 A 
ATOM      9  C   UNL     1      -1.032  11.433  21.784  0.00  0.00    +0.000 A 
ATOM     10  C   UNL     1      -0.425  11.065  20.581  0.00  0.00    +0.000 A 
ATOM     11  C   UNL     1       0.360   9.902  20.491  0.00  0.00    +0.000 A 
ENDROOT
BRANCH   4  12
ATOM     12  N   UNL     1       2.590   6.327  20.324  0.00  0.00    +0.000 N 
ATOM     13  H   UNL     1       3.312   6.186  21.031  0.00  0.00    +0.000 HD
BRANCH  12  14
ATOM     14  C   UNL     1       2.722   5.456  19.217  0.00  0.00    +0.000 A 
ATOM     15  C   UNL     1       3.698   5.705  18.238  0.00  0.00    +0.000 A 
ATOM     16  C   UNL     1       3.920   4.807  17.196  0.00  0.00    +0.000 A 
ATOM     17  C   UNL     1       3.165   3.641  17.110  0.00  0.00    +0.000 A 
ATOM     18  C   UNL     1       2.178   3.378  18.060  0.00  0.00    +0.000 A 
ATOM     19  C   UNL     1       1.956   4.280  19.104  0.00  0.00    +0.000 A 
ATOM     20 CL   UNL     1       0.748   3.902  20.281  0.00  0.00    +0.000 Cl
ENDBRANCH  12  14
ENDBRANCH   4  12
TORSDOF 2
ENDMDL
MODEL 4
REMARK VINA RESULT:      -7.0      2.130      6.541
REMARK  Name = 
REMARK  3 active torsions:
REMARK  status: ('A' for Active; 'I' for Inactive)
REMARK    1  A    between atoms: C_1  and  N_2
REMARK    2  A    between atoms: C_4  and  N_5
REMARK    3  A    between atoms: N_5  and  C_6
REMARK                            x       y       z     vdW  Elec       q    Type
REMARK                         _______ _______ _______ _____ _____    ______ ____
ROOT
ATOM      1  C   UNL     1       4.295   5.846  17.231  0.00  0.00    +0.000 C 
ATOM      2  N   UNL     1       3.287   5.715  18.303  0.00  0.00    +0.000 N 
ATOM      3  C   UNL     1       2.965   6.827  19.004  0.00  0.00    +0.000 A 
ATOM      4  C   UNL     1       2.051   6.815  20.054  0.00  0.00    +0.000 A 
ATOM      5  C   UNL     1       1.452   5.600  20.370  0.00  0.00    +0.000 A 
ATOM      6  C   UNL     1       1.770   4.442  19.650  0.00  0.00    +0.000 A 
ATOM      7  C   UNL     1       1.176   3.213  19.973  0.00  0.00    +0.000 A 
ATOM      8  C   UNL     1       1.498   2.058  19.260  0.00  0.00    +0.000 A 
ATOM      9  C   UNL     1       2.418   2.115  18.221  0.00  0.00    +0.000 A 
ATOM     10  C   UNL     1       3.023   3.330  17.888  0.00  0.00    +0.000 A 
ATOM     11  C   UNL     1       2.715   4.509  18.591  0.00  0.00    +0.000 A 
ENDROOT
BRANCH   4  12
ATOM     12  N   UNL     1       1.794   7.947  20.852  0.00  0.00    +0.000 N 
ATOM     13  H   UNL     1       1.924   7.815  21.856  0.00  0.00    +0.000 HD
BRANCH  12  14
ATOM     14  C   UNL     1       1.014   9.084  20.541  0.00  0.00    +0.000 A 
ATOM     15  C   UNL     1       0.868   9.493  19.205  0.00  0.00    +0.000 A 
ATOM     16  C   UNL     1       0.021  10.545  18.861  0.00  0.00    +0.000 A 
ATOM     17  C   UNL     1      -0.696  11.213  19.849  0.00  0.00    +0.000 A 
ATOM     18  C   UNL     1      -0.556  10.838  21.186  0.00  0.00    +0.000 A 
ATOM     19  C   UNL     1       0.294   9.783  21.529  0.00  0.00    +0.000 A 
ATOM     20 CL   UNL     1       0.415   9.325  23.191  0.00  0.00    +0.000 Cl
ENDBRANCH  12  14
ENDBRANCH   4  12
TORSDOF 2
ENDMDL
MODEL 5
REMARK VINA RESULT:      -7.0      1.058      1.153
REMARK  Name = 
REMARK  3 active torsions:
REMARK  status: ('A' for Active; 'I' for Inactive)
REMARK    1  A    between atoms: C_1  and  N_2
REMARK    2  A    between atoms: C_4  and  N_5
REMARK    3  A    between atoms: N_5  and  C_6
REMARK                            x       y       z     vdW  Elec       q    Type
REMARK                         _______ _______ _______ _____ _____    ______ ____
ROOT
ATOM      1  C   UNL     1       1.904   9.442  17.690  0.00  0.00    +0.000 C 
ATOM      2  N   UNL     1       1.582   8.957  19.048  0.00  0.00    +0.000 N 
ATOM      3  C   UNL     1       2.072   7.751  19.418  0.00  0.00    +0.000 A 
ATOM      4  C   UNL     1       1.809   7.183  20.662  0.00  0.00    +0.000 A 
ATOM      5  C   UNL     1       1.015   7.907  21.543  0.00  0.00    +0.000 A 
ATOM      6  C   UNL     1       0.505   9.159  21.177  0.00  0.00    +0.000 A 
ATOM      7  C   UNL     1      -0.306   9.888  22.060  0.00  0.00    +0.000 A 
ATOM      8  C   UNL     1      -0.820  11.131  21.692  0.00  0.00    +0.000 A 
ATOM      9  C   UNL     1      -0.534  11.660  20.439  0.00  0.00    +0.000 A 
ATOM     10  C   UNL     1       0.268  10.945  19.545  0.00  0.00    +0.000 A 
ATOM     11  C   UNL     1       0.799   9.690  19.893  0.00  0.00    +0.000 A 
ENDROOT
BRANCH   4  12
ATOM     12  N   UNL     1       2.230   5.884  21.010  0.00  0.00    +0.000 N 
ATOM     13  H   UNL     1       2.931   5.833  21.750  0.00  0.00    +0.000 HD
BRANCH  12  14
ATOM     14  C   UNL     1       2.147   4.698  20.244  0.00  0.00    +0.000 A 
ATOM     15  C   UNL     1       0.965   3.940  20.246  0.00  0.00    +0.000 A 
ATOM     16  C   UNL     1       0.820   2.827  19.419  0.00  0.00    +0.000 A 
ATOM     17  C   UNL     1       1.859   2.447  18.575  0.00  0.00    +0.000 A 
ATOM     18  C   UNL     1       3.051   3.173  18.566  0.00  0.00    +0.000 A 
ATOM     19  C   UNL     1       3.194   4.289  19.396  0.00  0.00    +0.000 A 
ATOM     20 CL   UNL     1       4.672   5.183  19.331  0.00  0.00    +0.000 Cl
ENDBRANCH  12  14
ENDBRANCH   4  12
TORSDOF 2
ENDMDL
MODEL 6
REMARK VINA RESULT:      -7.0      0.978      2.321
REMARK  Name = 
REMARK  3 active torsions:
REMARK  status: ('A' for Active; 'I' for Inactive)
REMARK    1  A    between atoms: C_1  and  N_2
REMARK    2  A    between atoms: C_4  and  N_5
REMARK    3  A    between atoms: N_5  and  C_6
REMARK                            x       y       z     vdW  Elec       q    Type
REMARK                         _______ _______ _______ _____ _____    ______ ____
ROOT
ATOM      1  C   UNL     1      -0.538   9.703  23.170  0.00  0.00    +0.000 C 
ATOM      2  N   UNL     1       0.128   9.464  21.872  0.00  0.00    +0.000 N 
ATOM      3  C   UNL     1       0.848   8.327  21.734  0.00  0.00    +0.000 A 
ATOM      4  C   UNL     1       1.539   8.013  20.566  0.00  0.00    +0.000 A 
ATOM      5  C   UNL     1       1.464   8.917  19.513  0.00  0.00    +0.000 A 
ATOM      6  C   UNL     1       0.718  10.096  19.639  0.00  0.00    +0.000 A 
ATOM      7  C   UNL     1       0.649  11.015  18.582  0.00  0.00    +0.000 A 
ATOM      8  C   UNL     1      -0.088  12.192  18.710  0.00  0.00    +0.000 A 
ATOM      9  C   UNL     1      -0.761  12.466  19.894  0.00  0.00    +0.000 A 
ATOM     10  C   UNL     1      -0.699  11.564  20.959  0.00  0.00    +0.000 A 
ATOM     11  C   UNL     1       0.036  10.370  20.854  0.00  0.00    +0.000 A 
ENDROOT
BRANCH   4  12
ATOM     12  N   UNL     1       2.374   6.883  20.457  0.00  0.00    +0.000 N 
ATOM     13  H   UNL     1       3.374   7.065  20.551  0.00  0.00    +0.000 HD
BRANCH  12  14
ATOM     14  C   UNL     1       2.093   5.637  19.850  0.00  0.00    +0.000 A 
ATOM     15  C   UNL     1       1.313   4.685  20.526  0.00  0.00    +0.000 A 
ATOM     16  C   UNL     1       0.934   3.494  19.909  0.00  0.00    +0.000 A 
ATOM     17  C   UNL     1       1.332   3.230  18.602  0.00  0.00    +0.000 A 
ATOM     18  C   UNL     1       2.121   4.152  17.915  0.00  0.00    +0.000 A 
ATOM     19  C   UNL     1       2.501   5.345  18.535  0.00  0.00    +0.000 A 
ATOM     20 CL   UNL     1       3.450   6.477  17.638  0.00  0.00    +0.000 Cl
ENDBRANCH  12  14
ENDBRANCH   4  12
TORSDOF 2
ENDMDL
MODEL 7
REMARK VINA RESULT:      -7.0      4.647      7.502
REMARK  Name = 
REMARK  3 active torsions:
REMARK  status: ('A' for Active; 'I' for Inactive)
REMARK    1  A    between atoms: C_1  and  N_2
REMARK    2  A    between atoms: C_4  and  N_5
REMARK    3  A    between atoms: N_5  and  C_6
REMARK                            x       y       z     vdW  Elec       q    Type
REMARK                         _______ _______ _______ _____ _____    ______ ____
ROOT
ATOM      1  C   UNL     1       7.669   7.139  17.435  0.00  0.00    +0.000 C 
ATOM      2  N   UNL     1       6.799   5.954  17.277  0.00  0.00    +0.000 N 
ATOM      3  C   UNL     1       6.148   5.501  18.373  0.00  0.00    +0.000 A 
ATOM      4  C   UNL     1       5.325   4.378  18.347  0.00  0.00    +0.000 A 
ATOM      5  C   UNL     1       5.178   3.719  17.133  0.00  0.00    +0.000 A 
ATOM      6  C   UNL     1       5.841   4.179  15.988  0.00  0.00    +0.000 A 
ATOM      7  C   UNL     1       5.703   3.509  14.763  0.00  0.00    +0.000 A 
ATOM      8  C   UNL     1       6.369   3.963  13.625  0.00  0.00    +0.000 A 
ATOM      9  C   UNL     1       7.182   5.088  13.697  0.00  0.00    +0.000 A 
ATOM     10  C   UNL     1       7.335   5.765  14.910  0.00  0.00    +0.000 A 
ATOM     11  C   UNL     1       6.673   5.327  16.071  0.00  0.00    +0.000 A 
ENDROOT
BRANCH   4  12
ATOM     12  N   UNL     1       4.731   3.843  19.507  0.00  0.00    +0.000 N 
ATOM     13  H   UNL     1       5.342   3.268  20.088  0.00  0.00    +0.000 HD
BRANCH  12  14
ATOM     14  C   UNL     1       3.358   3.641  19.779  0.00  0.00    +0.000 A 
ATOM     15  C   UNL     1       2.605   4.655  20.393  0.00  0.00    +0.000 A 
ATOM     16  C   UNL     1       1.230   4.523  20.576  0.00  0.00    +0.000 A 
ATOM     17  C   UNL     1       0.579   3.368  20.151  0.00  0.00    +0.000 A 
ATOM     18  C   UNL     1       1.307   2.338  19.554  0.00  0.00    +0.000 A 
ATOM     19  C   UNL     1       2.686   2.473  19.371  0.00  0.00    +0.000 A 
ATOM     20 CL   UNL     1       3.547   1.190  18.596  0.00  0.00    +0.000 Cl
ENDBRANCH  12  14
ENDBRANCH   4  12
TORSDOF 2
ENDMDL
MODEL 8
REMARK VINA RESULT:      -7.0      1.545      6.276
REMARK  Name = 
REMARK  3 active torsions:
REMARK  status: ('A' for Active; 'I' for Inactive)
REMARK    1  A    between atoms: C_1  and  N_2
REMARK    2  A    between atoms: C_4  and  N_5
REMARK    3  A    between atoms: N_5  and  C_6
REMARK                            x       y       z     vdW  Elec       q    Type
REMARK                         _______ _______ _______ _____ _____    ______ ____
ROOT
ATOM      1  C   UNL     1       4.247   5.477  17.152  0.00  0.00    +0.000 C 
ATOM      2  N   UNL     1       3.265   5.486  18.255  0.00  0.00    +0.000 N 
ATOM      3  C   UNL     1       3.136   6.626  18.974  0.00  0.00    +0.000 A 
ATOM      4  C   UNL     1       2.263   6.740  20.053  0.00  0.00    +0.000 A 
ATOM      5  C   UNL     1       1.498   5.626  20.379  0.00  0.00    +0.000 A 
ATOM      6  C   UNL     1       1.616   4.441  19.641  0.00  0.00    +0.000 A 
ATOM      7  C   UNL     1       0.853   3.312  19.975  0.00  0.00    +0.000 A 
ATOM      8  C   UNL     1       0.975   2.130  19.245  0.00  0.00    +0.000 A 
ATOM      9  C   UNL     1       1.861   2.060  18.177  0.00  0.00    +0.000 A 
ATOM     10  C   UNL     1       2.632   3.174  17.833  0.00  0.00    +0.000 A 
ATOM     11  C   UNL     1       2.526   4.377  18.553  0.00  0.00    +0.000 A 
ENDROOT
BRANCH   4  12
ATOM     12  N   UNL     1       2.205   7.888  20.866  0.00  0.00    +0.000 N 
ATOM     13  H   UNL     1       2.876   7.917  21.635  0.00  0.00    +0.000 HD
BRANCH  12  14
ATOM     14  C   UNL     1       1.131   8.793  21.036  0.00  0.00    +0.000 A 
ATOM     15  C   UNL     1       0.570   8.989  22.309  0.00  0.00    +0.000 A 
ATOM     16  C   UNL     1      -0.416   9.950  22.523  0.00  0.00    +0.000 A 
ATOM     17  C   UNL     1      -0.865  10.733  21.465  0.00  0.00    +0.000 A 
ATOM     18  C   UNL     1      -0.337  10.547  20.187  0.00  0.00    +0.000 A 
ATOM     19  C   UNL     1       0.652   9.583  19.974  0.00  0.00    +0.000 A 
ATOM     20 CL   UNL     1       1.306   9.405  18.384  0.00  0.00    +0.000 Cl
ENDBRANCH  12  14
ENDBRANCH   4  12
TORSDOF 2
ENDMDL
MODEL 9
REMARK VINA RESULT:      -6.9      5.222      6.640
REMARK  Name = 
REMARK  3 active torsions:
REMARK  status: ('A' for Active; 'I' for Inactive)
REMARK    1  A    between atoms: C_1  and  N_2
REMARK    2  A    between atoms: C_4  and  N_5
REMARK    3  A    between atoms: N_5  and  C_6
REMARK                            x       y       z     vdW  Elec       q    Type
REMARK                         _______ _______ _______ _____ _____    ______ ____
ROOT
ATOM      1  C   UNL     1       5.552   5.378  14.666  0.00  0.00    +0.000 C 
ATOM      2  N   UNL     1       5.658   5.036  16.099  0.00  0.00    +0.000 N 
ATOM      3  C   UNL     1       4.906   4.009  16.559  0.00  0.00    +0.000 A 
ATOM      4  C   UNL     1       4.904   3.618  17.895  0.00  0.00    +0.000 A 
ATOM      5  C   UNL     1       5.722   4.322  18.771  0.00  0.00    +0.000 A 
ATOM      6  C   UNL     1       6.511   5.384  18.309  0.00  0.00    +0.000 A 
ATOM      7  C   UNL     1       7.329   6.104  19.192  0.00  0.00    +0.000 A 
ATOM      8  C   UNL     1       8.109   7.166  18.734  0.00  0.00    +0.000 A 
ATOM      9  C   UNL     1       8.078   7.523  17.392  0.00  0.00    +0.000 A 
ATOM     10  C   UNL     1       7.265   6.821  16.499  0.00  0.00    +0.000 A 
ATOM     11  C   UNL     1       6.470   5.745  16.936  0.00  0.00    +0.000 A 
ENDROOT
BRANCH   4  12
ATOM     12  N   UNL     1       4.045   2.620  18.395  0.00  0.00    +0.000 N 
ATOM     13  H   UNL     1       3.907   1.813  17.785  0.00  0.00    +0.000 HD
BRANCH  12  14
ATOM     14  C   UNL     1       3.049   2.735  19.393  0.00  0.00    +0.000 A 
ATOM     15  C   UNL     1       3.303   2.277  20.696  0.00  0.00    +0.000 A 
ATOM     16  C   UNL     1       2.381   2.474  21.723  0.00  0.00    +0.000 A 
ATOM     17  C   UNL     1       1.181   3.131  21.463  0.00  0.00    +0.000 A 
ATOM     18  C   UNL     1       0.897   3.580  20.174  0.00  0.00    +0.000 A 
ATOM     19  C   UNL     1       1.823   3.382  19.146  0.00  0.00    +0.000 A 
ATOM     20 CL   UNL     1       1.450   3.983  17.569  0.00  0.00    +0.000 Cl
ENDBRANCH  12  14
ENDBRANCH   4  12
TORSDOF 2
ENDMDL
