MODEL 1
REMARK VINA RESULT:      -8.4      0.000      0.000
REMARK  Name = 
REMARK  12 active torsions:
REMARK  status: ('A' for Active; 'I' for Inactive)
REMARK    1  A    between atoms: C_1  and  O_2
REMARK    2  A    between atoms: O_2  and  C_3
REMARK    3  A    between atoms: C_5  and  C_6
REMARK    4  A    between atoms: C_7  and  C_8
REMARK    5  A    between atoms: C_8  and  C_10
REMARK    6  A    between atoms: C_14  and  O_15
REMARK    7  A    between atoms: O_15  and  C_16
REMARK    8  A    between atoms: C_16  and  C_17
REMARK    9  A    between atoms: C_30  and  O_31
REMARK   10  A    between atoms: O_31  and  C_32
REMARK   11  A    between atoms: C_33  and  O_34
REMARK   12  A    between atoms: O_34  and  C_35
REMARK                            x       y       z     vdW  Elec       q    Type
REMARK                         _______ _______ _______ _____ _____    ______ ____
ROOT
ATOM      1  C   UNL     1       1.535   8.748  19.377  0.00  0.00    +0.000 A 
ATOM      2  C   UNL     1       2.051   7.998  18.386  0.00  0.00    +0.000 A 
ATOM      3  C   UNL     1       2.526   6.652  18.652  0.00  0.00    +0.000 A 
ATOM      4  C   UNL     1       3.292   5.941  17.732  0.00  0.00    +0.000 A 
ATOM      5  C   UNL     1       3.760   4.662  18.055  0.00  0.00    +0.000 A 
ATOM      6  C   UNL     1       3.360   4.052  19.247  0.00  0.00    +0.000 A 
ATOM      7  C   UNL     1       2.579   4.754  20.165  0.00  0.00    +0.000 A 
ATOM      8  C   UNL     1       2.207   6.062  19.867  0.00  0.00    +0.000 A 
ATOM      9  O   UNL     1       1.559   6.801  20.865  0.00  0.00    +0.000 OA
ATOM     10  C   UNL     1       1.497   8.188  20.749  0.00  0.00    +0.000 A 
ATOM     11  O   UNL     1       1.393   8.878  21.758  0.00  0.00    +0.000 OA
ENDROOT
BRANCH   1  12
ATOM     12  C   UNL     1       1.081  10.124  18.984  0.00  0.00    +0.000 C 
ATOM     13  O   UNL     1       1.787  10.852  18.289  0.00  0.00    +0.000 OA
BRANCH  12  15
ATOM     14  C   UNL     1      -1.135  11.129  18.577  0.00  0.00    +0.000 C 
ATOM     15  C   UNL     1      -0.257  10.596  19.444  0.00  0.00    +0.000 C 
BRANCH  14  18
ATOM     16  C   UNL     1      -4.850  11.954  18.661  0.00  0.00    +0.000 A 
ATOM     17  C   UNL     1      -3.583  11.559  18.194  0.00  0.00    +0.000 A 
ATOM     18  C   UNL     1      -2.433  11.703  18.974  0.00  0.00    +0.000 A 
ATOM     19  C   UNL     1      -2.568  12.314  20.221  0.00  0.00    +0.000 A 
ATOM     20  C   UNL     1      -3.805  12.798  20.677  0.00  0.00    +0.000 A 
ATOM     21  C   UNL     1      -4.971  12.634  19.892  0.00  0.00    +0.000 A 
BRANCH  16  23
ATOM     22  C   UNL     1      -6.419  12.747  17.070  0.00  0.00    +0.000 C 
ATOM     23  O   UNL     1      -5.970  11.682  17.913  0.00  0.00    +0.000 OA
ENDBRANCH  16  23
BRANCH  20  24
ATOM     24  O   UNL     1      -3.685  13.377  21.918  0.00  0.00    +0.000 OA
ATOM     25  C   UNL     1      -3.231  12.603  23.020  0.00  0.00    +0.000 C 
ENDBRANCH  20  24
BRANCH  21  26
ATOM     26  O   UNL     1      -6.121  13.153  20.417  0.00  0.00    +0.000 OA
ATOM     27  C   UNL     1      -6.987  12.387  21.234  0.00  0.00    +0.000 C 
ENDBRANCH  21  26
ENDBRANCH  14  18
ENDBRANCH  12  15
ENDBRANCH   1  12
BRANCH   5  28
ATOM     28  O   UNL     1       4.626   3.942  17.275  0.00  0.00    +0.000 OA
BRANCH  28  29
ATOM     29  C   UNL     1       5.430   4.733  16.394  0.00  0.00    +0.000 C 
BRANCH  29  30
ATOM     30  C   UNL     1       6.413   5.548  17.192  0.00  0.00    +0.000 A 
ATOM     31  C   UNL     1       6.678   6.880  16.850  0.00  0.00    +0.000 A 
ATOM     32  C   UNL     1       7.582   7.634  17.599  0.00  0.00    +0.000 A 
ATOM     33  C   UNL     1       8.225   7.064  18.697  0.00  0.00    +0.000 A 
ATOM     34  C   UNL     1       7.967   5.741  19.048  0.00  0.00    +0.000 A 
ATOM     35  C   UNL     1       7.066   4.985  18.300  0.00  0.00    +0.000 A 
ENDBRANCH  29  30
ENDBRANCH  28  29
ENDBRANCH   5  28
TORSDOF 9
ENDMDL
MODEL 2
REMARK VINA RESULT:      -8.4      1.788      3.181
REMARK  Name = 
REMARK  12 active torsions:
REMARK  status: ('A' for Active; 'I' for Inactive)
REMARK    1  A    between atoms: C_1  and  O_2
REMARK    2  A    between atoms: O_2  and  C_3
REMARK    3  A    between atoms: C_5  and  C_6
REMARK    4  A    between atoms: C_7  and  C_8
REMARK    5  A    between atoms: C_8  and  C_10
REMARK    6  A    between atoms: C_14  and  O_15
REMARK    7  A    between atoms: O_15  and  C_16
REMARK    8  A    between atoms: C_16  and  C_17
REMARK    9  A    between atoms: C_30  and  O_31
REMARK   10  A    between atoms: O_31  and  C_32
REMARK   11  A    between atoms: C_33  and  O_34
REMARK   12  A    between atoms: O_34  and  C_35
REMARK                            x       y       z     vdW  Elec       q    Type
REMARK                         _______ _______ _______ _____ _____    ______ ____
ROOT
ATOM      1  C   UNL     1       1.957   8.896  18.748  0.00  0.00    +0.000 A 
ATOM      2  C   UNL     1       2.696   8.278  17.809  0.00  0.00    +0.000 A 
ATOM      3  C   UNL     1       3.228   6.948  18.050  0.00  0.00    +0.000 A 
ATOM      4  C   UNL     1       4.197   6.378  17.228  0.00  0.00    +0.000 A 
ATOM      5  C   UNL     1       4.707   5.110  17.528  0.00  0.00    +0.000 A 
ATOM      6  C   UNL     1       4.160   4.367  18.578  0.00  0.00    +0.000 A 
ATOM      7  C   UNL     1       3.177   4.927  19.394  0.00  0.00    +0.000 A 
ATOM      8  C   UNL     1       2.755   6.228  19.138  0.00  0.00    +0.000 A 
ATOM      9  O   UNL     1       1.886   6.827  20.059  0.00  0.00    +0.000 OA
ATOM     10  C   UNL     1       1.730   8.212  20.044  0.00  0.00    +0.000 A 
ATOM     11  O   UNL     1       1.398   8.798  21.069  0.00  0.00    +0.000 OA
ENDROOT
BRANCH   1  12
ATOM     12  C   UNL     1       1.465  10.269  18.390  0.00  0.00    +0.000 C 
ATOM     13  O   UNL     1       2.251  11.173  18.114  0.00  0.00    +0.000 OA
BRANCH  12  15
ATOM     14  C   UNL     1      -0.560  11.455  19.151  0.00  0.00    +0.000 C 
ATOM     15  C   UNL     1      -0.005  10.519  18.363  0.00  0.00    +0.000 C 
BRANCH  14  18
ATOM     16  C   UNL     1      -3.942  12.772  20.300  0.00  0.00    +0.000 A 
ATOM     17  C   UNL     1      -2.584  12.402  20.304  0.00  0.00    +0.000 A 
ATOM     18  C   UNL     1      -2.012  11.689  19.248  0.00  0.00    +0.000 A 
ATOM     19  C   UNL     1      -2.848  11.296  18.203  0.00  0.00    +0.000 A 
ATOM     20  C   UNL     1      -4.224  11.574  18.213  0.00  0.00    +0.000 A 
ATOM     21  C   UNL     1      -4.797  12.313  19.275  0.00  0.00    +0.000 A 
BRANCH  16  23
ATOM     22  C   UNL     1      -4.740  12.913  22.528  0.00  0.00    +0.000 C 
ATOM     23  O   UNL     1      -4.434  13.578  21.298  0.00  0.00    +0.000 OA
ENDBRANCH  16  23
BRANCH  20  24
ATOM     24  O   UNL     1      -4.842  11.071  17.093  0.00  0.00    +0.000 OA
ATOM     25  C   UNL     1      -4.073  10.761  15.939  0.00  0.00    +0.000 C 
ENDBRANCH  20  24
BRANCH  21  26
ATOM     26  O   UNL     1      -6.147  12.518  19.200  0.00  0.00    +0.000 OA
ATOM     27  C   UNL     1      -7.076  11.633  19.798  0.00  0.00    +0.000 C 
ENDBRANCH  21  26
ENDBRANCH  14  18
ENDBRANCH  12  15
ENDBRANCH   1  12
BRANCH   5  28
ATOM     28  O   UNL     1       5.750   4.524  16.860  0.00  0.00    +0.000 OA
BRANCH  28  29
ATOM     29  C   UNL     1       5.358   3.651  15.796  0.00  0.00    +0.000 C 
BRANCH  29  30
ATOM     30  C   UNL     1       6.101   4.013  14.537  0.00  0.00    +0.000 A 
ATOM     31  C   UNL     1       5.788   3.392  13.322  0.00  0.00    +0.000 A 
ATOM     32  C   UNL     1       6.473   3.738  12.156  0.00  0.00    +0.000 A 
ATOM     33  C   UNL     1       7.474   4.709  12.196  0.00  0.00    +0.000 A 
ATOM     34  C   UNL     1       7.791   5.334  13.399  0.00  0.00    +0.000 A 
ATOM     35  C   UNL     1       7.109   4.989  14.565  0.00  0.00    +0.000 A 
ENDBRANCH  29  30
ENDBRANCH  28  29
ENDBRANCH   5  28
TORSDOF 9
ENDMDL
MODEL 3
REMARK VINA RESULT:      -8.4      1.197      2.487
REMARK  Name = 
REMARK  12 active torsions:
REMARK  status: ('A' for Active; 'I' for Inactive)
REMARK    1  A    between atoms: C_1  and  O_2
REMARK    2  A    between atoms: O_2  and  C_3
REMARK    3  A    between atoms: C_5  and  C_6
REMARK    4  A    between atoms: C_7  and  C_8
REMARK    5  A    between atoms: C_8  and  C_10
REMARK    6  A    between atoms: C_14  and  O_15
REMARK    7  A    between atoms: O_15  and  C_16
REMARK    8  A    between atoms: C_16  and  C_17
REMARK    9  A    between atoms: C_30  and  O_31
REMARK   10  A    between atoms: O_31  and  C_32
REMARK   11  A    between atoms: C_33  and  O_34
REMARK   12  A    between atoms: O_34  and  C_35
REMARK                            x       y       z     vdW  Elec       q    Type
REMARK                         _______ _______ _______ _____ _____    ______ ____
ROOT
ATOM      1  C   UNL     1       1.217   9.605  19.842  0.00  0.00    +0.000 A 
ATOM      2  C   UNL     1       1.646   8.805  18.849  0.00  0.00    +0.000 A 
ATOM      3  C   UNL     1       2.056   7.441  19.128  0.00  0.00    +0.000 A 
ATOM      4  C   UNL     1       2.740   6.667  18.194  0.00  0.00    +0.000 A 
ATOM      5  C   UNL     1       3.150   5.371  18.528  0.00  0.00    +0.000 A 
ATOM      6  C   UNL     1       2.770   4.812  19.752  0.00  0.00    +0.000 A 
ATOM      7  C   UNL     1       2.071   5.577  20.684  0.00  0.00    +0.000 A 
ATOM      8  C   UNL     1       1.760   6.897  20.371  0.00  0.00    +0.000 A 
ATOM      9  O   UNL     1       1.199   7.694  21.376  0.00  0.00    +0.000 OA
ATOM     10  C   UNL     1       1.209   9.079  21.229  0.00  0.00    +0.000 A 
ATOM     11  O   UNL     1       1.189   9.797  22.223  0.00  0.00    +0.000 OA
ENDROOT
BRANCH   1  12
ATOM     12  C   UNL     1       0.823  10.996  19.435  0.00  0.00    +0.000 C 
ATOM     13  O   UNL     1       1.588  11.945  19.596  0.00  0.00    +0.000 OA
BRANCH  12  15
ATOM     14  C   UNL     1      -1.552  11.651  19.550  0.00  0.00    +0.000 C 
ATOM     15  C   UNL     1      -0.516  11.209  18.816  0.00  0.00    +0.000 C 
BRANCH  14  18
ATOM     16  C   UNL     1      -5.211  12.650  19.222  0.00  0.00    +0.000 A 
ATOM     17  C   UNL     1      -3.954  12.359  19.784  0.00  0.00    +0.000 A 
ATOM     18  C   UNL     1      -2.924  11.792  19.029  0.00  0.00    +0.000 A 
ATOM     19  C   UNL     1      -3.198  11.463  17.701  0.00  0.00    +0.000 A 
ATOM     20  C   UNL     1      -4.470  11.661  17.139  0.00  0.00    +0.000 A 
ATOM     21  C   UNL     1      -5.505  12.252  17.900  0.00  0.00    +0.000 A 
BRANCH  16  23
ATOM     22  C   UNL     1      -5.685  13.864  21.202  0.00  0.00    +0.000 C 
ATOM     23  O   UNL     1      -6.154  13.319  19.965  0.00  0.00    +0.000 OA
ENDBRANCH  16  23
BRANCH  20  24
ATOM     24  O   UNL     1      -4.504  11.242  15.830  0.00  0.00    +0.000 OA
ATOM     25  C   UNL     1      -3.383  10.575  15.269  0.00  0.00    +0.000 C 
ENDBRANCH  20  24
BRANCH  21  26
ATOM     26  O   UNL     1      -6.709  12.387  17.266  0.00  0.00    +0.000 OA
ATOM     27  C   UNL     1      -7.168  13.637  16.785  0.00  0.00    +0.000 C 
ENDBRANCH  21  26
ENDBRANCH  14  18
ENDBRANCH  12  15
ENDBRANCH   1  12
BRANCH   5  28
ATOM     28  O   UNL     1       3.939   4.585  17.730  0.00  0.00    +0.000 OA
BRANCH  28  29
ATOM     29  C   UNL     1       4.716   5.307  16.768  0.00  0.00    +0.000 C 
BRANCH  29  30
ATOM     30  C   UNL     1       5.946   5.873  17.427  0.00  0.00    +0.000 A 
ATOM     31  C   UNL     1       6.451   7.121  17.040  0.00  0.00    +0.000 A 
ATOM     32  C   UNL     1       7.585   7.647  17.661  0.00  0.00    +0.000 A 
ATOM     33  C   UNL     1       8.222   6.930  18.674  0.00  0.00    +0.000 A 
ATOM     34  C   UNL     1       7.727   5.689  19.069  0.00  0.00    +0.000 A 
ATOM     35  C   UNL     1       6.595   5.162  18.449  0.00  0.00    +0.000 A 
ENDBRANCH  29  30
ENDBRANCH  28  29
ENDBRANCH   5  28
TORSDOF 9
ENDMDL
MODEL 4
REMARK VINA RESULT:      -8.4      0.945      2.364
REMARK  Name = 
REMARK  12 active torsions:
REMARK  status: ('A' for Active; 'I' for Inactive)
REMARK    1  A    between atoms: C_1  and  O_2
REMARK    2  A    between atoms: O_2  and  C_3
REMARK    3  A    between atoms: C_5  and  C_6
REMARK    4  A    between atoms: C_7  and  C_8
REMARK    5  A    between atoms: C_8  and  C_10
REMARK    6  A    between atoms: C_14  and  O_15
REMARK    7  A    between atoms: O_15  and  C_16
REMARK    8  A    between atoms: C_16  and  C_17
REMARK    9  A    between atoms: C_30  and  O_31
REMARK   10  A    between atoms: O_31  and  C_32
REMARK   11  A    between atoms: C_33  and  O_34
REMARK   12  A    between atoms: O_34  and  C_35
REMARK                            x       y       z     vdW  Elec       q    Type
REMARK                         _______ _______ _______ _____ _____    ______ ____
ROOT
ATOM      1  C   UNL     1       1.564   9.059  19.199  0.00  0.00    +0.000 A 
ATOM      2  C   UNL     1       2.089   8.191  18.315  0.00  0.00    +0.000 A 
ATOM      3  C   UNL     1       2.465   6.852  18.733  0.00  0.00    +0.000 A 
ATOM      4  C   UNL     1       3.237   6.015  17.932  0.00  0.00    +0.000 A 
ATOM      5  C   UNL     1       3.608   4.749  18.400  0.00  0.00    +0.000 A 
ATOM      6  C   UNL     1       3.104   4.279  19.616  0.00  0.00    +0.000 A 
ATOM      7  C   UNL     1       2.317   5.108  20.415  0.00  0.00    +0.000 A 
ATOM      8  C   UNL     1       2.043   6.399  19.976  0.00  0.00    +0.000 A 
ATOM      9  O   UNL     1       1.385   7.265  20.859  0.00  0.00    +0.000 OA
ATOM     10  C   UNL     1       1.414   8.636  20.612  0.00  0.00    +0.000 A 
ATOM     11  O   UNL     1       1.296   9.424  21.544  0.00  0.00    +0.000 OA
ENDROOT
BRANCH   1  12
ATOM     12  C   UNL     1       1.218  10.415  18.654  0.00  0.00    +0.000 C 
ATOM     13  O   UNL     1       2.094  11.234  18.384  0.00  0.00    +0.000 OA
BRANCH  12  15
ATOM     14  C   UNL     1      -0.924  11.410  19.366  0.00  0.00    +0.000 C 
ATOM     15  C   UNL     1      -0.218  10.752  18.431  0.00  0.00    +0.000 C 
BRANCH  14  18
ATOM     16  C   UNL     1      -4.401  12.798  20.056  0.00  0.00    +0.000 A 
ATOM     17  C   UNL     1      -3.071  12.381  20.246  0.00  0.00    +0.000 A 
ATOM     18  C   UNL     1      -2.367  11.691  19.255  0.00  0.00    +0.000 A 
ATOM     19  C   UNL     1      -3.048  11.370  18.081  0.00  0.00    +0.000 A 
ATOM     20  C   UNL     1      -4.402  11.695  17.899  0.00  0.00    +0.000 A 
ATOM     21  C   UNL     1      -5.106  12.410  18.896  0.00  0.00    +0.000 A 
BRANCH  16  23
ATOM     22  C   UNL     1      -4.765  14.984  20.897  0.00  0.00    +0.000 C 
ATOM     23  O   UNL     1      -5.015  13.580  21.005  0.00  0.00    +0.000 OA
ENDBRANCH  16  23
BRANCH  20  24
ATOM     24  O   UNL     1      -4.858  11.259  16.678  0.00  0.00    +0.000 OA
ATOM     25  C   UNL     1      -3.935  10.808  15.696  0.00  0.00    +0.000 C 
ENDBRANCH  20  24
BRANCH  21  26
ATOM     26  O   UNL     1      -6.423  12.665  18.630  0.00  0.00    +0.000 OA
ATOM     27  C   UNL     1      -6.840  13.843  17.965  0.00  0.00    +0.000 C 
ENDBRANCH  21  26
ENDBRANCH  14  18
ENDBRANCH  12  15
ENDBRANCH   1  12
BRANCH   5  28
ATOM     28  O   UNL     1       4.470   3.910  17.745  0.00  0.00    +0.000 OA
BRANCH  28  29
ATOM     29  C   UNL     1       5.279   4.549  16.750  0.00  0.00    +0.000 C 
BRANCH  29  30
ATOM     30  C   UNL     1       6.294   5.442  17.414  0.00  0.00    +0.000 A 
ATOM     31  C   UNL     1       6.971   5.017  18.564  0.00  0.00    +0.000 A 
ATOM     32  C   UNL     1       7.919   5.844  19.169  0.00  0.00    +0.000 A 
ATOM     33  C   UNL     1       8.198   7.099  18.629  0.00  0.00    +0.000 A 
ATOM     34  C   UNL     1       7.532   7.530  17.484  0.00  0.00    +0.000 A 
ATOM     35  C   UNL     1       6.584   6.707  16.878  0.00  0.00    +0.000 A 
ENDBRANCH  29  30
ENDBRANCH  28  29
ENDBRANCH   5  28
TORSDOF 9
ENDMDL
MODEL 5
REMARK VINA RESULT:      -8.4      1.874      3.388
REMARK  Name = 
REMARK  12 active torsions:
REMARK  status: ('A' for Active; 'I' for Inactive)
REMARK    1  A    between atoms: C_1  and  O_2
REMARK    2  A    between atoms: O_2  and  C_3
REMARK    3  A    between atoms: C_5  and  C_6
REMARK    4  A    between atoms: C_7  and  C_8
REMARK    5  A    between atoms: C_8  and  C_10
REMARK    6  A    between atoms: C_14  and  O_15
REMARK    7  A    between atoms: O_15  and  C_16
REMARK    8  A    between atoms: C_16  and  C_17
REMARK    9  A    between atoms: C_30  and  O_31
REMARK   10  A    between atoms: O_31  and  C_32
REMARK   11  A    between atoms: C_33  and  O_34
REMARK   12  A    between atoms: O_34  and  C_35
REMARK                            x       y       z     vdW  Elec       q    Type
REMARK                         _______ _______ _______ _____ _____    ______ ____
ROOT
ATOM      1  C   UNL     1       1.312   9.149  19.724  0.00  0.00    +0.000 A 
ATOM      2  C   UNL     1       1.925   8.859  18.563  0.00  0.00    +0.000 A 
ATOM      3  C   UNL     1       2.626   7.598  18.396  0.00  0.00    +0.000 A 
ATOM      4  C   UNL     1       3.482   7.363  17.322  0.00  0.00    +0.000 A 
ATOM      5  C   UNL     1       4.166   6.145  17.230  0.00  0.00    +0.000 A 
ATOM      6  C   UNL     1       3.900   5.123  18.146  0.00  0.00    +0.000 A 
ATOM      7  C   UNL     1       3.030   5.348  19.213  0.00  0.00    +0.000 A 
ATOM      8  C   UNL     1       2.437   6.600  19.342  0.00  0.00    +0.000 A 
ATOM      9  O   UNL     1       1.694   6.856  20.501  0.00  0.00    +0.000 OA
ATOM     10  C   UNL     1       1.397   8.175  20.839  0.00  0.00    +0.000 A 
ATOM     11  O   UNL     1       1.199   8.472  22.013  0.00  0.00    +0.000 OA
ENDROOT
BRANCH   1  12
ATOM     12  C   UNL     1       0.623  10.482  19.783  0.00  0.00    +0.000 C 
ATOM     13  O   UNL     1       1.157  11.449  20.324  0.00  0.00    +0.000 OA
BRANCH  12  15
ATOM     14  C   UNL     1      -1.550  11.618  19.519  0.00  0.00    +0.000 C 
ATOM     15  C   UNL     1      -0.724  10.621  19.159  0.00  0.00    +0.000 C 
BRANCH  14  18
ATOM     16  C   UNL     1      -5.225  12.581  19.265  0.00  0.00    +0.000 A 
ATOM     17  C   UNL     1      -3.959  12.285  19.803  0.00  0.00    +0.000 A 
ATOM     18  C   UNL     1      -2.929  11.761  19.017  0.00  0.00    +0.000 A 
ATOM     19  C   UNL     1      -3.213  11.480  17.680  0.00  0.00    +0.000 A 
ATOM     20  C   UNL     1      -4.492  11.683  17.138  0.00  0.00    +0.000 A 
ATOM     21  C   UNL     1      -5.527  12.230  17.932  0.00  0.00    +0.000 A 
BRANCH  16  23
ATOM     22  C   UNL     1      -6.185  12.820  21.420  0.00  0.00    +0.000 C 
ATOM     23  O   UNL     1      -6.168  13.208  20.043  0.00  0.00    +0.000 OA
ENDBRANCH  16  23
BRANCH  20  24
ATOM     24  O   UNL     1      -4.534  11.314  15.815  0.00  0.00    +0.000 OA
ATOM     25  C   UNL     1      -3.562  10.418  15.296  0.00  0.00    +0.000 C 
ENDBRANCH  20  24
BRANCH  21  26
ATOM     26  O   UNL     1      -6.739  12.374  17.316  0.00  0.00    +0.000 OA
ATOM     27  C   UNL     1      -7.179  13.619  16.804  0.00  0.00    +0.000 C 
ENDBRANCH  21  26
ENDBRANCH  14  18
ENDBRANCH  12  15
ENDBRANCH   1  12
BRANCH   5  28
ATOM     28  O   UNL     1       5.124   5.872  16.290  0.00  0.00    +0.000 OA
BRANCH  28  29
ATOM     29  C   UNL     1       5.162   4.506  15.861  0.00  0.00    +0.000 C 
BRANCH  29  30
ATOM     30  C   UNL     1       5.867   4.406  14.535  0.00  0.00    +0.000 A 
ATOM     31  C   UNL     1       7.066   5.096  14.312  0.00  0.00    +0.000 A 
ATOM     32  C   UNL     1       7.722   4.993  13.085  0.00  0.00    +0.000 A 
ATOM     33  C   UNL     1       7.186   4.197  12.072  0.00  0.00    +0.000 A 
ATOM     34  C   UNL     1       5.996   3.505  12.283  0.00  0.00    +0.000 A 
ATOM     35  C   UNL     1       5.339   3.608  13.508  0.00  0.00    +0.000 A 
ENDBRANCH  29  30
ENDBRANCH  28  29
ENDBRANCH   5  28
TORSDOF 9
ENDMDL
MODEL 6
REMARK VINA RESULT:      -8.4      1.854      3.289
REMARK  Name = 
REMARK  12 active torsions:
REMARK  status: ('A' for Active; 'I' for Inactive)
REMARK    1  A    between atoms: C_1  and  O_2
REMARK    2  A    between atoms: O_2  and  C_3
REMARK    3  A    between atoms: C_5  and  C_6
REMARK    4  A    between atoms: C_7  and  C_8
REMARK    5  A    between atoms: C_8  and  C_10
REMARK    6  A    between atoms: C_14  and  O_15
REMARK    7  A    between atoms: O_15  and  C_16
REMARK    8  A    between atoms: C_16  and  C_17
REMARK    9  A    between atoms: C_30  and  O_31
REMARK   10  A    between atoms: O_31  and  C_32
REMARK   11  A    between atoms: C_33  and  O_34
REMARK   12  A    between atoms: O_34  and  C_35
REMARK                            x       y       z     vdW  Elec       q    Type
REMARK                         _______ _______ _______ _____ _____    ______ ____
ROOT
ATOM      1  C   UNL     1       2.100   8.331  18.701  0.00  0.00    +0.000 A 
ATOM      2  C   UNL     1       2.873   7.767  17.756  0.00  0.00    +0.000 A 
ATOM      3  C   UNL     1       3.530   6.496  18.005  0.00  0.00    +0.000 A 
ATOM      4  C   UNL     1       4.530   6.003  17.170  0.00  0.00    +0.000 A 
ATOM      5  C   UNL     1       5.162   4.793  17.478  0.00  0.00    +0.000 A 
ATOM      6  C   UNL     1       4.708   4.022  18.552  0.00  0.00    +0.000 A 
ATOM      7  C   UNL     1       3.695   4.503  19.381  0.00  0.00    +0.000 A 
ATOM      8  C   UNL     1       3.149   5.755  19.115  0.00  0.00    +0.000 A 
ATOM      9  O   UNL     1       2.248   6.287  20.045  0.00  0.00    +0.000 OA
ATOM     10  C   UNL     1       1.964   7.651  20.012  0.00  0.00    +0.000 A 
ATOM     11  O   UNL     1       1.601   8.222  21.035  0.00  0.00    +0.000 OA
ENDROOT
BRANCH   1  12
ATOM     12  C   UNL     1       1.475   9.646  18.333  0.00  0.00    +0.000 C 
ATOM     13  O   UNL     1       2.048  10.433  17.581  0.00  0.00    +0.000 OA
BRANCH  12  15
ATOM     14  C   UNL     1      -0.397  11.205  18.719  0.00  0.00    +0.000 C 
ATOM     15  C   UNL     1       0.132   9.981  18.887  0.00  0.00    +0.000 C 
BRANCH  14  18
ATOM     16  C   UNL     1      -2.937  12.696  21.131  0.00  0.00    +0.000 A 
ATOM     17  C   UNL     1      -1.754  12.125  20.626  0.00  0.00    +0.000 A 
ATOM     18  C   UNL     1      -1.672  11.637  19.319  0.00  0.00    +0.000 A 
ATOM     19  C   UNL     1      -2.827  11.679  18.538  0.00  0.00    +0.000 A 
ATOM     20  C   UNL     1      -4.044  12.163  19.043  0.00  0.00    +0.000 A 
ATOM     21  C   UNL     1      -4.119  12.672  20.361  0.00  0.00    +0.000 A 
BRANCH  16  23
ATOM     22  C   UNL     1      -2.616  14.668  22.408  0.00  0.00    +0.000 C 
ATOM     23  O   UNL     1      -2.939  13.274  22.378  0.00  0.00    +0.000 OA
ENDBRANCH  16  23
BRANCH  20  24
ATOM     24  O   UNL     1      -5.040  12.084  18.100  0.00  0.00    +0.000 OA
ATOM     25  C   UNL     1      -4.740  11.629  16.788  0.00  0.00    +0.000 C 
ENDBRANCH  20  24
BRANCH  21  26
ATOM     26  O   UNL     1      -5.352  13.106  20.763  0.00  0.00    +0.000 OA
ATOM     27  C   UNL     1      -6.350  12.212  21.221  0.00  0.00    +0.000 C 
ENDBRANCH  21  26
ENDBRANCH  14  18
ENDBRANCH  12  15
ENDBRANCH   1  12
BRANCH   5  28
ATOM     28  O   UNL     1       6.241   4.294  16.797  0.00  0.00    +0.000 OA
BRANCH  28  29
ATOM     29  C   UNL     1       6.909   5.248  15.965  0.00  0.00    +0.000 C 
BRANCH  29  30
ATOM     30  C   UNL     1       6.860   4.797  14.529  0.00  0.00    +0.000 A 
ATOM     31  C   UNL     1       7.745   5.333  13.584  0.00  0.00    +0.000 A 
ATOM     32  C   UNL     1       7.703   4.904  12.256  0.00  0.00    +0.000 A 
ATOM     33  C   UNL     1       6.778   3.937  11.864  0.00  0.00    +0.000 A 
ATOM     34  C   UNL     1       5.896   3.396  12.796  0.00  0.00    +0.000 A 
ATOM     35  C   UNL     1       5.935   3.823  14.122  0.00  0.00    +0.000 A 
ENDBRANCH  29  30
ENDBRANCH  28  29
ENDBRANCH   5  28
TORSDOF 9
ENDMDL
MODEL 7
REMARK VINA RESULT:      -8.3      0.715      1.147
REMARK  Name = 
REMARK  12 active torsions:
REMARK  status: ('A' for Active; 'I' for Inactive)
REMARK    1  A    between atoms: C_1  and  O_2
REMARK    2  A    between atoms: O_2  and  C_3
REMARK    3  A    between atoms: C_5  and  C_6
REMARK    4  A    between atoms: C_7  and  C_8
REMARK    5  A    between atoms: C_8  and  C_10
REMARK    6  A    between atoms: C_14  and  O_15
REMARK    7  A    between atoms: O_15  and  C_16
REMARK    8  A    between atoms: C_16  and  C_17
REMARK    9  A    between atoms: C_30  and  O_31
REMARK   10  A    between atoms: O_31  and  C_32
REMARK   11  A    between atoms: C_33  and  O_34
REMARK   12  A    between atoms: O_34  and  C_35
REMARK                            x       y       z     vdW  Elec       q    Type
REMARK                         _______ _______ _______ _____ _____    ______ ____
ROOT
ATOM      1  C   UNL     1       1.545   8.802  19.270  0.00  0.00    +0.000 A 
ATOM      2  C   UNL     1       2.076   7.977  18.350  0.00  0.00    +0.000 A 
ATOM      3  C   UNL     1       2.499   6.638  18.719  0.00  0.00    +0.000 A 
ATOM      4  C   UNL     1       3.279   5.848  17.877  0.00  0.00    +0.000 A 
ATOM      5  C   UNL     1       3.696   4.580  18.299  0.00  0.00    +0.000 A 
ATOM      6  C   UNL     1       3.231   4.059  19.509  0.00  0.00    +0.000 A 
ATOM      7  C   UNL     1       2.436   4.839  20.349  0.00  0.00    +0.000 A 
ATOM      8  C   UNL     1       2.116   6.135  19.955  0.00  0.00    +0.000 A 
ATOM      9  O   UNL     1       1.452   6.954  20.877  0.00  0.00    +0.000 OA
ATOM     10  C   UNL     1       1.436   8.332  20.672  0.00  0.00    +0.000 A 
ATOM     11  O   UNL     1       1.315   9.088  21.631  0.00  0.00    +0.000 OA
ENDROOT
BRANCH   1  12
ATOM     12  C   UNL     1       1.148  10.162  18.774  0.00  0.00    +0.000 C 
ATOM     13  O   UNL     1       1.961  10.897  18.216  0.00  0.00    +0.000 OA
BRANCH  12  15
ATOM     14  C   UNL     1      -0.557  11.657  19.745  0.00  0.00    +0.000 C 
ATOM     15  C   UNL     1      -0.263  10.608  18.958  0.00  0.00    +0.000 C 
BRANCH  14  18
ATOM     16  C   UNL     1      -4.290  12.335  19.430  0.00  0.00    +0.000 A 
ATOM     17  C   UNL     1      -2.947  12.087  19.090  0.00  0.00    +0.000 A 
ATOM     18  C   UNL     1      -1.932  12.094  20.050  0.00  0.00    +0.000 A 
ATOM     19  C   UNL     1      -2.281  12.417  21.361  0.00  0.00    +0.000 A 
ATOM     20  C   UNL     1      -3.598  12.756  21.712  0.00  0.00    +0.000 A 
ATOM     21  C   UNL     1      -4.627  12.730  20.742  0.00  0.00    +0.000 A 
BRANCH  16  23
ATOM     22  C   UNL     1      -5.716  10.858  18.245  0.00  0.00    +0.000 C 
ATOM     23  O   UNL     1      -5.272  12.197  18.478  0.00  0.00    +0.000 OA
ENDBRANCH  16  23
BRANCH  20  24
ATOM     24  O   UNL     1      -3.693  13.056  23.051  0.00  0.00    +0.000 OA
ATOM     25  C   UNL     1      -3.465  14.385  23.497  0.00  0.00    +0.000 C 
ENDBRANCH  20  24
BRANCH  21  26
ATOM     26  O   UNL     1      -5.870  13.090  21.181  0.00  0.00    +0.000 OA
ATOM     27  C   UNL     1      -6.826  12.132  21.598  0.00  0.00    +0.000 C 
ENDBRANCH  21  26
ENDBRANCH  14  18
ENDBRANCH  12  15
ENDBRANCH   1  12
BRANCH   5  28
ATOM     28  O   UNL     1       4.568   3.788  17.601  0.00  0.00    +0.000 OA
BRANCH  28  29
ATOM     29  C   UNL     1       5.360   4.486  16.633  0.00  0.00    +0.000 C 
BRANCH  29  30
ATOM     30  C   UNL     1       6.340   5.391  17.332  0.00  0.00    +0.000 A 
ATOM     31  C   UNL     1       7.036   4.947  18.464  0.00  0.00    +0.000 A 
ATOM     32  C   UNL     1       7.951   5.786  19.103  0.00  0.00    +0.000 A 
ATOM     33  C   UNL     1       8.179   7.072  18.614  0.00  0.00    +0.000 A 
ATOM     34  C   UNL     1       7.493   7.522  17.488  0.00  0.00    +0.000 A 
ATOM     35  C   UNL     1       6.578   6.687  16.849  0.00  0.00    +0.000 A 
ENDBRANCH  29  30
ENDBRANCH  28  29
ENDBRANCH   5  28
TORSDOF 9
ENDMDL
MODEL 8
REMARK VINA RESULT:      -8.3      1.788      2.471
REMARK  Name = 
REMARK  12 active torsions:
REMARK  status: ('A' for Active; 'I' for Inactive)
REMARK    1  A    between atoms: C_1  and  O_2
REMARK    2  A    between atoms: O_2  and  C_3
REMARK    3  A    between atoms: C_5  and  C_6
REMARK    4  A    between atoms: C_7  and  C_8
REMARK    5  A    between atoms: C_8  and  C_10
REMARK    6  A    between atoms: C_14  and  O_15
REMARK    7  A    between atoms: O_15  and  C_16
REMARK    8  A    between atoms: C_16  and  C_17
REMARK    9  A    between atoms: C_30  and  O_31
REMARK   10  A    between atoms: O_31  and  C_32
REMARK   11  A    between atoms: C_33  and  O_34
REMARK   12  A    between atoms: O_34  and  C_35
REMARK                            x       y       z     vdW  Elec       q    Type
REMARK                         _______ _______ _______ _____ _____    ______ ____
ROOT
ATOM      1  C   UNL     1       2.000   8.631  18.822  0.00  0.00    +0.000 A 
ATOM      2  C   UNL     1       2.702   8.038  17.839  0.00  0.00    +0.000 A 
ATOM      3  C   UNL     1       3.267   6.714  18.034  0.00  0.00    +0.000 A 
ATOM      4  C   UNL     1       4.204   6.172  17.158  0.00  0.00    +0.000 A 
ATOM      5  C   UNL     1       4.749   4.908  17.415  0.00  0.00    +0.000 A 
ATOM      6  C   UNL     1       4.265   4.142  18.479  0.00  0.00    +0.000 A 
ATOM      7  C   UNL     1       3.314   4.674  19.350  0.00  0.00    +0.000 A 
ATOM      8  C   UNL     1       2.860   5.971  19.134  0.00  0.00    +0.000 A 
ATOM      9  O   UNL     1       2.026   6.543  20.104  0.00  0.00    +0.000 OA
ATOM     10  C   UNL     1       1.847   7.924  20.116  0.00  0.00    +0.000 A 
ATOM     11  O   UNL     1       1.556   8.490  21.165  0.00  0.00    +0.000 OA
ENDROOT
BRANCH   1  12
ATOM     12  C   UNL     1       1.469  10.000  18.508  0.00  0.00    +0.000 C 
ATOM     13  O   UNL     1       2.178  10.848  17.971  0.00  0.00    +0.000 OA
BRANCH  12  15
ATOM     14  C   UNL     1      -0.360  11.586  18.981  0.00  0.00    +0.000 C 
ATOM     15  C   UNL     1       0.051  10.313  18.848  0.00  0.00    +0.000 C 
BRANCH  14  18
ATOM     16  C   UNL     1      -4.148  11.944  19.100  0.00  0.00    +0.000 A 
ATOM     17  C   UNL     1      -2.843  11.740  18.615  0.00  0.00    +0.000 A 
ATOM     18  C   UNL     1      -1.718  11.968  19.410  0.00  0.00    +0.000 A 
ATOM     19  C   UNL     1      -1.923  12.468  20.696  0.00  0.00    +0.000 A 
ATOM     20  C   UNL     1      -3.209  12.765  21.177  0.00  0.00    +0.000 A 
ATOM     21  C   UNL     1      -4.347  12.515  20.375  0.00  0.00    +0.000 A 
BRANCH  16  23
ATOM     22  C   UNL     1      -5.114  11.902  16.936  0.00  0.00    +0.000 C 
ATOM     23  O   UNL     1      -5.228  11.591  18.327  0.00  0.00    +0.000 OA
ENDBRANCH  16  23
BRANCH  20  24
ATOM     24  O   UNL     1      -3.157  13.264  22.456  0.00  0.00    +0.000 OA
ATOM     25  C   UNL     1      -3.311  12.390  23.565  0.00  0.00    +0.000 C 
ENDBRANCH  20  24
BRANCH  21  26
ATOM     26  O   UNL     1      -5.552  12.853  20.928  0.00  0.00    +0.000 OA
ATOM     27  C   UNL     1      -6.164  14.106  20.687  0.00  0.00    +0.000 C 
ENDBRANCH  21  26
ENDBRANCH  14  18
ENDBRANCH  12  15
ENDBRANCH   1  12
BRANCH   5  28
ATOM     28  O   UNL     1       5.768   4.349  16.689  0.00  0.00    +0.000 OA
BRANCH  28  29
ATOM     29  C   UNL     1       6.551   5.289  15.945  0.00  0.00    +0.000 C 
BRANCH  29  30
ATOM     30  C   UNL     1       6.687   4.826  14.519  0.00  0.00    +0.000 A 
ATOM     31  C   UNL     1       7.660   5.383  13.680  0.00  0.00    +0.000 A 
ATOM     32  C   UNL     1       7.790   4.943  12.361  0.00  0.00    +0.000 A 
ATOM     33  C   UNL     1       6.949   3.942  11.873  0.00  0.00    +0.000 A 
ATOM     34  C   UNL     1       5.979   3.381  12.700  0.00  0.00    +0.000 A 
ATOM     35  C   UNL     1       5.847   3.819  14.017  0.00  0.00    +0.000 A 
ENDBRANCH  29  30
ENDBRANCH  28  29
ENDBRANCH   5  28
TORSDOF 9
ENDMDL
MODEL 9
REMARK VINA RESULT:      -8.1      1.453      2.942
REMARK  Name = 
REMARK  12 active torsions:
REMARK  status: ('A' for Active; 'I' for Inactive)
REMARK    1  A    between atoms: C_1  and  O_2
REMARK    2  A    between atoms: O_2  and  C_3
REMARK    3  A    between atoms: C_5  and  C_6
REMARK    4  A    between atoms: C_7  and  C_8
REMARK    5  A    between atoms: C_8  and  C_10
REMARK    6  A    between atoms: C_14  and  O_15
REMARK    7  A    between atoms: O_15  and  C_16
REMARK    8  A    between atoms: C_16  and  C_17
REMARK    9  A    between atoms: C_30  and  O_31
REMARK   10  A    between atoms: O_31  and  C_32
REMARK   11  A    between atoms: C_33  and  O_34
REMARK   12  A    between atoms: O_34  and  C_35
REMARK                            x       y       z     vdW  Elec       q    Type
REMARK                         _______ _______ _______ _____ _____    ______ ____
ROOT
ATOM      1  C   UNL     1       1.381   9.467  19.561  0.00  0.00    +0.000 A 
ATOM      2  C   UNL     1       1.774   8.524  18.686  0.00  0.00    +0.000 A 
ATOM      3  C   UNL     1       2.042   7.169  19.135  0.00  0.00    +0.000 A 
ATOM      4  C   UNL     1       2.689   6.235  18.330  0.00  0.00    +0.000 A 
ATOM      5  C   UNL     1       2.961   4.955  18.827  0.00  0.00    +0.000 A 
ATOM      6  C   UNL     1       2.478   4.576  20.082  0.00  0.00    +0.000 A 
ATOM      7  C   UNL     1       1.815   5.503  20.887  0.00  0.00    +0.000 A 
ATOM      8  C   UNL     1       1.644   6.800  20.413  0.00  0.00    +0.000 A 
ATOM      9  O   UNL     1       1.118   7.754  21.293  0.00  0.00    +0.000 OA
ATOM     10  C   UNL     1       1.265   9.107  20.994  0.00  0.00    +0.000 A 
ATOM     11  O   UNL     1       1.271   9.933  21.901  0.00  0.00    +0.000 OA
ENDROOT
BRANCH   1  12
ATOM     12  C   UNL     1       1.138  10.831  18.982  0.00  0.00    +0.000 C 
ATOM     13  O   UNL     1       2.038  11.667  18.926  0.00  0.00    +0.000 OA
BRANCH  12  15
ATOM     14  C   UNL     1      -1.270  11.266  19.293  0.00  0.00    +0.000 C 
ATOM     15  C   UNL     1      -0.221  11.156  18.460  0.00  0.00    +0.000 C 
BRANCH  14  18
ATOM     16  C   UNL     1      -4.881  12.465  19.154  0.00  0.00    +0.000 A 
ATOM     17  C   UNL     1      -3.617  12.098  19.651  0.00  0.00    +0.000 A 
ATOM     18  C   UNL     1      -2.656  11.489  18.840  0.00  0.00    +0.000 A 
ATOM     19  C   UNL     1      -3.009  11.197  17.523  0.00  0.00    +0.000 A 
ATOM     20  C   UNL     1      -4.293  11.471  17.024  0.00  0.00    +0.000 A 
ATOM     21  C   UNL     1      -5.258  12.104  17.842  0.00  0.00    +0.000 A 
BRANCH  16  23
ATOM     22  C   UNL     1      -5.953  12.636  21.261  0.00  0.00    +0.000 C 
ATOM     23  O   UNL     1      -5.750  13.171  19.950  0.00  0.00    +0.000 OA
ENDBRANCH  16  23
BRANCH  20  24
ATOM     24  O   UNL     1      -4.411  11.076  15.713  0.00  0.00    +0.000 OA
ATOM     25  C   UNL     1      -3.425  10.233  15.134  0.00  0.00    +0.000 C 
ENDBRANCH  20  24
BRANCH  21  26
ATOM     26  O   UNL     1      -6.481  12.314  17.268  0.00  0.00    +0.000 OA
ATOM     27  C   UNL     1      -6.900  13.597  16.841  0.00  0.00    +0.000 C 
ENDBRANCH  21  26
ENDBRANCH  14  18
ENDBRANCH  12  15
ENDBRANCH   1  12
BRANCH   5  28
ATOM     28  O   UNL     1       3.704   4.016  18.162  0.00  0.00    +0.000 OA
BRANCH  28  29
ATOM     29  C   UNL     1       5.121   4.190  18.279  0.00  0.00    +0.000 C 
BRANCH  29  30
ATOM     30  C   UNL     1       5.724   4.403  16.916  0.00  0.00    +0.000 A 
ATOM     31  C   UNL     1       7.011   4.939  16.783  0.00  0.00    +0.000 A 
ATOM     32  C   UNL     1       7.570   5.125  15.517  0.00  0.00    +0.000 A 
ATOM     33  C   UNL     1       6.847   4.775  14.376  0.00  0.00    +0.000 A 
ATOM     34  C   UNL     1       5.567   4.239  14.498  0.00  0.00    +0.000 A 
ATOM     35  C   UNL     1       5.007   4.053  15.761  0.00  0.00    +0.000 A 
ENDBRANCH  29  30
ENDBRANCH  28  29
ENDBRANCH   5  28
TORSDOF 9
ENDMDL
