MODEL 1
REMARK VINA RESULT:      -7.3      0.000      0.000
REMARK  Name = 
REMARK  7 active torsions:
REMARK  status: ('A' for Active; 'I' for Inactive)
REMARK    1  A    between atoms: C_1  and  C_2
REMARK    2  A    between atoms: N_4  and  S_5
REMARK    3  A    between atoms: S_5  and  C_8
REMARK    4  A    between atoms: C_15  and  O_16
REMARK    5  A    between atoms: O_16  and  C_17
REMARK    6  A    between atoms: C_17  and  C_18
REMARK    7  A    between atoms: C_25  and  N_26
REMARK                            x       y       z     vdW  Elec       q    Type
REMARK                         _______ _______ _______ _____ _____    ______ ____
ROOT
ATOM      1  C   UNL     1      -2.802   9.710  15.003  0.00  0.00    +0.000 C 
ATOM      2  C   UNL     1      -3.269  10.481  16.189  0.00  0.00    +0.000 A 
ATOM      3  C   UNL     1      -4.501  11.048  16.352  0.00  0.00    +0.000 A 
ATOM      4  N   UNL     1      -4.551  11.670  17.584  0.00  0.00    +0.000 N 
ATOM      5  C   UNL     1      -3.316  11.596  18.240  0.00  0.00    +0.000 A 
ATOM      6  C   UNL     1      -2.742  12.098  19.456  0.00  0.00    +0.000 A 
ATOM      7  C   UNL     1      -1.443  11.666  19.789  0.00  0.00    +0.000 A 
ATOM      8  C   UNL     1      -0.708  10.831  18.951  0.00  0.00    +0.000 A 
ATOM      9  C   UNL     1      -1.227  10.409  17.735  0.00  0.00    +0.000 A 
ATOM     10  C   UNL     1      -2.534  10.782  17.375  0.00  0.00    +0.000 A 
ENDROOT
BRANCH   4  11
ATOM     11  S   UNL     1      -5.983  12.554  17.946  0.00  0.00    +0.000 S 
ATOM     12  O   UNL     1      -5.526  13.643  18.802  0.00  0.00    +0.000 OA
ATOM     13  O   UNL     1      -6.727  12.783  16.742  0.00  0.00    +0.000 OA
BRANCH  11  14
ATOM     14  C   UNL     1      -6.888  11.406  18.976  0.00  0.00    +0.000 A 
ATOM     15  C   UNL     1      -7.524  11.875  20.129  0.00  0.00    +0.000 A 
ATOM     16  C   UNL     1      -7.916  10.963  21.110  0.00  0.00    +0.000 A 
ATOM     17  C   UNL     1      -7.676   9.599  20.933  0.00  0.00    +0.000 A 
ATOM     18  C   UNL     1      -7.114   9.133  19.745  0.00  0.00    +0.000 A 
ATOM     19  C   UNL     1      -6.735  10.033  18.752  0.00  0.00    +0.000 A 
ENDBRANCH  11  14
ENDBRANCH   4  11
BRANCH   8  20
ATOM     20  N   UNL     1       0.639  10.396  19.344  0.00  0.00    +0.000 N 
ATOM     21  O   UNL     1       1.344   9.845  18.487  0.00  0.00    +0.000 OA
ATOM     22  O   UNL     1       0.999  10.614  20.512  0.00  0.00    +0.000 OA
ENDBRANCH   8  20
BRANCH   6  23
ATOM     23  O   UNL     1      -3.437  12.958  20.284  0.00  0.00    +0.000 OA
BRANCH  23  24
ATOM     24  C   UNL     1      -2.943  13.254  21.629  0.00  0.00    +0.000 C 
BRANCH  24  25
ATOM     25  C   UNL     1      -3.958  12.927  22.704  0.00  0.00    +0.000 A 
ATOM     26  C   UNL     1      -5.305  13.252  22.495  0.00  0.00    +0.000 A 
ATOM     27  C   UNL     1      -6.236  13.133  23.526  0.00  0.00    +0.000 A 
ATOM     28  C   UNL     1      -5.844  12.636  24.765  0.00  0.00    +0.000 A 
ATOM     29  C   UNL     1      -4.538  12.183  24.947  0.00  0.00    +0.000 A 
ATOM     30  C   UNL     1      -3.600  12.313  23.916  0.00  0.00    +0.000 A 
ENDBRANCH  24  25
ENDBRANCH  23  24
ENDBRANCH   6  23
TORSDOF 6
ENDMDL
MODEL 2
REMARK VINA RESULT:      -7.2      2.696      5.506
REMARK  Name = 
REMARK  7 active torsions:
REMARK  status: ('A' for Active; 'I' for Inactive)
REMARK    1  A    between atoms: C_1  and  C_2
REMARK    2  A    between atoms: N_4  and  S_5
REMARK    3  A    between atoms: S_5  and  C_8
REMARK    4  A    between atoms: C_15  and  O_16
REMARK    5  A    between atoms: O_16  and  C_17
REMARK    6  A    between atoms: C_17  and  C_18
REMARK    7  A    between atoms: C_25  and  N_26
REMARK                            x       y       z     vdW  Elec       q    Type
REMARK                         _______ _______ _______ _____ _____    ______ ____
ROOT
ATOM      1  C   UNL     1      -2.811   9.890  15.993  0.00  0.00    +0.000 C 
ATOM      2  C   UNL     1      -2.537  10.723  17.197  0.00  0.00    +0.000 A 
ATOM      3  C   UNL     1      -1.306  11.057  17.687  0.00  0.00    +0.000 A 
ATOM      4  N   UNL     1      -1.466  11.845  18.810  0.00  0.00    +0.000 N 
ATOM      5  C   UNL     1      -2.821  11.988  19.139  0.00  0.00    +0.000 A 
ATOM      6  C   UNL     1      -3.586  12.592  20.192  0.00  0.00    +0.000 A 
ATOM      7  C   UNL     1      -4.989  12.593  20.059  0.00  0.00    +0.000 A 
ATOM      8  C   UNL     1      -5.625  11.983  18.981  0.00  0.00    +0.000 A 
ATOM      9  C   UNL     1      -4.893  11.326  18.002  0.00  0.00    +0.000 A 
ATOM     10  C   UNL     1      -3.489  11.330  18.070  0.00  0.00    +0.000 A 
ENDROOT
BRANCH   4  11
ATOM     11  S   UNL     1      -0.035  12.282  19.659  0.00  0.00    +0.000 S 
ATOM     12  O   UNL     1       1.040  12.020  18.708  0.00  0.00    +0.000 OA
ATOM     13  O   UNL     1      -0.214  13.561  20.283  0.00  0.00    +0.000 OA
BRANCH  11  14
ATOM     14  C   UNL     1       0.054  11.026  20.927  0.00  0.00    +0.000 A 
ATOM     15  C   UNL     1       0.368   9.711  20.569  0.00  0.00    +0.000 A 
ATOM     16  C   UNL     1       0.093   8.677  21.465  0.00  0.00    +0.000 A 
ATOM     17  C   UNL     1      -0.484   8.960  22.704  0.00  0.00    +0.000 A 
ATOM     18  C   UNL     1      -0.719  10.280  23.085  0.00  0.00    +0.000 A 
ATOM     19  C   UNL     1      -0.432  11.322  22.206  0.00  0.00    +0.000 A 
ENDBRANCH  11  14
ENDBRANCH   4  11
BRANCH   8  20
ATOM     20  N   UNL     1      -7.090  12.019  18.876  0.00  0.00    +0.000 N 
ATOM     21  O   UNL     1      -7.749  11.478  19.775  0.00  0.00    +0.000 OA
ATOM     22  O   UNL     1      -7.585  12.599  17.896  0.00  0.00    +0.000 OA
ENDBRANCH   8  20
BRANCH   6  23
ATOM     23  O   UNL     1      -2.978  13.170  21.289  0.00  0.00    +0.000 OA
BRANCH  23  24
ATOM     24  C   UNL     1      -3.627  13.137  22.600  0.00  0.00    +0.000 C 
BRANCH  24  25
ATOM     25  C   UNL     1      -3.115  14.219  23.528  0.00  0.00    +0.000 A 
ATOM     26  C   UNL     1      -1.743  14.288  23.807  0.00  0.00    +0.000 A 
ATOM     27  C   UNL     1      -1.258  15.150  24.789  0.00  0.00    +0.000 A 
ATOM     28  C   UNL     1      -2.131  15.993  25.470  0.00  0.00    +0.000 A 
ATOM     29  C   UNL     1      -3.477  16.032  25.110  0.00  0.00    +0.000 A 
ATOM     30  C   UNL     1      -3.967  15.159  24.131  0.00  0.00    +0.000 A 
ENDBRANCH  24  25
ENDBRANCH  23  24
ENDBRANCH   6  23
TORSDOF 6
ENDMDL
MODEL 3
REMARK VINA RESULT:      -7.1      2.708      5.460
REMARK  Name = 
REMARK  7 active torsions:
REMARK  status: ('A' for Active; 'I' for Inactive)
REMARK    1  A    between atoms: C_1  and  C_2
REMARK    2  A    between atoms: N_4  and  S_5
REMARK    3  A    between atoms: S_5  and  C_8
REMARK    4  A    between atoms: C_15  and  O_16
REMARK    5  A    between atoms: O_16  and  C_17
REMARK    6  A    between atoms: C_17  and  C_18
REMARK    7  A    between atoms: C_25  and  N_26
REMARK                            x       y       z     vdW  Elec       q    Type
REMARK                         _______ _______ _______ _____ _____    ______ ____
ROOT
ATOM      1  C   UNL     1      -2.678   9.887  16.075  0.00  0.00    +0.000 C 
ATOM      2  C   UNL     1      -2.428  10.738  17.272  0.00  0.00    +0.000 A 
ATOM      3  C   UNL     1      -1.207  11.067  17.790  0.00  0.00    +0.000 A 
ATOM      4  N   UNL     1      -1.390  11.875  18.896  0.00  0.00    +0.000 N 
ATOM      5  C   UNL     1      -2.751  12.039  19.184  0.00  0.00    +0.000 A 
ATOM      6  C   UNL     1      -3.538  12.669  20.205  0.00  0.00    +0.000 A 
ATOM      7  C   UNL     1      -4.937  12.682  20.033  0.00  0.00    +0.000 A 
ATOM      8  C   UNL     1      -5.550  12.061  18.949  0.00  0.00    +0.000 A 
ATOM      9  C   UNL     1      -4.799  11.380  18.001  0.00  0.00    +0.000 A 
ATOM     10  C   UNL     1      -3.397  11.370  18.108  0.00  0.00    +0.000 A 
ENDROOT
BRANCH   4  11
ATOM     11  S   UNL     1       0.023  12.312  19.775  0.00  0.00    +0.000 S 
ATOM     12  O   UNL     1       1.115  12.091  18.833  0.00  0.00    +0.000 OA
ATOM     13  O   UNL     1      -0.185  13.570  20.430  0.00  0.00    +0.000 OA
BRANCH  11  14
ATOM     14  C   UNL     1       0.114  11.023  21.012  0.00  0.00    +0.000 A 
ATOM     15  C   UNL     1       0.494   9.733  20.629  0.00  0.00    +0.000 A 
ATOM     16  C   UNL     1       0.227   8.663  21.485  0.00  0.00    +0.000 A 
ATOM     17  C   UNL     1      -0.408   8.887  22.708  0.00  0.00    +0.000 A 
ATOM     18  C   UNL     1      -0.710  10.186  23.116  0.00  0.00    +0.000 A 
ATOM     19  C   UNL     1      -0.432  11.262  22.278  0.00  0.00    +0.000 A 
ENDBRANCH  11  14
ENDBRANCH   4  11
BRANCH   8  20
ATOM     20  N   UNL     1      -7.011  12.110  18.803  0.00  0.00    +0.000 N 
ATOM     21  O   UNL     1      -7.473  12.488  17.717  0.00  0.00    +0.000 OA
ATOM     22  O   UNL     1      -7.701  11.762  19.774  0.00  0.00    +0.000 OA
ENDBRANCH   8  20
BRANCH   6  23
ATOM     23  O   UNL     1      -2.954  13.258  21.309  0.00  0.00    +0.000 OA
BRANCH  23  24
ATOM     24  C   UNL     1      -3.504  13.036  22.647  0.00  0.00    +0.000 C 
BRANCH  24  25
ATOM     25  C   UNL     1      -3.051  14.085  23.641  0.00  0.00    +0.000 A 
ATOM     26  C   UNL     1      -4.001  14.948  24.205  0.00  0.00    +0.000 A 
ATOM     27  C   UNL     1      -3.605  16.036  24.981  0.00  0.00    +0.000 A 
ATOM     28  C   UNL     1      -2.255  16.246  25.249  0.00  0.00    +0.000 A 
ATOM     29  C   UNL     1      -1.310  15.321  24.808  0.00  0.00    +0.000 A 
ATOM     30  C   UNL     1      -1.707  14.234  24.019  0.00  0.00    +0.000 A 
ENDBRANCH  24  25
ENDBRANCH  23  24
ENDBRANCH   6  23
TORSDOF 6
ENDMDL
MODEL 4
REMARK VINA RESULT:      -7.0      7.923     11.161
REMARK  Name = 
REMARK  7 active torsions:
REMARK  status: ('A' for Active; 'I' for Inactive)
REMARK    1  A    between atoms: C_1  and  C_2
REMARK    2  A    between atoms: N_4  and  S_5
REMARK    3  A    between atoms: S_5  and  C_8
REMARK    4  A    between atoms: C_15  and  O_16
REMARK    5  A    between atoms: O_16  and  C_17
REMARK    6  A    between atoms: C_17  and  C_18
REMARK    7  A    between atoms: C_25  and  N_26
REMARK                            x       y       z     vdW  Elec       q    Type
REMARK                         _______ _______ _______ _____ _____    ______ ____
ROOT
ATOM      1  C   UNL     1       7.347   7.940  17.341  0.00  0.00    +0.000 C 
ATOM      2  C   UNL     1       6.133   7.079  17.365  0.00  0.00    +0.000 A 
ATOM      3  C   UNL     1       5.106   7.151  18.265  0.00  0.00    +0.000 A 
ATOM      4  N   UNL     1       4.164   6.191  17.951  0.00  0.00    +0.000 N 
ATOM      5  C   UNL     1       4.584   5.402  16.872  0.00  0.00    +0.000 A 
ATOM      6  C   UNL     1       4.103   4.248  16.167  0.00  0.00    +0.000 A 
ATOM      7  C   UNL     1       4.819   3.840  15.024  0.00  0.00    +0.000 A 
ATOM      8  C   UNL     1       5.983   4.484  14.616  0.00  0.00    +0.000 A 
ATOM      9  C   UNL     1       6.498   5.550  15.342  0.00  0.00    +0.000 A 
ATOM     10  C   UNL     1       5.800   6.019  16.468  0.00  0.00    +0.000 A 
ENDROOT
BRANCH   4  11
ATOM     11  S   UNL     1       2.837   6.029  19.034  0.00  0.00    +0.000 S 
ATOM     12  O   UNL     1       1.845   5.274  18.276  0.00  0.00    +0.000 OA
ATOM     13  O   UNL     1       3.310   5.603  20.319  0.00  0.00    +0.000 OA
BRANCH  11  14
ATOM     14  C   UNL     1       2.245   7.711  19.164  0.00  0.00    +0.000 A 
ATOM     15  C   UNL     1       1.698   8.154  20.373  0.00  0.00    +0.000 A 
ATOM     16  C   UNL     1       0.922   9.314  20.385  0.00  0.00    +0.000 A 
ATOM     17  C   UNL     1       0.702  10.021  19.201  0.00  0.00    +0.000 A 
ATOM     18  C   UNL     1       1.317   9.617  18.017  0.00  0.00    +0.000 A 
ATOM     19  C   UNL     1       2.108   8.471  17.996  0.00  0.00    +0.000 A 
ENDBRANCH  11  14
ENDBRANCH   4  11
BRANCH   8  20
ATOM     20  N   UNL     1       6.691   4.031  13.411  0.00  0.00    +0.000 N 
ATOM     21  O   UNL     1       7.637   4.719  13.001  0.00  0.00    +0.000 OA
ATOM     22  O   UNL     1       6.306   2.979  12.876  0.00  0.00    +0.000 OA
ENDBRANCH   8  20
BRANCH   6  23
ATOM     23  O   UNL     1       2.972   3.570  16.576  0.00  0.00    +0.000 OA
BRANCH  23  24
ATOM     24  C   UNL     1       3.078   2.228  17.149  0.00  0.00    +0.000 C 
BRANCH  24  25
ATOM     25  C   UNL     1       2.911   2.225  18.654  0.00  0.00    +0.000 A 
ATOM     26  C   UNL     1       1.620   2.251  19.199  0.00  0.00    +0.000 A 
ATOM     27  C   UNL     1       1.427   2.430  20.567  0.00  0.00    +0.000 A 
ATOM     28  C   UNL     1       2.523   2.532  21.419  0.00  0.00    +0.000 A 
ATOM     29  C   UNL     1       3.812   2.373  20.910  0.00  0.00    +0.000 A 
ATOM     30  C   UNL     1       4.006   2.204  19.533  0.00  0.00    +0.000 A 
ENDBRANCH  24  25
ENDBRANCH  23  24
ENDBRANCH   6  23
TORSDOF 6
ENDMDL
MODEL 5
REMARK VINA RESULT:      -7.0      2.668      5.471
REMARK  Name = 
REMARK  7 active torsions:
REMARK  status: ('A' for Active; 'I' for Inactive)
REMARK    1  A    between atoms: C_1  and  C_2
REMARK    2  A    between atoms: N_4  and  S_5
REMARK    3  A    between atoms: S_5  and  C_8
REMARK    4  A    between atoms: C_15  and  O_16
REMARK    5  A    between atoms: O_16  and  C_17
REMARK    6  A    between atoms: C_17  and  C_18
REMARK    7  A    between atoms: C_25  and  N_26
REMARK                            x       y       z     vdW  Elec       q    Type
REMARK                         _______ _______ _______ _____ _____    ______ ____
ROOT
ATOM      1  C   UNL     1      -2.975   9.842  15.831  0.00  0.00    +0.000 C 
ATOM      2  C   UNL     1      -2.662  10.643  17.046  0.00  0.00    +0.000 A 
ATOM      3  C   UNL     1      -1.419  10.871  17.568  0.00  0.00    +0.000 A 
ATOM      4  N   UNL     1      -1.541  11.663  18.693  0.00  0.00    +0.000 N 
ATOM      5  C   UNL     1      -2.886  11.917  18.990  0.00  0.00    +0.000 A 
ATOM      6  C   UNL     1      -3.623  12.577  20.030  0.00  0.00    +0.000 A 
ATOM      7  C   UNL     1      -5.018  12.695  19.864  0.00  0.00    +0.000 A 
ATOM      8  C   UNL     1      -5.677  12.146  18.767  0.00  0.00    +0.000 A 
ATOM      9  C   UNL     1      -4.979  11.436  17.800  0.00  0.00    +0.000 A 
ATOM     10  C   UNL     1      -3.581  11.323  17.902  0.00  0.00    +0.000 A 
ENDROOT
BRANCH   4  11
ATOM     11  S   UNL     1      -0.098  11.976  19.577  0.00  0.00    +0.000 S 
ATOM     12  O   UNL     1       0.974  11.630  18.650  0.00  0.00    +0.000 OA
ATOM     13  O   UNL     1      -0.185  13.262  20.206  0.00  0.00    +0.000 OA
BRANCH  11  14
ATOM     14  C   UNL     1      -0.144  10.710  20.839  0.00  0.00    +0.000 A 
ATOM     15  C   UNL     1      -0.772  10.982  22.058  0.00  0.00    +0.000 A 
ATOM     16  C   UNL     1      -0.510  10.161  23.157  0.00  0.00    +0.000 A 
ATOM     17  C   UNL     1       0.367   9.082  23.031  0.00  0.00    +0.000 A 
ATOM     18  C   UNL     1       0.925   8.772  21.791  0.00  0.00    +0.000 A 
ATOM     19  C   UNL     1       0.656   9.573  20.685  0.00  0.00    +0.000 A 
ENDBRANCH  11  14
ENDBRANCH   4  11
BRANCH   8  20
ATOM     20  N   UNL     1      -7.130  12.304  18.629  0.00  0.00    +0.000 N 
ATOM     21  O   UNL     1      -7.841  12.018  19.603  0.00  0.00    +0.000 OA
ATOM     22  O   UNL     1      -7.566  12.724  17.545  0.00  0.00    +0.000 OA
ENDBRANCH   8  20
BRANCH   6  23
ATOM     23  O   UNL     1      -2.996  13.096  21.145  0.00  0.00    +0.000 OA
BRANCH  23  24
ATOM     24  C   UNL     1      -3.569  12.901  22.477  0.00  0.00    +0.000 C 
BRANCH  24  25
ATOM     25  C   UNL     1      -3.059  13.913  23.482  0.00  0.00    +0.000 A 
ATOM     26  C   UNL     1      -3.978  14.719  24.167  0.00  0.00    +0.000 A 
ATOM     27  C   UNL     1      -3.544  15.779  24.961  0.00  0.00    +0.000 A 
ATOM     28  C   UNL     1      -2.182  16.016  25.125  0.00  0.00    +0.000 A 
ATOM     29  C   UNL     1      -1.255  15.141  24.559  0.00  0.00    +0.000 A 
ATOM     30  C   UNL     1      -1.691  14.083  23.752  0.00  0.00    +0.000 A 
ENDBRANCH  24  25
ENDBRANCH  23  24
ENDBRANCH   6  23
TORSDOF 6
ENDMDL
MODEL 6
REMARK VINA RESULT:      -6.9      7.513     10.246
REMARK  Name = 
REMARK  7 active torsions:
REMARK  status: ('A' for Active; 'I' for Inactive)
REMARK    1  A    between atoms: C_1  and  C_2
REMARK    2  A    between atoms: N_4  and  S_5
REMARK    3  A    between atoms: S_5  and  C_8
REMARK    4  A    between atoms: C_15  and  O_16
REMARK    5  A    between atoms: O_16  and  C_17
REMARK    6  A    between atoms: C_17  and  C_18
REMARK    7  A    between atoms: C_25  and  N_26
REMARK                            x       y       z     vdW  Elec       q    Type
REMARK                         _______ _______ _______ _____ _____    ______ ____
ROOT
ATOM      1  C   UNL     1       6.495   3.718  14.437  0.00  0.00    +0.000 C 
ATOM      2  C   UNL     1       5.550   4.058  15.536  0.00  0.00    +0.000 A 
ATOM      3  C   UNL     1       4.393   3.398  15.842  0.00  0.00    +0.000 A 
ATOM      4  N   UNL     1       3.799   4.010  16.928  0.00  0.00    +0.000 N 
ATOM      5  C   UNL     1       4.514   5.149  17.322  0.00  0.00    +0.000 A 
ATOM      6  C   UNL     1       4.362   6.201  18.287  0.00  0.00    +0.000 A 
ATOM      7  C   UNL     1       5.423   7.118  18.421  0.00  0.00    +0.000 A 
ATOM      8  C   UNL     1       6.556   7.055  17.613  0.00  0.00    +0.000 A 
ATOM      9  C   UNL     1       6.671   6.090  16.623  0.00  0.00    +0.000 A 
ATOM     10  C   UNL     1       5.656   5.128  16.475  0.00  0.00    +0.000 A 
ENDROOT
BRANCH   4  11
ATOM     11  S   UNL     1       2.261   3.406  17.409  0.00  0.00    +0.000 S 
ATOM     12  O   UNL     1       1.335   4.488  17.093  0.00  0.00    +0.000 OA
ATOM     13  O   UNL     1       2.087   2.074  16.909  0.00  0.00    +0.000 OA
BRANCH  11  14
ATOM     14  C   UNL     1       2.419   3.340  19.189  0.00  0.00    +0.000 A 
ATOM     15  C   UNL     1       3.552   2.746  19.754  0.00  0.00    +0.000 A 
ATOM     16  C   UNL     1       3.524   2.370  21.098  0.00  0.00    +0.000 A 
ATOM     17  C   UNL     1       2.378   2.591  21.864  0.00  0.00    +0.000 A 
ATOM     18  C   UNL     1       1.283   3.257  21.313  0.00  0.00    +0.000 A 
ATOM     19  C   UNL     1       1.306   3.652  19.978  0.00  0.00    +0.000 A 
ENDBRANCH  11  14
ENDBRANCH   4  11
BRANCH   8  20
ATOM     20  N   UNL     1       7.643   8.025  17.796  0.00  0.00    +0.000 N 
ATOM     21  O   UNL     1       8.515   7.769  18.639  0.00  0.00    +0.000 OA
ATOM     22  O   UNL     1       7.633   9.046  17.089  0.00  0.00    +0.000 OA
ENDBRANCH   8  20
BRANCH   6  23
ATOM     23  O   UNL     1       3.231   6.305  19.072  0.00  0.00    +0.000 OA
BRANCH  23  24
ATOM     24  C   UNL     1       2.074   7.071  18.607  0.00  0.00    +0.000 C 
BRANCH  24  25
ATOM     25  C   UNL     1       1.672   8.161  19.579  0.00  0.00    +0.000 A 
ATOM     26  C   UNL     1       1.607   7.867  20.948  0.00  0.00    +0.000 A 
ATOM     27  C   UNL     1       1.071   8.784  21.850  0.00  0.00    +0.000 A 
ATOM     28  C   UNL     1       0.641  10.030  21.404  0.00  0.00    +0.000 A 
ATOM     29  C   UNL     1       0.823  10.388  20.068  0.00  0.00    +0.000 A 
ATOM     30  C   UNL     1       1.351   9.463  19.160  0.00  0.00    +0.000 A 
ENDBRANCH  24  25
ENDBRANCH  23  24
ENDBRANCH   6  23
TORSDOF 6
ENDMDL
MODEL 7
REMARK VINA RESULT:      -6.8      3.868      6.833
REMARK  Name = 
REMARK  7 active torsions:
REMARK  status: ('A' for Active; 'I' for Inactive)
REMARK    1  A    between atoms: C_1  and  C_2
REMARK    2  A    between atoms: N_4  and  S_5
REMARK    3  A    between atoms: S_5  and  C_8
REMARK    4  A    between atoms: C_15  and  O_16
REMARK    5  A    between atoms: O_16  and  C_17
REMARK    6  A    between atoms: C_17  and  C_18
REMARK    7  A    between atoms: C_25  and  N_26
REMARK                            x       y       z     vdW  Elec       q    Type
REMARK                         _______ _______ _______ _____ _____    ______ ____
ROOT
ATOM      1  C   UNL     1      -0.895  17.209  19.899  0.00  0.00    +0.000 C 
ATOM      2  C   UNL     1      -0.658  15.746  19.755  0.00  0.00    +0.000 A 
ATOM      3  C   UNL     1      -1.532  14.748  20.084  0.00  0.00    +0.000 A 
ATOM      4  N   UNL     1      -0.951  13.528  19.798  0.00  0.00    +0.000 N 
ATOM      5  C   UNL     1       0.363  13.688  19.341  0.00  0.00    +0.000 A 
ATOM      6  C   UNL     1       1.458  12.833  18.977  0.00  0.00    +0.000 A 
ATOM      7  C   UNL     1       2.610  13.444  18.443  0.00  0.00    +0.000 A 
ATOM      8  C   UNL     1       2.720  14.827  18.323  0.00  0.00    +0.000 A 
ATOM      9  C   UNL     1       1.697  15.662  18.749  0.00  0.00    +0.000 A 
ATOM     10  C   UNL     1       0.512  15.099  19.254  0.00  0.00    +0.000 A 
ENDROOT
BRANCH   4  11
ATOM     11  S   UNL     1      -1.840  12.125  20.248  0.00  0.00    +0.000 S 
ATOM     12  O   UNL     1      -0.832  11.221  20.792  0.00  0.00    +0.000 OA
ATOM     13  O   UNL     1      -3.007  12.509  20.987  0.00  0.00    +0.000 OA
BRANCH  11  14
ATOM     14  C   UNL     1      -2.347  11.472  18.663  0.00  0.00    +0.000 A 
ATOM     15  C   UNL     1      -3.658  11.679  18.224  0.00  0.00    +0.000 A 
ATOM     16  C   UNL     1      -4.162  10.890  17.189  0.00  0.00    +0.000 A 
ATOM     17  C   UNL     1      -3.359   9.911  16.600  0.00  0.00    +0.000 A 
ATOM     18  C   UNL     1      -2.028   9.767  16.989  0.00  0.00    +0.000 A 
ATOM     19  C   UNL     1      -1.509  10.561  18.009  0.00  0.00    +0.000 A 
ENDBRANCH  11  14
ENDBRANCH   4  11
BRANCH   8  20
ATOM     20  N   UNL     1       3.936  15.420  17.749  0.00  0.00    +0.000 N 
ATOM     21  O   UNL     1       3.895  16.611  17.409  0.00  0.00    +0.000 OA
ATOM     22  O   UNL     1       4.939  14.696  17.646  0.00  0.00    +0.000 OA
ENDBRANCH   8  20
BRANCH   6  23
ATOM     23  O   UNL     1       1.386  11.462  19.124  0.00  0.00    +0.000 OA
BRANCH  23  24
ATOM     24  C   UNL     1       1.905  10.576  18.081  0.00  0.00    +0.000 C 
BRANCH  24  25
ATOM     25  C   UNL     1       1.998   9.135  18.538  0.00  0.00    +0.000 A 
ATOM     26  C   UNL     1       1.525   8.790  19.811  0.00  0.00    +0.000 A 
ATOM     27  C   UNL     1       1.754   7.519  20.337  0.00  0.00    +0.000 A 
ATOM     28  C   UNL     1       2.414   6.559  19.576  0.00  0.00    +0.000 A 
ATOM     29  C   UNL     1       2.771   6.845  18.259  0.00  0.00    +0.000 A 
ATOM     30  C   UNL     1       2.550   8.124  17.734  0.00  0.00    +0.000 A 
ENDBRANCH  24  25
ENDBRANCH  23  24
ENDBRANCH   6  23
TORSDOF 6
ENDMDL
MODEL 8
REMARK VINA RESULT:      -6.8      2.594      6.004
REMARK  Name = 
REMARK  7 active torsions:
REMARK  status: ('A' for Active; 'I' for Inactive)
REMARK    1  A    between atoms: C_1  and  C_2
REMARK    2  A    between atoms: N_4  and  S_5
REMARK    3  A    between atoms: S_5  and  C_8
REMARK    4  A    between atoms: C_15  and  O_16
REMARK    5  A    between atoms: O_16  and  C_17
REMARK    6  A    between atoms: C_17  and  C_18
REMARK    7  A    between atoms: C_25  and  N_26
REMARK                            x       y       z     vdW  Elec       q    Type
REMARK                         _______ _______ _______ _____ _____    ______ ____
ROOT
ATOM      1  C   UNL     1      -3.002   9.772  15.293  0.00  0.00    +0.000 C 
ATOM      2  C   UNL     1      -2.691  10.397  16.608  0.00  0.00    +0.000 A 
ATOM      3  C   UNL     1      -1.496  10.341  17.269  0.00  0.00    +0.000 A 
ATOM      4  N   UNL     1      -1.601  11.048  18.451  0.00  0.00    +0.000 N 
ATOM      5  C   UNL     1      -2.903  11.530  18.639  0.00  0.00    +0.000 A 
ATOM      6  C   UNL     1      -3.624  12.233  19.662  0.00  0.00    +0.000 A 
ATOM      7  C   UNL     1      -4.945  12.629  19.372  0.00  0.00    +0.000 A 
ATOM      8  C   UNL     1      -5.562  12.306  18.167  0.00  0.00    +0.000 A 
ATOM      9  C   UNL     1      -4.897  11.555  17.206  0.00  0.00    +0.000 A 
ATOM     10  C   UNL     1      -3.565  11.169  17.433  0.00  0.00    +0.000 A 
ENDROOT
BRANCH   4  11
ATOM     11  S   UNL     1      -0.238  11.007  19.499  0.00  0.00    +0.000 S 
ATOM     12  O   UNL     1      -0.740  10.378  20.716  0.00  0.00    +0.000 OA
ATOM     13  O   UNL     1       0.903  10.506  18.790  0.00  0.00    +0.000 OA
BRANCH  11  14
ATOM     14  C   UNL     1       0.018  12.740  19.858  0.00  0.00    +0.000 A 
ATOM     15  C   UNL     1      -0.100  13.677  18.827  0.00  0.00    +0.000 A 
ATOM     16  C   UNL     1       0.437  14.954  19.003  0.00  0.00    +0.000 A 
ATOM     17  C   UNL     1       1.079  15.284  20.198  0.00  0.00    +0.000 A 
ATOM     18  C   UNL     1       1.120  14.370  21.250  0.00  0.00    +0.000 A 
ATOM     19  C   UNL     1       0.572  13.099  21.092  0.00  0.00    +0.000 A 
ENDBRANCH  11  14
ENDBRANCH   4  11
BRANCH   8  20
ATOM     20  N   UNL     1      -6.937  12.749  17.903  0.00  0.00    +0.000 N 
ATOM     21  O   UNL     1      -7.776  12.605  18.803  0.00  0.00    +0.000 OA
ATOM     22  O   UNL     1      -7.179  13.254  16.794  0.00  0.00    +0.000 OA
ENDBRANCH   8  20
BRANCH   6  23
ATOM     23  O   UNL     1      -3.045  12.531  20.880  0.00  0.00    +0.000 OA
BRANCH  23  24
ATOM     24  C   UNL     1      -3.714  13.433  21.818  0.00  0.00    +0.000 C 
BRANCH  24  25
ATOM     25  C   UNL     1      -2.979  14.746  21.983  0.00  0.00    +0.000 A 
ATOM     26  C   UNL     1      -2.992  15.674  20.932  0.00  0.00    +0.000 A 
ATOM     27  C   UNL     1      -2.186  16.810  20.973  0.00  0.00    +0.000 A 
ATOM     28  C   UNL     1      -1.393  17.062  22.089  0.00  0.00    +0.000 A 
ATOM     29  C   UNL     1      -1.472  16.220  23.198  0.00  0.00    +0.000 A 
ATOM     30  C   UNL     1      -2.274  15.074  23.153  0.00  0.00    +0.000 A 
ENDBRANCH  24  25
ENDBRANCH  23  24
ENDBRANCH   6  23
TORSDOF 6
ENDMDL
MODEL 9
REMARK VINA RESULT:      -6.8      4.398      7.782
REMARK  Name = 
REMARK  7 active torsions:
REMARK  status: ('A' for Active; 'I' for Inactive)
REMARK    1  A    between atoms: C_1  and  C_2
REMARK    2  A    between atoms: N_4  and  S_5
REMARK    3  A    between atoms: S_5  and  C_8
REMARK    4  A    between atoms: C_15  and  O_16
REMARK    5  A    between atoms: O_16  and  C_17
REMARK    6  A    between atoms: C_17  and  C_18
REMARK    7  A    between atoms: C_25  and  N_26
REMARK                            x       y       z     vdW  Elec       q    Type
REMARK                         _______ _______ _______ _____ _____    ______ ____
ROOT
ATOM      1  C   UNL     1       0.280   9.277  23.214  0.00  0.00    +0.000 C 
ATOM      2  C   UNL     1      -0.038  10.361  22.243  0.00  0.00    +0.000 A 
ATOM      3  C   UNL     1       0.590  10.589  21.051  0.00  0.00    +0.000 A 
ATOM      4  N   UNL     1       0.006  11.680  20.436  0.00  0.00    +0.000 N 
ATOM      5  C   UNL     1      -0.981  12.252  21.249  0.00  0.00    +0.000 A 
ATOM      6  C   UNL     1      -1.843  13.398  21.203  0.00  0.00    +0.000 A 
ATOM      7  C   UNL     1      -2.800  13.534  22.228  0.00  0.00    +0.000 A 
ATOM      8  C   UNL     1      -2.879  12.632  23.285  0.00  0.00    +0.000 A 
ATOM      9  C   UNL     1      -1.993  11.567  23.378  0.00  0.00    +0.000 A 
ATOM     10  C   UNL     1      -1.045  11.366  22.360  0.00  0.00    +0.000 A 
ENDROOT
BRANCH   4  11
ATOM     11  S   UNL     1       0.726  12.216  18.968  0.00  0.00    +0.000 S 
ATOM     12  O   UNL     1       1.469  11.055  18.488  0.00  0.00    +0.000 OA
ATOM     13  O   UNL     1      -0.255  12.886  18.165  0.00  0.00    +0.000 OA
BRANCH  11  14
ATOM     14  C   UNL     1       1.920  13.415  19.545  0.00  0.00    +0.000 A 
ATOM     15  C   UNL     1       1.784  13.952  20.829  0.00  0.00    +0.000 A 
ATOM     16  C   UNL     1       2.473  15.122  21.154  0.00  0.00    +0.000 A 
ATOM     17  C   UNL     1       3.287  15.741  20.204  0.00  0.00    +0.000 A 
ATOM     18  C   UNL     1       3.479  15.154  18.953  0.00  0.00    +0.000 A 
ATOM     19  C   UNL     1       2.812  13.977  18.625  0.00  0.00    +0.000 A 
ENDBRANCH  11  14
ENDBRANCH   4  11
BRANCH   8  20
ATOM     20  N   UNL     1      -3.900  12.806  24.325  0.00  0.00    +0.000 N 
ATOM     21  O   UNL     1      -4.693  11.874  24.522  0.00  0.00    +0.000 OA
ATOM     22  O   UNL     1      -3.907  13.875  24.957  0.00  0.00    +0.000 OA
ENDBRANCH   8  20
BRANCH   6  23
ATOM     23  O   UNL     1      -1.757  14.328  20.185  0.00  0.00    +0.000 OA
BRANCH  23  24
ATOM     24  C   UNL     1      -1.912  15.755  20.468  0.00  0.00    +0.000 C 
BRANCH  24  25
ATOM     25  C   UNL     1      -0.788  16.586  19.888  0.00  0.00    +0.000 A 
ATOM     26  C   UNL     1      -0.188  17.575  20.681  0.00  0.00    +0.000 A 
ATOM     27  C   UNL     1       0.721  18.477  20.130  0.00  0.00    +0.000 A 
ATOM     28  C   UNL     1       1.084  18.370  18.791  0.00  0.00    +0.000 A 
ATOM     29  C   UNL     1       0.600  17.311  18.024  0.00  0.00    +0.000 A 
ATOM     30  C   UNL     1      -0.322  16.412  18.574  0.00  0.00    +0.000 A 
ENDBRANCH  24  25
ENDBRANCH  23  24
ENDBRANCH   6  23
TORSDOF 6
ENDMDL
