MODEL 1
REMARK VINA RESULT:      -8.6      0.000      0.000
REMARK  Name = 
REMARK  8 active torsions:
REMARK  status: ('A' for Active; 'I' for Inactive)
REMARK    1  A    between atoms: C_1  and  C_2
REMARK    2  A    between atoms: C_2  and  S_3
REMARK    3  A    between atoms: C_2  and  C_10
REMARK    4  A    between atoms: S_3  and  C_4
REMARK    5  A    between atoms: N_8  and  C_9
REMARK    6  A    between atoms: C_16  and  C_18
REMARK    7  A    between atoms: C_20  and  C_21
REMARK    8  A    between atoms: C_25  and  C_26
REMARK                            x       y       z     vdW  Elec       q    Type
REMARK                         _______ _______ _______ _____ _____    ______ ____
ROOT
ATOM      1  C   UNL     1       0.246  10.808  21.205  0.00  0.00    +0.000 A 
ATOM      2  C   UNL     1       0.356  11.861  20.291  0.00  0.00    +0.000 A 
ATOM      3  C   UNL     1       0.978  11.624  19.079  0.00  0.00    +0.000 A 
ATOM      4  N   UNL     1       1.485  10.430  18.717  0.00  0.00    +0.000 NA
ATOM      5  C   UNL     1       1.374   9.402  19.573  0.00  0.00    +0.000 A 
ATOM      6  N   UNL     1       1.894   8.143  19.225  0.00  0.00    +0.000 N 
ATOM      7  C   UNL     1       2.510   7.851  18.021  0.00  0.00    +0.000 C 
ATOM      8  O   UNL     1       2.668   8.600  17.060  0.00  0.00    +0.000 OA
ATOM      9  C   UNL     1       0.758   9.553  20.818  0.00  0.00    +0.000 A 
ATOM     10  H   UNL     1       1.838   7.387  19.895  0.00  0.00    +0.000 HD
ENDROOT
BRANCH   7  11
ATOM     11  C   UNL     1       3.030   6.450  17.912  0.00  0.00    +0.000 A 
ATOM     12  C   UNL     1       2.412   5.432  18.635  0.00  0.00    +0.000 A 
ATOM     13  C   UNL     1       2.873   4.117  18.524  0.00  0.00    +0.000 A 
ATOM     14  C   UNL     1       3.950   3.899  17.655  0.00  0.00    +0.000 A 
ATOM     15  C   UNL     1       4.532   4.962  16.950  0.00  0.00    +0.000 A 
ATOM     16  N   UNL     1       4.086   6.247  17.078  0.00  0.00    +0.000 NA
BRANCH  15  17
ATOM     17  C   UNL     1       5.689   4.682  15.998  0.00  0.00    +0.000 C 
ATOM     18  F   UNL     1       6.854   5.296  16.357  0.00  0.00    +0.000 F 
ATOM     19  F   UNL     1       5.988   3.355  15.910  0.00  0.00    +0.000 F 
ATOM     20  F   UNL     1       5.435   5.096  14.724  0.00  0.00    +0.000 F 
ENDBRANCH  15  17
BRANCH  13  21
ATOM     21  C   UNL     1       2.204   2.977  19.256  0.00  0.00    +0.000 C 
ATOM     22  C   UNL     1       1.021   3.238  20.159  0.00  0.00    +0.000 C 
ATOM     23  C   UNL     1       0.819   2.520  18.860  0.00  0.00    +0.000 C 
ENDBRANCH  13  21
ENDBRANCH   7  11
BRANCH   1  25
ATOM     24  C   UNL     1      -0.805   9.734  23.247  0.00  0.00    +0.000 C 
ATOM     25  C   UNL     1      -0.448  11.049  22.545  0.00  0.00    +0.000 C 
BRANCH  25  26
ATOM     26  S   UNL     1      -1.919  12.108  22.275  0.00  0.00    +0.000 S 
BRANCH  26  27
ATOM     27  C   UNL     1      -1.585  13.506  23.233  0.00  0.00    +0.000 A 
ATOM     28  N   UNL     1      -0.492  14.231  23.258  0.00  0.00    +0.000 NA
ATOM     29  N   UNL     1      -0.660  15.210  24.218  0.00  0.00    +0.000 NA
ATOM     30  C   UNL     1      -1.858  15.061  24.734  0.00  0.00    +0.000 A 
ATOM     31  N   UNL     1      -2.481  14.008  24.135  0.00  0.00    +0.000 N 
ATOM     32  C   UNL     1      -3.805  13.529  24.422  0.00  0.00    +0.000 C 
ENDBRANCH  26  27
ENDBRANCH  25  26
ENDBRANCH   1  25
TORSDOF 6
ENDMDL
MODEL 2
REMARK VINA RESULT:      -8.5      1.978      3.134
REMARK  Name = 
REMARK  8 active torsions:
REMARK  status: ('A' for Active; 'I' for Inactive)
REMARK    1  A    between atoms: C_1  and  C_2
REMARK    2  A    between atoms: C_2  and  S_3
REMARK    3  A    between atoms: C_2  and  C_10
REMARK    4  A    between atoms: S_3  and  C_4
REMARK    5  A    between atoms: N_8  and  C_9
REMARK    6  A    between atoms: C_16  and  C_18
REMARK    7  A    between atoms: C_20  and  C_21
REMARK    8  A    between atoms: C_25  and  C_26
REMARK                            x       y       z     vdW  Elec       q    Type
REMARK                         _______ _______ _______ _____ _____    ______ ____
ROOT
ATOM      1  C   UNL     1       0.172  10.956  21.166  0.00  0.00    +0.000 A 
ATOM      2  C   UNL     1       0.253  11.967  20.203  0.00  0.00    +0.000 A 
ATOM      3  C   UNL     1       0.856  11.682  18.992  0.00  0.00    +0.000 A 
ATOM      4  N   UNL     1       1.371  10.479  18.676  0.00  0.00    +0.000 NA
ATOM      5  C   UNL     1       1.288   9.489  19.580  0.00  0.00    +0.000 A 
ATOM      6  N   UNL     1       1.817   8.222  19.280  0.00  0.00    +0.000 N 
ATOM      7  C   UNL     1       2.415   7.882  18.079  0.00  0.00    +0.000 C 
ATOM      8  O   UNL     1       2.546   8.588  17.082  0.00  0.00    +0.000 OA
ATOM      9  C   UNL     1       0.692   9.690  20.827  0.00  0.00    +0.000 A 
ATOM     10  H   UNL     1       1.782   7.497  19.984  0.00  0.00    +0.000 HD
ENDROOT
BRANCH   7  11
ATOM     11  C   UNL     1       2.950   6.483  18.025  0.00  0.00    +0.000 A 
ATOM     12  C   UNL     1       4.194   6.248  17.445  0.00  0.00    +0.000 A 
ATOM     13  C   UNL     1       4.715   4.951  17.408  0.00  0.00    +0.000 A 
ATOM     14  C   UNL     1       3.934   3.943  17.989  0.00  0.00    +0.000 A 
ATOM     15  C   UNL     1       2.689   4.239  18.562  0.00  0.00    +0.000 A 
ATOM     16  N   UNL     1       2.180   5.506  18.577  0.00  0.00    +0.000 NA
BRANCH  15  17
ATOM     17  C   UNL     1       1.877   3.119  19.202  0.00  0.00    +0.000 C 
ATOM     18  F   UNL     1       0.832   3.564  19.960  0.00  0.00    +0.000 F 
ATOM     19  F   UNL     1       1.328   2.276  18.282  0.00  0.00    +0.000 F 
ATOM     20  F   UNL     1       2.623   2.335  20.032  0.00  0.00    +0.000 F 
ENDBRANCH  15  17
BRANCH  13  21
ATOM     21  C   UNL     1       6.079   4.660  16.828  0.00  0.00    +0.000 C 
ATOM     22  C   UNL     1       7.102   5.763  16.687  0.00  0.00    +0.000 C 
ATOM     23  C   UNL     1       7.308   4.687  17.709  0.00  0.00    +0.000 C 
ENDBRANCH  13  21
ENDBRANCH   7  11
BRANCH   1  25
ATOM     24  C   UNL     1      -0.868   9.964  23.255  0.00  0.00    +0.000 C 
ATOM     25  C   UNL     1      -0.500  11.250  22.507  0.00  0.00    +0.000 C 
BRANCH  25  26
ATOM     26  S   UNL     1      -1.958  12.324  22.221  0.00  0.00    +0.000 S 
BRANCH  26  27
ATOM     27  C   UNL     1      -1.764  13.578  23.393  0.00  0.00    +0.000 A 
ATOM     28  N   UNL     1      -0.660  14.184  23.758  0.00  0.00    +0.000 NA
ATOM     29  N   UNL     1      -0.982  15.074  24.764  0.00  0.00    +0.000 NA
ATOM     30  C   UNL     1      -2.277  14.995  24.966  0.00  0.00    +0.000 A 
ATOM     31  N   UNL     1      -2.812  14.074  24.116  0.00  0.00    +0.000 N 
ATOM     32  C   UNL     1      -4.198  13.704  24.027  0.00  0.00    +0.000 C 
ENDBRANCH  26  27
ENDBRANCH  25  26
ENDBRANCH   1  25
TORSDOF 6
ENDMDL
MODEL 3
REMARK VINA RESULT:      -8.4      2.287      3.276
REMARK  Name = 
REMARK  8 active torsions:
REMARK  status: ('A' for Active; 'I' for Inactive)
REMARK    1  A    between atoms: C_1  and  C_2
REMARK    2  A    between atoms: C_2  and  S_3
REMARK    3  A    between atoms: C_2  and  C_10
REMARK    4  A    between atoms: S_3  and  C_4
REMARK    5  A    between atoms: N_8  and  C_9
REMARK    6  A    between atoms: C_16  and  C_18
REMARK    7  A    between atoms: C_20  and  C_21
REMARK    8  A    between atoms: C_25  and  C_26
REMARK                            x       y       z     vdW  Elec       q    Type
REMARK                         _______ _______ _______ _____ _____    ______ ____
ROOT
ATOM      1  C   UNL     1       0.151  11.476  21.114  0.00  0.00    +0.000 A 
ATOM      2  C   UNL     1       0.342  12.408  20.090  0.00  0.00    +0.000 A 
ATOM      3  C   UNL     1       0.964  11.997  18.926  0.00  0.00    +0.000 A 
ATOM      4  N   UNL     1       1.398  10.740  18.712  0.00  0.00    +0.000 NA
ATOM      5  C   UNL     1       1.208   9.824  19.676  0.00  0.00    +0.000 A 
ATOM      6  N   UNL     1       1.650   8.504  19.483  0.00  0.00    +0.000 N 
ATOM      7  C   UNL     1       2.263   8.039  18.334  0.00  0.00    +0.000 C 
ATOM      8  O   UNL     1       2.483   8.662  17.298  0.00  0.00    +0.000 OA
ATOM      9  C   UNL     1       0.586  10.155  20.882  0.00  0.00    +0.000 A 
ATOM     10  H   UNL     1       1.535   7.835  20.233  0.00  0.00    +0.000 HD
ENDROOT
BRANCH   7  11
ATOM     11  C   UNL     1       2.693   6.604  18.394  0.00  0.00    +0.000 A 
ATOM     12  C   UNL     1       3.640   6.134  17.487  0.00  0.00    +0.000 A 
ATOM     13  C   UNL     1       4.066   4.804  17.548  0.00  0.00    +0.000 A 
ATOM     14  C   UNL     1       3.507   4.010  18.559  0.00  0.00    +0.000 A 
ATOM     15  C   UNL     1       2.559   4.538  19.446  0.00  0.00    +0.000 A 
ATOM     16  N   UNL     1       2.135   5.834  19.368  0.00  0.00    +0.000 NA
BRANCH  15  17
ATOM     17  C   UNL     1       1.989   3.649  20.545  0.00  0.00    +0.000 C 
ATOM     18  F   UNL     1       2.233   2.319  20.356  0.00  0.00    +0.000 F 
ATOM     19  F   UNL     1       2.498   3.942  21.775  0.00  0.00    +0.000 F 
ATOM     20  F   UNL     1       0.635   3.759  20.663  0.00  0.00    +0.000 F 
ENDBRANCH  15  17
BRANCH  13  21
ATOM     21  C   UNL     1       5.122   4.265  16.612  0.00  0.00    +0.000 C 
ATOM     22  C   UNL     1       5.753   5.163  15.573  0.00  0.00    +0.000 C 
ATOM     23  C   UNL     1       6.562   4.706  16.748  0.00  0.00    +0.000 C 
ENDBRANCH  13  21
ENDBRANCH   7  11
BRANCH   1  25
ATOM     24  C   UNL     1      -1.204  10.729  23.123  0.00  0.00    +0.000 C 
ATOM     25  C   UNL     1      -0.544  11.911  22.404  0.00  0.00    +0.000 C 
BRANCH  25  26
ATOM     26  S   UNL     1      -1.746  13.240  22.015  0.00  0.00    +0.000 S 
BRANCH  26  27
ATOM     27  C   UNL     1      -1.824  14.146  23.484  0.00  0.00    +0.000 A 
ATOM     28  N   UNL     1      -0.869  14.829  24.069  0.00  0.00    +0.000 NA
ATOM     29  N   UNL     1      -1.379  15.338  25.247  0.00  0.00    +0.000 NA
ATOM     30  C   UNL     1      -2.635  14.965  25.333  0.00  0.00    +0.000 A 
ATOM     31  N   UNL     1      -2.962  14.224  24.237  0.00  0.00    +0.000 N 
ATOM     32  C   UNL     1      -4.244  13.637  23.961  0.00  0.00    +0.000 C 
ENDBRANCH  26  27
ENDBRANCH  25  26
ENDBRANCH   1  25
TORSDOF 6
ENDMDL
MODEL 4
REMARK VINA RESULT:      -8.4      0.751      1.019
REMARK  Name = 
REMARK  8 active torsions:
REMARK  status: ('A' for Active; 'I' for Inactive)
REMARK    1  A    between atoms: C_1  and  C_2
REMARK    2  A    between atoms: C_2  and  S_3
REMARK    3  A    between atoms: C_2  and  C_10
REMARK    4  A    between atoms: S_3  and  C_4
REMARK    5  A    between atoms: N_8  and  C_9
REMARK    6  A    between atoms: C_16  and  C_18
REMARK    7  A    between atoms: C_20  and  C_21
REMARK    8  A    between atoms: C_25  and  C_26
REMARK                            x       y       z     vdW  Elec       q    Type
REMARK                         _______ _______ _______ _____ _____    ______ ____
ROOT
ATOM      1  C   UNL     1      -0.109  11.325  21.095  0.00  0.00    +0.000 A 
ATOM      2  C   UNL     1      -0.076  12.293  20.087  0.00  0.00    +0.000 A 
ATOM      3  C   UNL     1       0.543  11.983  18.890  0.00  0.00    +0.000 A 
ATOM      4  N   UNL     1       1.117  10.793  18.630  0.00  0.00    +0.000 NA
ATOM      5  C   UNL     1       1.081   9.843  19.578  0.00  0.00    +0.000 A 
ATOM      6  N   UNL     1       1.672   8.591  19.337  0.00  0.00    +0.000 N 
ATOM      7  C   UNL     1       2.289   8.226  18.154  0.00  0.00    +0.000 C 
ATOM      8  O   UNL     1       2.388   8.891  17.125  0.00  0.00    +0.000 OA
ATOM      9  C   UNL     1       0.474  10.072  20.815  0.00  0.00    +0.000 A 
ATOM     10  H   UNL     1       1.672   7.899  20.074  0.00  0.00    +0.000 HD
ENDROOT
BRANCH   7  11
ATOM     11  C   UNL     1       2.893   6.854  18.164  0.00  0.00    +0.000 A 
ATOM     12  C   UNL     1       2.391   5.892  19.037  0.00  0.00    +0.000 A 
ATOM     13  C   UNL     1       2.929   4.602  19.040  0.00  0.00    +0.000 A 
ATOM     14  C   UNL     1       3.960   4.348  18.126  0.00  0.00    +0.000 A 
ATOM     15  C   UNL     1       4.424   5.356  17.268  0.00  0.00    +0.000 A 
ATOM     16  N   UNL     1       3.903   6.618  17.284  0.00  0.00    +0.000 NA
BRANCH  15  17
ATOM     17  C   UNL     1       5.533   5.037  16.272  0.00  0.00    +0.000 C 
ATOM     18  F   UNL     1       5.244   5.411  14.991  0.00  0.00    +0.000 F 
ATOM     19  F   UNL     1       6.708   5.658  16.577  0.00  0.00    +0.000 F 
ATOM     20  F   UNL     1       5.818   3.705  16.208  0.00  0.00    +0.000 F 
ENDBRANCH  15  17
BRANCH  13  21
ATOM     21  C   UNL     1       2.386   3.517  19.940  0.00  0.00    +0.000 C 
ATOM     22  C   UNL     1       1.021   3.660  20.571  0.00  0.00    +0.000 C 
ATOM     23  C   UNL     1       1.233   2.651  19.484  0.00  0.00    +0.000 C 
ENDBRANCH  13  21
ENDBRANCH   7  11
BRANCH   1  25
ATOM     24  C   UNL     1      -1.020  10.389  23.269  0.00  0.00    +0.000 C 
ATOM     25  C   UNL     1      -0.798  11.647  22.421  0.00  0.00    +0.000 C 
BRANCH  25  26
ATOM     26  S   UNL     1      -2.365  12.534  22.080  0.00  0.00    +0.000 S 
BRANCH  26  27
ATOM     27  C   UNL     1      -2.450  13.696  23.355  0.00  0.00    +0.000 A 
ATOM     28  N   UNL     1      -1.716  14.769  23.526  0.00  0.00    +0.000 NA
ATOM     29  N   UNL     1      -2.105  15.359  24.713  0.00  0.00    +0.000 NA
ATOM     30  C   UNL     1      -3.078  14.636  25.217  0.00  0.00    +0.000 A 
ATOM     31  N   UNL     1      -3.337  13.586  24.389  0.00  0.00    +0.000 N 
ATOM     32  C   UNL     1      -4.334  12.571  24.591  0.00  0.00    +0.000 C 
ENDBRANCH  26  27
ENDBRANCH  25  26
ENDBRANCH   1  25
TORSDOF 6
ENDMDL
MODEL 5
REMARK VINA RESULT:      -8.3      2.518      3.609
REMARK  Name = 
REMARK  8 active torsions:
REMARK  status: ('A' for Active; 'I' for Inactive)
REMARK    1  A    between atoms: C_1  and  C_2
REMARK    2  A    between atoms: C_2  and  S_3
REMARK    3  A    between atoms: C_2  and  C_10
REMARK    4  A    between atoms: S_3  and  C_4
REMARK    5  A    between atoms: N_8  and  C_9
REMARK    6  A    between atoms: C_16  and  C_18
REMARK    7  A    between atoms: C_20  and  C_21
REMARK    8  A    between atoms: C_25  and  C_26
REMARK                            x       y       z     vdW  Elec       q    Type
REMARK                         _______ _______ _______ _____ _____    ______ ____
ROOT
ATOM      1  C   UNL     1      -0.207  11.941  21.153  0.00  0.00    +0.000 A 
ATOM      2  C   UNL     1      -0.173  12.838  20.081  0.00  0.00    +0.000 A 
ATOM      3  C   UNL     1       0.414  12.434  18.896  0.00  0.00    +0.000 A 
ATOM      4  N   UNL     1       0.956  11.216  18.706  0.00  0.00    +0.000 NA
ATOM      5  C   UNL     1       0.918  10.333  19.716  0.00  0.00    +0.000 A 
ATOM      6  N   UNL     1       1.476   9.054  19.549  0.00  0.00    +0.000 N 
ATOM      7  C   UNL     1       2.059   8.596  18.381  0.00  0.00    +0.000 C 
ATOM      8  O   UNL     1       2.152   9.187  17.308  0.00  0.00    +0.000 OA
ATOM      9  C   UNL     1       0.342  10.658  20.947  0.00  0.00    +0.000 A 
ATOM     10  H   UNL     1       1.474   8.412  20.331  0.00  0.00    +0.000 HD
ENDROOT
BRANCH   7  11
ATOM     11  C   UNL     1       2.631   7.214  18.472  0.00  0.00    +0.000 A 
ATOM     12  C   UNL     1       3.705   6.862  17.657  0.00  0.00    +0.000 A 
ATOM     13  C   UNL     1       4.263   5.583  17.748  0.00  0.00    +0.000 A 
ATOM     14  C   UNL     1       3.699   4.717  18.694  0.00  0.00    +0.000 A 
ATOM     15  C   UNL     1       2.620   5.126  19.491  0.00  0.00    +0.000 A 
ATOM     16  N   UNL     1       2.070   6.372  19.383  0.00  0.00    +0.000 NA
BRANCH  15  17
ATOM     17  C   UNL     1       2.047   4.163  20.523  0.00  0.00    +0.000 C 
ATOM     18  F   UNL     1       2.410   4.456  21.807  0.00  0.00    +0.000 F 
ATOM     19  F   UNL     1       0.684   4.144  20.525  0.00  0.00    +0.000 F 
ATOM     20  F   UNL     1       2.440   2.874  20.318  0.00  0.00    +0.000 F 
ENDBRANCH  15  17
BRANCH  13  21
ATOM     21  C   UNL     1       5.454   5.175  16.913  0.00  0.00    +0.000 C 
ATOM     22  C   UNL     1       5.354   4.012  15.954  0.00  0.00    +0.000 C 
ATOM     23  C   UNL     1       5.457   5.407  15.419  0.00  0.00    +0.000 C 
ENDBRANCH  13  21
ENDBRANCH   7  11
BRANCH   1  25
ATOM     24  C   UNL     1      -1.598  11.206  23.141  0.00  0.00    +0.000 C 
ATOM     25  C   UNL     1      -0.860  12.368  22.467  0.00  0.00    +0.000 C 
BRANCH  25  26
ATOM     26  S   UNL     1      -1.966  13.795  22.148  0.00  0.00    +0.000 S 
BRANCH  26  27
ATOM     27  C   UNL     1      -3.495  13.253  22.741  0.00  0.00    +0.000 A 
ATOM     28  N   UNL     1      -4.378  12.495  22.136  0.00  0.00    +0.000 NA
ATOM     29  N   UNL     1      -5.471  12.375  22.972  0.00  0.00    +0.000 NA
ATOM     30  C   UNL     1      -5.210  13.049  24.068  0.00  0.00    +0.000 A 
ATOM     31  N   UNL     1      -3.972  13.608  23.971  0.00  0.00    +0.000 N 
ATOM     32  C   UNL     1      -3.326  14.418  24.968  0.00  0.00    +0.000 C 
ENDBRANCH  26  27
ENDBRANCH  25  26
ENDBRANCH   1  25
TORSDOF 6
ENDMDL
MODEL 6
REMARK VINA RESULT:      -8.3      1.014      1.256
REMARK  Name = 
REMARK  8 active torsions:
REMARK  status: ('A' for Active; 'I' for Inactive)
REMARK    1  A    between atoms: C_1  and  C_2
REMARK    2  A    between atoms: C_2  and  S_3
REMARK    3  A    between atoms: C_2  and  C_10
REMARK    4  A    between atoms: S_3  and  C_4
REMARK    5  A    between atoms: N_8  and  C_9
REMARK    6  A    between atoms: C_16  and  C_18
REMARK    7  A    between atoms: C_20  and  C_21
REMARK    8  A    between atoms: C_25  and  C_26
REMARK                            x       y       z     vdW  Elec       q    Type
REMARK                         _______ _______ _______ _____ _____    ______ ____
ROOT
ATOM      1  C   UNL     1       0.139  10.713  21.005  0.00  0.00    +0.000 A 
ATOM      2  C   UNL     1      -0.102  11.543  19.906  0.00  0.00    +0.000 A 
ATOM      3  C   UNL     1       0.434  11.194  18.681  0.00  0.00    +0.000 A 
ATOM      4  N   UNL     1       1.177  10.089  18.475  0.00  0.00    +0.000 NA
ATOM      5  C   UNL     1       1.405   9.269  19.513  0.00  0.00    +0.000 A 
ATOM      6  N   UNL     1       2.178   8.109  19.331  0.00  0.00    +0.000 N 
ATOM      7  C   UNL     1       2.723   7.707  18.124  0.00  0.00    +0.000 C 
ATOM      8  O   UNL     1       2.597   8.249  17.028  0.00  0.00    +0.000 OA
ATOM      9  C   UNL     1       0.899   9.545  20.785  0.00  0.00    +0.000 A 
ATOM     10  H   UNL     1       2.375   7.521  20.129  0.00  0.00    +0.000 HD
ENDROOT
BRANCH   7  11
ATOM     11  C   UNL     1       3.554   6.463  18.200  0.00  0.00    +0.000 A 
ATOM     12  C   UNL     1       2.948   5.254  18.536  0.00  0.00    +0.000 A 
ATOM     13  C   UNL     1       3.708   4.081  18.587  0.00  0.00    +0.000 A 
ATOM     14  C   UNL     1       5.068   4.199  18.274  0.00  0.00    +0.000 A 
ATOM     15  C   UNL     1       5.624   5.443  17.941  0.00  0.00    +0.000 A 
ATOM     16  N   UNL     1       4.878   6.586  17.910  0.00  0.00    +0.000 NA
BRANCH  15  17
ATOM     17  C   UNL     1       7.104   5.528  17.587  0.00  0.00    +0.000 C 
ATOM     18  F   UNL     1       7.405   6.551  16.735  0.00  0.00    +0.000 F 
ATOM     19  F   UNL     1       7.896   5.718  18.680  0.00  0.00    +0.000 F 
ATOM     20  F   UNL     1       7.567   4.398  16.980  0.00  0.00    +0.000 F 
ENDBRANCH  15  17
BRANCH  13  21
ATOM     21  C   UNL     1       3.082   2.743  18.904  0.00  0.00    +0.000 C 
ATOM     22  C   UNL     1       1.593   2.631  19.135  0.00  0.00    +0.000 C 
ATOM     23  C   UNL     1       2.196   2.054  17.891  0.00  0.00    +0.000 C 
ENDBRANCH  13  21
ENDBRANCH   7  11
BRANCH   1  25
ATOM     24  C   UNL     1      -0.798   9.834  23.191  0.00  0.00    +0.000 C 
ATOM     25  C   UNL     1      -0.454  11.078  22.365  0.00  0.00    +0.000 C 
BRANCH  25  26
ATOM     26  S   UNL     1      -1.910  12.162  22.110  0.00  0.00    +0.000 S 
BRANCH  26  27
ATOM     27  C   UNL     1      -1.587  13.511  23.140  0.00  0.00    +0.000 A 
ATOM     28  N   UNL     1      -0.490  14.223  23.225  0.00  0.00    +0.000 NA
ATOM     29  N   UNL     1      -0.673  15.159  24.225  0.00  0.00    +0.000 NA
ATOM     30  C   UNL     1      -1.884  14.997  24.705  0.00  0.00    +0.000 A 
ATOM     31  N   UNL     1      -2.501  13.979  24.043  0.00  0.00    +0.000 N 
ATOM     32  C   UNL     1      -3.836  13.500  24.275  0.00  0.00    +0.000 C 
ENDBRANCH  26  27
ENDBRANCH  25  26
ENDBRANCH   1  25
TORSDOF 6
ENDMDL
MODEL 7
REMARK VINA RESULT:      -8.2      1.427      1.939
REMARK  Name = 
REMARK  8 active torsions:
REMARK  status: ('A' for Active; 'I' for Inactive)
REMARK    1  A    between atoms: C_1  and  C_2
REMARK    2  A    between atoms: C_2  and  S_3
REMARK    3  A    between atoms: C_2  and  C_10
REMARK    4  A    between atoms: S_3  and  C_4
REMARK    5  A    between atoms: N_8  and  C_9
REMARK    6  A    between atoms: C_16  and  C_18
REMARK    7  A    between atoms: C_20  and  C_21
REMARK    8  A    between atoms: C_25  and  C_26
REMARK                            x       y       z     vdW  Elec       q    Type
REMARK                         _______ _______ _______ _____ _____    ______ ____
ROOT
ATOM      1  C   UNL     1      -0.085  11.915  21.108  0.00  0.00    +0.000 A 
ATOM      2  C   UNL     1       0.158  12.847  20.094  0.00  0.00    +0.000 A 
ATOM      3  C   UNL     1       0.824  12.429  18.956  0.00  0.00    +0.000 A 
ATOM      4  N   UNL     1       1.251  11.167  18.758  0.00  0.00    +0.000 NA
ATOM      5  C   UNL     1       1.012  10.253  19.712  0.00  0.00    +0.000 A 
ATOM      6  N   UNL     1       1.447   8.928  19.537  0.00  0.00    +0.000 N 
ATOM      7  C   UNL     1       2.101   8.457  18.413  0.00  0.00    +0.000 C 
ATOM      8  O   UNL     1       2.370   9.078  17.387  0.00  0.00    +0.000 OA
ATOM      9  C   UNL     1       0.344  10.590  20.892  0.00  0.00    +0.000 A 
ATOM     10  H   UNL     1       1.294   8.259  20.280  0.00  0.00    +0.000 HD
ENDROOT
BRANCH   7  11
ATOM     11  C   UNL     1       2.511   7.018  18.489  0.00  0.00    +0.000 A 
ATOM     12  C   UNL     1       1.835   6.157  19.351  0.00  0.00    +0.000 A 
ATOM     13  C   UNL     1       2.192   4.807  19.415  0.00  0.00    +0.000 A 
ATOM     14  C   UNL     1       3.230   4.391  18.571  0.00  0.00    +0.000 A 
ATOM     15  C   UNL     1       3.875   5.301  17.721  0.00  0.00    +0.000 A 
ATOM     16  N   UNL     1       3.530   6.622  17.678  0.00  0.00    +0.000 NA
BRANCH  15  17
ATOM     17  C   UNL     1       4.986   4.807  16.803  0.00  0.00    +0.000 C 
ATOM     18  F   UNL     1       6.121   4.438  17.465  0.00  0.00    +0.000 F 
ATOM     19  F   UNL     1       4.618   3.715  16.074  0.00  0.00    +0.000 F 
ATOM     20  F   UNL     1       5.380   5.747  15.897  0.00  0.00    +0.000 F 
ENDBRANCH  15  17
BRANCH  13  21
ATOM     21  C   UNL     1       1.456   3.832  20.304  0.00  0.00    +0.000 C 
ATOM     22  C   UNL     1       1.937   2.406  20.437  0.00  0.00    +0.000 C 
ATOM     23  C   UNL     1       2.082   3.349  21.593  0.00  0.00    +0.000 C 
ENDBRANCH  13  21
ENDBRANCH   7  11
BRANCH   1  25
ATOM     24  C   UNL     1      -1.478  11.173  23.092  0.00  0.00    +0.000 C 
ATOM     25  C   UNL     1      -0.828  12.357  22.368  0.00  0.00    +0.000 C 
BRANCH  25  26
ATOM     26  S   UNL     1      -2.051  13.647  21.920  0.00  0.00    +0.000 S 
BRANCH  26  27
ATOM     27  C   UNL     1      -3.476  13.154  22.761  0.00  0.00    +0.000 A 
ATOM     28  N   UNL     1      -4.441  12.374  22.337  0.00  0.00    +0.000 NA
ATOM     29  N   UNL     1      -5.397  12.310  23.331  0.00  0.00    +0.000 NA
ATOM     30  C   UNL     1      -4.975  13.039  24.338  0.00  0.00    +0.000 A 
ATOM     31  N   UNL     1      -3.764  13.579  24.028  0.00  0.00    +0.000 N 
ATOM     32  C   UNL     1      -2.974  14.435  24.871  0.00  0.00    +0.000 C 
ENDBRANCH  26  27
ENDBRANCH  25  26
ENDBRANCH   1  25
TORSDOF 6
ENDMDL
MODEL 8
REMARK VINA RESULT:      -8.1      1.786      2.359
REMARK  Name = 
REMARK  8 active torsions:
REMARK  status: ('A' for Active; 'I' for Inactive)
REMARK    1  A    between atoms: C_1  and  C_2
REMARK    2  A    between atoms: C_2  and  S_3
REMARK    3  A    between atoms: C_2  and  C_10
REMARK    4  A    between atoms: S_3  and  C_4
REMARK    5  A    between atoms: N_8  and  C_9
REMARK    6  A    between atoms: C_16  and  C_18
REMARK    7  A    between atoms: C_20  and  C_21
REMARK    8  A    between atoms: C_25  and  C_26
REMARK                            x       y       z     vdW  Elec       q    Type
REMARK                         _______ _______ _______ _____ _____    ______ ____
ROOT
ATOM      1  C   UNL     1      -0.278  12.131  21.130  0.00  0.00    +0.000 A 
ATOM      2  C   UNL     1      -0.223  12.970  20.013  0.00  0.00    +0.000 A 
ATOM      3  C   UNL     1       0.366  12.495  18.855  0.00  0.00    +0.000 A 
ATOM      4  N   UNL     1       0.891  11.261  18.734  0.00  0.00    +0.000 NA
ATOM      5  C   UNL     1       0.833  10.433  19.790  0.00  0.00    +0.000 A 
ATOM      6  N   UNL     1       1.373   9.139  19.694  0.00  0.00    +0.000 N 
ATOM      7  C   UNL     1       1.958   8.611  18.557  0.00  0.00    +0.000 C 
ATOM      8  O   UNL     1       2.066   9.144  17.455  0.00  0.00    +0.000 OA
ATOM      9  C   UNL     1       0.253  10.831  20.996  0.00  0.00    +0.000 A 
ATOM     10  H   UNL     1       1.357   8.540  20.509  0.00  0.00    +0.000 HD
ENDROOT
BRANCH   7  11
ATOM     11  C   UNL     1       2.509   7.228  18.725  0.00  0.00    +0.000 A 
ATOM     12  C   UNL     1       2.139   6.474  19.837  0.00  0.00    +0.000 A 
ATOM     13  C   UNL     1       2.628   5.173  19.993  0.00  0.00    +0.000 A 
ATOM     14  C   UNL     1       3.472   4.693  18.984  0.00  0.00    +0.000 A 
ATOM     15  C   UNL     1       3.810   5.497  17.886  0.00  0.00    +0.000 A 
ATOM     16  N   UNL     1       3.341   6.772  17.749  0.00  0.00    +0.000 NA
BRANCH  15  17
ATOM     17  C   UNL     1       4.715   4.932  16.798  0.00  0.00    +0.000 C 
ATOM     18  F   UNL     1       4.218   3.810  16.199  0.00  0.00    +0.000 F 
ATOM     19  F   UNL     1       4.935   5.818  15.785  0.00  0.00    +0.000 F 
ATOM     20  F   UNL     1       5.947   4.582  17.265  0.00  0.00    +0.000 F 
ENDBRANCH  15  17
BRANCH  13  21
ATOM     21  C   UNL     1       2.217   4.306  21.160  0.00  0.00    +0.000 C 
ATOM     22  C   UNL     1       1.203   3.201  20.972  0.00  0.00    +0.000 C 
ATOM     23  C   UNL     1       2.639   2.856  21.222  0.00  0.00    +0.000 C 
ENDBRANCH  13  21
ENDBRANCH   7  11
BRANCH   1  25
ATOM     24  C   UNL     1      -1.708  11.526  23.134  0.00  0.00    +0.000 C 
ATOM     25  C   UNL     1      -0.934  12.636  22.415  0.00  0.00    +0.000 C 
BRANCH  25  26
ATOM     26  S   UNL     1      -1.999  14.074  22.016  0.00  0.00    +0.000 S 
BRANCH  26  27
ATOM     27  C   UNL     1      -3.582  13.388  21.944  0.00  0.00    +0.000 A 
ATOM     28  N   UNL     1      -4.091  12.618  21.013  0.00  0.00    +0.000 NA
ATOM     29  N   UNL     1      -5.406  12.363  21.351  0.00  0.00    +0.000 NA
ATOM     30  C   UNL     1      -5.650  12.972  22.489  0.00  0.00    +0.000 A 
ATOM     31  N   UNL     1      -4.526  13.620  22.905  0.00  0.00    +0.000 N 
ATOM     32  C   UNL     1      -4.389  14.397  24.106  0.00  0.00    +0.000 C 
ENDBRANCH  26  27
ENDBRANCH  25  26
ENDBRANCH   1  25
TORSDOF 6
ENDMDL
MODEL 9
REMARK VINA RESULT:      -8.1      2.638      3.732
REMARK  Name = 
REMARK  8 active torsions:
REMARK  status: ('A' for Active; 'I' for Inactive)
REMARK    1  A    between atoms: C_1  and  C_2
REMARK    2  A    between atoms: C_2  and  S_3
REMARK    3  A    between atoms: C_2  and  C_10
REMARK    4  A    between atoms: S_3  and  C_4
REMARK    5  A    between atoms: N_8  and  C_9
REMARK    6  A    between atoms: C_16  and  C_18
REMARK    7  A    between atoms: C_20  and  C_21
REMARK    8  A    between atoms: C_25  and  C_26
REMARK                            x       y       z     vdW  Elec       q    Type
REMARK                         _______ _______ _______ _____ _____    ______ ____
ROOT
ATOM      1  C   UNL     1      -0.103  11.201  21.075  0.00  0.00    +0.000 A 
ATOM      2  C   UNL     1      -0.383  11.813  19.850  0.00  0.00    +0.000 A 
ATOM      3  C   UNL     1       0.062  11.208  18.689  0.00  0.00    +0.000 A 
ATOM      4  N   UNL     1       0.750  10.051  18.664  0.00  0.00    +0.000 NA
ATOM      5  C   UNL     1       1.014   9.437  19.828  0.00  0.00    +0.000 A 
ATOM      6  N   UNL     1       1.732   8.229  19.835  0.00  0.00    +0.000 N 
ATOM      7  C   UNL     1       2.185   7.575  18.703  0.00  0.00    +0.000 C 
ATOM      8  O   UNL     1       2.010   7.899  17.531  0.00  0.00    +0.000 OA
ATOM      9  C   UNL     1       0.599   9.978  21.047  0.00  0.00    +0.000 A 
ATOM     10  H   UNL     1       1.957   7.798  20.722  0.00  0.00    +0.000 HD
ENDROOT
BRANCH   7  11
ATOM     11  C   UNL     1       2.975   6.331  18.977  0.00  0.00    +0.000 A 
ATOM     12  C   UNL     1       4.307   6.263  18.574  0.00  0.00    +0.000 A 
ATOM     13  C   UNL     1       5.061   5.118  18.844  0.00  0.00    +0.000 A 
ATOM     14  C   UNL     1       4.413   4.086  19.537  0.00  0.00    +0.000 A 
ATOM     15  C   UNL     1       3.070   4.211  19.919  0.00  0.00    +0.000 A 
ATOM     16  N   UNL     1       2.336   5.327  19.637  0.00  0.00    +0.000 NA
BRANCH  15  17
ATOM     17  C   UNL     1       2.405   3.076  20.689  0.00  0.00    +0.000 C 
ATOM     18  F   UNL     1       1.358   3.481  21.467  0.00  0.00    +0.000 F 
ATOM     19  F   UNL     1       1.897   2.112  19.870  0.00  0.00    +0.000 F 
ATOM     20  F   UNL     1       3.263   2.437  21.534  0.00  0.00    +0.000 F 
ENDBRANCH  15  17
BRANCH  13  21
ATOM     21  C   UNL     1       6.520   5.020  18.464  0.00  0.00    +0.000 C 
ATOM     22  C   UNL     1       7.256   6.231  17.940  0.00  0.00    +0.000 C 
ATOM     23  C   UNL     1       7.577   5.701  19.304  0.00  0.00    +0.000 C 
ENDBRANCH  13  21
ENDBRANCH   7  11
BRANCH   1  25
ATOM     24  C   UNL     1      -1.428  10.880  23.213  0.00  0.00    +0.000 C 
ATOM     25  C   UNL     1      -0.596  11.851  22.368  0.00  0.00    +0.000 C 
BRANCH  25  26
ATOM     26  S   UNL     1      -1.525  13.376  21.953  0.00  0.00    +0.000 S 
BRANCH  26  27
ATOM     27  C   UNL     1      -3.092  13.080  22.615  0.00  0.00    +0.000 A 
ATOM     28  N   UNL     1      -4.065  12.360  22.109  0.00  0.00    +0.000 NA
ATOM     29  N   UNL     1      -5.148  12.459  22.962  0.00  0.00    +0.000 NA
ATOM     30  C   UNL     1      -4.793  13.221  23.970  0.00  0.00    +0.000 A 
ATOM     31  N   UNL     1      -3.502  13.624  23.800  0.00  0.00    +0.000 N 
ATOM     32  C   UNL     1      -2.751  14.465  24.690  0.00  0.00    +0.000 C 
ENDBRANCH  26  27
ENDBRANCH  25  26
ENDBRANCH   1  25
TORSDOF 6
ENDMDL
