MODEL 1
REMARK VINA RESULT:      -7.6      0.000      0.000
REMARK  Name = 
REMARK  4 active torsions:
REMARK  status: ('A' for Active; 'I' for Inactive)
REMARK    1  A    between atoms: C_1  and  C_2
REMARK    2  A    between atoms: C_2  and  C_3
REMARK    3  A    between atoms: C_2  and  C_4
REMARK    4  A    between atoms: C_12  and  C_14
REMARK                            x       y       z     vdW  Elec       q    Type
REMARK                         _______ _______ _______ _____ _____    ______ ____
ROOT
ATOM      1  C   UNL     1       0.543  11.963  20.407  0.00  0.00    +0.000 A 
ATOM      2  N   UNL     1       0.771  11.113  21.401  0.00  0.00    +0.000 NA
ATOM      3  C   UNL     1       1.061   9.860  20.866  0.00  0.00    +0.000 A 
ATOM      4  C   UNL     1       1.021   9.852  19.484  0.00  0.00    +0.000 A 
ATOM      5  S   UNL     1       0.694  11.356  18.828  0.00  0.00    +0.000 S 
ATOM      6  C   UNL     1       1.250   8.769  18.516  0.00  0.00    +0.000 C 
ATOM      7  C   UNL     1       2.463   7.977  18.948  0.00  0.00    +0.000 C 
ATOM      8  N   UNL     1       2.069   6.923  19.927  0.00  0.00    +0.000 N 
ATOM      9  C   UNL     1       2.578   5.573  19.928  0.00  0.00    +0.000 C 
ATOM     10  O   UNL     1       2.209   4.753  20.766  0.00  0.00    +0.000 OA
ATOM     11  C   UNL     1       1.050   7.328  20.932  0.00  0.00    +0.000 C 
ATOM     12  C   UNL     1       1.394   8.638  21.697  0.00  0.00    +0.000 C 
ENDROOT
BRANCH   9  13
ATOM     13  C   UNL     1       3.817   5.361  19.153  0.00  0.00    +0.000 A 
ATOM     14  C   UNL     1       3.474   5.107  17.853  0.00  0.00    +0.000 A 
ATOM     15  C   UNL     1       4.643   4.829  17.402  0.00  0.00    +0.000 A 
ATOM     16  N   UNL     1       4.995   4.650  16.258  0.00  0.00    +0.000 NA
ATOM     17  C   UNL     1       5.278   4.475  15.067  0.00  0.00    +0.000 A 
ATOM     18  C   UNL     1       6.865   4.591  15.580  0.00  0.00    +0.000 A 
ATOM     19 CL   UNL     1       6.640   4.078  13.823  0.00  0.00    +0.000 Cl
ATOM     20  C   UNL     1       6.966   5.002  17.034  0.00  0.00    +0.000 A 
ATOM     21  N   UNL     1       5.736   5.161  18.052  0.00  0.00    +0.000 N 
ATOM     22  N   UNL     1       5.222   5.443  19.359  0.00  0.00    +0.000 NA
ENDBRANCH   9  13
BRANCH   1  24
ATOM     23  C   UNL     1       0.970  14.134  21.505  0.00  0.00    +0.000 C 
ATOM     24  C   UNL     1       0.153  13.400  20.439  0.00  0.00    +0.000 C 
ATOM     25  C   UNL     1       0.326  14.019  19.079  0.00  0.00    +0.000 C 
ENDBRANCH   1  24
TORSDOF 2
ENDMDL
MODEL 2
REMARK VINA RESULT:      -7.5      3.029      4.094
REMARK  Name = 
REMARK  4 active torsions:
REMARK  status: ('A' for Active; 'I' for Inactive)
REMARK    1  A    between atoms: C_1  and  C_2
REMARK    2  A    between atoms: C_2  and  C_3
REMARK    3  A    between atoms: C_2  and  C_4
REMARK    4  A    between atoms: C_12  and  C_14
REMARK                            x       y       z     vdW  Elec       q    Type
REMARK                         _______ _______ _______ _____ _____    ______ ____
ROOT
ATOM      1  C   UNL     1      -2.530  12.489  21.664  0.00  0.00    +0.000 A 
ATOM      2  N   UNL     1      -2.463  12.222  20.366  0.00  0.00    +0.000 NA
ATOM      3  C   UNL     1      -1.303  11.492  20.115  0.00  0.00    +0.000 A 
ATOM      4  C   UNL     1      -0.562  11.265  21.260  0.00  0.00    +0.000 A 
ATOM      5  S   UNL     1      -1.284  11.876  22.640  0.00  0.00    +0.000 S 
ATOM      6  C   UNL     1       0.711  10.558  21.463  0.00  0.00    +0.000 C 
ATOM      7  C   UNL     1       0.690   9.274  20.665  0.00  0.00    +0.000 C 
ATOM      8  N   UNL     1       1.138   9.530  19.265  0.00  0.00    +0.000 N 
ATOM      9  C   UNL     1       2.019   8.669  18.516  0.00  0.00    +0.000 C 
ATOM     10  O   UNL     1       2.348   8.941  17.363  0.00  0.00    +0.000 OA
ATOM     11  C   UNL     1       0.645  10.794  18.654  0.00  0.00    +0.000 C 
ATOM     12  C   UNL     1      -0.896  10.989  18.745  0.00  0.00    +0.000 C 
ENDROOT
BRANCH   9  13
ATOM     13  C   UNL     1       2.165   7.297  19.043  0.00  0.00    +0.000 A 
ATOM     14  C   UNL     1       2.629   6.496  18.036  0.00  0.00    +0.000 A 
ATOM     15  C   UNL     1       2.557   5.368  18.646  0.00  0.00    +0.000 A 
ATOM     16  N   UNL     1       2.968   4.286  18.295  0.00  0.00    +0.000 NA
ATOM     17  C   UNL     1       3.410   3.212  17.868  0.00  0.00    +0.000 A 
ATOM     18  C   UNL     1       3.161   2.658  19.425  0.00  0.00    +0.000 A 
ATOM     19 CL   UNL     1       3.629   1.367  18.195  0.00  0.00    +0.000 Cl
ATOM     20  C   UNL     1       2.766   3.774  20.370  0.00  0.00    +0.000 A 
ATOM     21  N   UNL     1       2.449   5.291  19.953  0.00  0.00    +0.000 N 
ATOM     22  N   UNL     1       2.053   6.625  20.292  0.00  0.00    +0.000 NA
ENDBRANCH   9  13
BRANCH   1  24
ATOM     23  C   UNL     1      -4.943  12.944  21.929  0.00  0.00    +0.000 C 
ATOM     24  C   UNL     1      -3.537  13.271  22.435  0.00  0.00    +0.000 C 
ATOM     25  C   UNL     1      -3.395  12.997  23.907  0.00  0.00    +0.000 C 
ENDBRANCH   1  24
TORSDOF 2
ENDMDL
MODEL 3
REMARK VINA RESULT:      -7.4      3.731      8.632
REMARK  Name = 
REMARK  4 active torsions:
REMARK  status: ('A' for Active; 'I' for Inactive)
REMARK    1  A    between atoms: C_1  and  C_2
REMARK    2  A    between atoms: C_2  and  C_3
REMARK    3  A    between atoms: C_2  and  C_4
REMARK    4  A    between atoms: C_12  and  C_14
REMARK                            x       y       z     vdW  Elec       q    Type
REMARK                         _______ _______ _______ _____ _____    ______ ____
ROOT
ATOM      1  C   UNL     1       6.037   4.192  14.515  0.00  0.00    +0.000 A 
ATOM      2  N   UNL     1       5.061   3.513  15.105  0.00  0.00    +0.000 NA
ATOM      3  C   UNL     1       4.703   4.167  16.282  0.00  0.00    +0.000 A 
ATOM      4  C   UNL     1       5.454   5.306  16.503  0.00  0.00    +0.000 A 
ATOM      5  S   UNL     1       6.545   5.623  15.275  0.00  0.00    +0.000 S 
ATOM      6  C   UNL     1       5.425   6.285  17.600  0.00  0.00    +0.000 C 
ATOM      7  C   UNL     1       3.985   6.610  17.928  0.00  0.00    +0.000 C 
ATOM      8  N   UNL     1       3.440   5.614  18.896  0.00  0.00    +0.000 N 
ATOM      9  C   UNL     1       2.598   5.941  20.021  0.00  0.00    +0.000 C 
ATOM     10  O   UNL     1       2.183   5.069  20.781  0.00  0.00    +0.000 OA
ATOM     11  C   UNL     1       3.850   4.203  18.666  0.00  0.00    +0.000 C 
ATOM     12  C   UNL     1       3.607   3.696  17.216  0.00  0.00    +0.000 C 
ENDROOT
BRANCH   9  13
ATOM     13  C   UNL     1       1.957   7.270  19.969  0.00  0.00    +0.000 A 
ATOM     14  C   UNL     1       1.422   7.539  21.199  0.00  0.00    +0.000 A 
ATOM     15  C   UNL     1       0.821   8.635  20.907  0.00  0.00    +0.000 A 
ATOM     16  N   UNL     1       0.272   9.421  21.644  0.00  0.00    +0.000 NA
ATOM     17  C   UNL     1      -0.274  10.177  22.458  0.00  0.00    +0.000 A 
ATOM     18  C   UNL     1      -0.314  11.270  21.194  0.00  0.00    +0.000 A 
ATOM     19 CL   UNL     1      -1.241  11.777  22.704  0.00  0.00    +0.000 Cl
ATOM     20  C   UNL     1       0.457  10.775  19.987  0.00  0.00    +0.000 A 
ATOM     21  N   UNL     1       1.113   9.320  19.824  0.00  0.00    +0.000 N 
ATOM     22  N   UNL     1       1.834   8.352  19.054  0.00  0.00    +0.000 NA
ENDBRANCH   9  13
BRANCH   1  24
ATOM     23  C   UNL     1       5.848   3.348  12.202  0.00  0.00    +0.000 C 
ATOM     24  C   UNL     1       6.798   3.898  13.269  0.00  0.00    +0.000 C 
ATOM     25  C   UNL     1       7.518   5.131  12.793  0.00  0.00    +0.000 C 
ENDBRANCH   1  24
TORSDOF 2
ENDMDL
MODEL 4
REMARK VINA RESULT:      -7.1      0.900      1.162
REMARK  Name = 
REMARK  4 active torsions:
REMARK  status: ('A' for Active; 'I' for Inactive)
REMARK    1  A    between atoms: C_1  and  C_2
REMARK    2  A    between atoms: C_2  and  C_3
REMARK    3  A    between atoms: C_2  and  C_4
REMARK    4  A    between atoms: C_12  and  C_14
REMARK                            x       y       z     vdW  Elec       q    Type
REMARK                         _______ _______ _______ _____ _____    ______ ____
ROOT
ATOM      1  C   UNL     1       0.836  11.383  20.833  0.00  0.00    +0.000 A 
ATOM      2  N   UNL     1       1.097  10.364  21.642  0.00  0.00    +0.000 NA
ATOM      3  C   UNL     1       1.364   9.233  20.872  0.00  0.00    +0.000 A 
ATOM      4  C   UNL     1       1.274   9.483  19.516  0.00  0.00    +0.000 A 
ATOM      5  S   UNL     1       0.928  11.082  19.164  0.00  0.00    +0.000 S 
ATOM      6  C   UNL     1       1.465   8.600  18.356  0.00  0.00    +0.000 C 
ATOM      7  C   UNL     1       2.691   7.747  18.588  0.00  0.00    +0.000 C 
ATOM      8  N   UNL     1       2.330   6.527  19.367  0.00  0.00    +0.000 N 
ATOM      9  C   UNL     1       2.835   5.203  19.097  0.00  0.00    +0.000 C 
ATOM     10  O   UNL     1       2.494   4.240  19.781  0.00  0.00    +0.000 OA
ATOM     11  C   UNL     1       1.349   6.734  20.466  0.00  0.00    +0.000 C 
ATOM     12  C   UNL     1       1.724   7.879  21.449  0.00  0.00    +0.000 C 
ENDROOT
BRANCH   9  13
ATOM     13  C   UNL     1       4.044   5.144  18.253  0.00  0.00    +0.000 A 
ATOM     14  C   UNL     1       3.679   4.714  17.007  0.00  0.00    +0.000 A 
ATOM     15  C   UNL     1       4.851   4.608  16.494  0.00  0.00    +0.000 A 
ATOM     16  N   UNL     1       5.163   4.389  15.345  0.00  0.00    +0.000 NA
ATOM     17  C   UNL     1       5.404   4.158  14.155  0.00  0.00    +0.000 A 
ATOM     18  C   UNL     1       6.969   4.601  14.537  0.00  0.00    +0.000 A 
ATOM     19 CL   UNL     1       6.741   3.896  12.850  0.00  0.00    +0.000 Cl
ATOM     20  C   UNL     1       7.077   5.157  15.942  0.00  0.00    +0.000 A 
ATOM     21  N   UNL     1       5.901   5.188  17.033  0.00  0.00    +0.000 N 
ATOM     22  N   UNL     1       5.420   5.494  18.347  0.00  0.00    +0.000 NA
ENDBRANCH   9  13
BRANCH   1  24
ATOM     23  C   UNL     1       0.030  13.507  19.862  0.00  0.00    +0.000 C 
ATOM     24  C   UNL     1       0.451  12.787  21.146  0.00  0.00    +0.000 C 
ATOM     25  C   UNL     1      -0.638  12.812  22.183  0.00  0.00    +0.000 C 
ENDBRANCH   1  24
TORSDOF 2
ENDMDL
MODEL 5
REMARK VINA RESULT:      -6.9      3.807      8.685
REMARK  Name = 
REMARK  4 active torsions:
REMARK  status: ('A' for Active; 'I' for Inactive)
REMARK    1  A    between atoms: C_1  and  C_2
REMARK    2  A    between atoms: C_2  and  C_3
REMARK    3  A    between atoms: C_2  and  C_4
REMARK    4  A    between atoms: C_12  and  C_14
REMARK                            x       y       z     vdW  Elec       q    Type
REMARK                         _______ _______ _______ _____ _____    ______ ____
ROOT
ATOM      1  C   UNL     1       5.341   4.530  15.438  0.00  0.00    +0.000 A 
ATOM      2  N   UNL     1       4.435   4.009  16.256  0.00  0.00    +0.000 NA
ATOM      3  C   UNL     1       4.018   4.992  17.151  0.00  0.00    +0.000 A 
ATOM      4  C   UNL     1       4.656   6.201  16.945  0.00  0.00    +0.000 A 
ATOM      5  S   UNL     1       5.710   6.174  15.646  0.00  0.00    +0.000 S 
ATOM      6  C   UNL     1       4.535   7.489  17.644  0.00  0.00    +0.000 C 
ATOM      7  C   UNL     1       3.072   7.776  17.890  0.00  0.00    +0.000 C 
ATOM      8  N   UNL     1       2.625   7.128  19.158  0.00  0.00    +0.000 N 
ATOM      9  C   UNL     1       1.758   7.743  20.132  0.00  0.00    +0.000 C 
ATOM     10  O   UNL     1       1.429   7.150  21.157  0.00  0.00    +0.000 OA
ATOM     11  C   UNL     1       3.169   5.766  19.408  0.00  0.00    +0.000 C 
ATOM     12  C   UNL     1       2.974   4.773  18.227  0.00  0.00    +0.000 C 
ENDROOT
BRANCH   9  13
ATOM     13  C   UNL     1       0.993   8.911  19.653  0.00  0.00    +0.000 A 
ATOM     14  C   UNL     1       0.359   9.480  20.723  0.00  0.00    +0.000 A 
ATOM     15  C   UNL     1      -0.329  10.359  20.089  0.00  0.00    +0.000 A 
ATOM     16  N   UNL     1      -0.997  11.266  20.530  0.00  0.00    +0.000 NA
ATOM     17  C   UNL     1      -1.664  12.167  21.053  0.00  0.00    +0.000 A 
ATOM     18  C   UNL     1      -1.735  12.809  19.512  0.00  0.00    +0.000 A 
ATOM     19 CL   UNL     1      -2.799  13.646  20.764  0.00  0.00    +0.000 Cl
ATOM     20  C   UNL     1      -0.847  12.060  18.540  0.00  0.00    +0.000 A 
ATOM     21  N   UNL     1      -0.041  10.709  18.855  0.00  0.00    +0.000 N 
ATOM     22  N   UNL     1       0.819   9.640  18.443  0.00  0.00    +0.000 NA
ENDBRANCH   9  13
BRANCH   1  24
ATOM     23  C   UNL     1       5.215   3.646  13.134  0.00  0.00    +0.000 C 
ATOM     24  C   UNL     1       6.124   3.897  14.340  0.00  0.00    +0.000 C 
ATOM     25  C   UNL     1       7.307   4.754  13.979  0.00  0.00    +0.000 C 
ENDBRANCH   1  24
TORSDOF 2
ENDMDL
MODEL 6
REMARK VINA RESULT:      -6.8      5.141      9.251
REMARK  Name = 
REMARK  4 active torsions:
REMARK  status: ('A' for Active; 'I' for Inactive)
REMARK    1  A    between atoms: C_1  and  C_2
REMARK    2  A    between atoms: C_2  and  C_3
REMARK    3  A    between atoms: C_2  and  C_4
REMARK    4  A    between atoms: C_12  and  C_14
REMARK                            x       y       z     vdW  Elec       q    Type
REMARK                         _______ _______ _______ _____ _____    ______ ____
ROOT
ATOM      1  C   UNL     1       3.475   5.980  18.801  0.00  0.00    +0.000 A 
ATOM      2  N   UNL     1       2.847   6.267  19.935  0.00  0.00    +0.000 NA
ATOM      3  C   UNL     1       2.179   7.481  19.784  0.00  0.00    +0.000 A 
ATOM      4  C   UNL     1       2.362   8.034  18.531  0.00  0.00    +0.000 A 
ATOM      5  S   UNL     1       3.284   7.074  17.517  0.00  0.00    +0.000 S 
ATOM      6  C   UNL     1       1.858   9.285  17.943  0.00  0.00    +0.000 C 
ATOM      7  C   UNL     1       0.400   9.445  18.310  0.00  0.00    +0.000 C 
ATOM      8  N   UNL     1       0.274  10.103  19.643  0.00  0.00    +0.000 N 
ATOM      9  C   UNL     1      -0.689  11.128  19.963  0.00  0.00    +0.000 C 
ATOM     10  O   UNL     1      -0.738  11.629  21.085  0.00  0.00    +0.000 OA
ATOM     11  C   UNL     1       1.256   9.666  20.671  0.00  0.00    +0.000 C 
ATOM     12  C   UNL     1       1.335   8.125  20.865  0.00  0.00    +0.000 C 
ENDROOT
BRANCH   9  13
ATOM     13  C   UNL     1      -1.829  11.241  19.031  0.00  0.00    +0.000 A 
ATOM     14  C   UNL     1      -2.851  11.881  19.677  0.00  0.00    +0.000 A 
ATOM     15  C   UNL     1      -3.752  11.758  18.770  0.00  0.00    +0.000 A 
ATOM     16  N   UNL     1      -4.853  12.255  18.719  0.00  0.00    +0.000 NA
ATOM     17  C   UNL     1      -5.966  12.795  18.737  0.00  0.00    +0.000 A 
ATOM     18  C   UNL     1      -6.056  12.332  17.134  0.00  0.00    +0.000 A 
ATOM     19 CL   UNL     1      -7.610  13.027  17.841  0.00  0.00    +0.000 Cl
ATOM     20  C   UNL     1      -4.746  11.759  16.632  0.00  0.00    +0.000 A 
ATOM     21  N   UNL     1      -3.450  11.456  17.527  0.00  0.00    +0.000 N 
ATOM     22  N   UNL     1      -2.111  10.966  17.664  0.00  0.00    +0.000 NA
ENDBRANCH   9  13
BRANCH   1  24
ATOM     23  C   UNL     1       4.454   4.694  16.933  0.00  0.00    +0.000 C 
ATOM     24  C   UNL     1       4.357   4.831  18.455  0.00  0.00    +0.000 C 
ATOM     25  C   UNL     1       5.712   5.003  19.087  0.00  0.00    +0.000 C 
ENDBRANCH   1  24
TORSDOF 2
ENDMDL
MODEL 7
REMARK VINA RESULT:      -6.7      3.325      4.648
REMARK  Name = 
REMARK  4 active torsions:
REMARK  status: ('A' for Active; 'I' for Inactive)
REMARK    1  A    between atoms: C_1  and  C_2
REMARK    2  A    between atoms: C_2  and  C_3
REMARK    3  A    between atoms: C_2  and  C_4
REMARK    4  A    between atoms: C_12  and  C_14
REMARK                            x       y       z     vdW  Elec       q    Type
REMARK                         _______ _______ _______ _____ _____    ______ ____
ROOT
ATOM      1  C   UNL     1      -3.613  12.940  20.952  0.00  0.00    +0.000 A 
ATOM      2  N   UNL     1      -3.323  12.707  19.678  0.00  0.00    +0.000 NA
ATOM      3  C   UNL     1      -2.073  12.096  19.605  0.00  0.00    +0.000 A 
ATOM      4  C   UNL     1      -1.496  11.919  20.848  0.00  0.00    +0.000 A 
ATOM      5  S   UNL     1      -2.475  12.429  22.105  0.00  0.00    +0.000 S 
ATOM      6  C   UNL     1      -0.206  11.332  21.241  0.00  0.00    +0.000 C 
ATOM      7  C   UNL     1       0.020  10.069  20.443  0.00  0.00    +0.000 C 
ATOM      8  N   UNL     1       0.648  10.394  19.129  0.00  0.00    +0.000 N 
ATOM      9  C   UNL     1       1.712   9.636  18.519  0.00  0.00    +0.000 C 
ATOM     10  O   UNL     1       2.185   9.961  17.432  0.00  0.00    +0.000 OA
ATOM     11  C   UNL     1       0.133  11.617  18.456  0.00  0.00    +0.000 C 
ATOM     12  C   UNL     1      -1.415  11.662  18.311  0.00  0.00    +0.000 C 
ENDROOT
BRANCH   9  13
ATOM     13  C   UNL     1       1.909   8.274  19.055  0.00  0.00    +0.000 A 
ATOM     14  C   UNL     1       2.333   7.467  18.035  0.00  0.00    +0.000 A 
ATOM     15  C   UNL     1       2.313   6.347  18.662  0.00  0.00    +0.000 A 
ATOM     16  N   UNL     1       2.723   5.266  18.304  0.00  0.00    +0.000 NA
ATOM     17  C   UNL     1       3.160   4.195  17.868  0.00  0.00    +0.000 A 
ATOM     18  C   UNL     1       3.003   3.658  19.443  0.00  0.00    +0.000 A 
ATOM     19 CL   UNL     1       3.428   2.358  18.207  0.00  0.00    +0.000 Cl
ATOM     20  C   UNL     1       2.640   4.780  20.394  0.00  0.00    +0.000 A 
ATOM     21  N   UNL     1       2.276   6.285  19.975  0.00  0.00    +0.000 N 
ATOM     22  N   UNL     1       1.876   7.618  20.317  0.00  0.00    +0.000 NA
ENDBRANCH   9  13
BRANCH   1  24
ATOM     23  C   UNL     1      -5.445  14.546  20.544  0.00  0.00    +0.000 C 
ATOM     24  C   UNL     1      -4.796  13.607  21.564  0.00  0.00    +0.000 C 
ATOM     25  C   UNL     1      -5.769  12.579  22.076  0.00  0.00    +0.000 C 
ENDBRANCH   1  24
TORSDOF 2
ENDMDL
MODEL 8
REMARK VINA RESULT:      -6.6      5.265      9.892
REMARK  Name = 
REMARK  4 active torsions:
REMARK  status: ('A' for Active; 'I' for Inactive)
REMARK    1  A    between atoms: C_1  and  C_2
REMARK    2  A    between atoms: C_2  and  C_3
REMARK    3  A    between atoms: C_2  and  C_4
REMARK    4  A    between atoms: C_12  and  C_14
REMARK                            x       y       z     vdW  Elec       q    Type
REMARK                         _______ _______ _______ _____ _____    ______ ____
ROOT
ATOM      1  C   UNL     1       2.475   6.571  18.980  0.00  0.00    +0.000 A 
ATOM      2  N   UNL     1       2.128   6.710  20.254  0.00  0.00    +0.000 NA
ATOM      3  C   UNL     1       1.603   7.987  20.441  0.00  0.00    +0.000 A 
ATOM      4  C   UNL     1       1.602   8.735  19.279  0.00  0.00    +0.000 A 
ATOM      5  S   UNL     1       2.173   7.889  17.953  0.00  0.00    +0.000 S 
ATOM      6  C   UNL     1       1.154  10.110  19.014  0.00  0.00    +0.000 C 
ATOM      7  C   UNL     1      -0.168  10.337  19.711  0.00  0.00    +0.000 C 
ATOM      8  N   UNL     1       0.059  10.757  21.124  0.00  0.00    +0.000 N 
ATOM      9  C   UNL     1      -0.683  11.793  21.801  0.00  0.00    +0.000 C 
ATOM     10  O   UNL     1      -0.443  12.090  22.969  0.00  0.00    +0.000 OA
ATOM     11  C   UNL     1       1.163  10.056  21.834  0.00  0.00    +0.000 C 
ATOM     12  C   UNL     1       1.081   8.504  21.766  0.00  0.00    +0.000 C 
ENDROOT
BRANCH   9  13
ATOM     13  C   UNL     1      -1.961  12.174  21.168  0.00  0.00    +0.000 A 
ATOM     14  C   UNL     1      -2.887  12.374  22.155  0.00  0.00    +0.000 A 
ATOM     15  C   UNL     1      -3.918  12.556  21.412  0.00  0.00    +0.000 A 
ATOM     16  N   UNL     1      -5.030  12.914  21.726  0.00  0.00    +0.000 NA
ATOM     17  C   UNL     1      -6.142  13.280  22.123  0.00  0.00    +0.000 A 
ATOM     18  C   UNL     1      -6.475  13.532  20.505  0.00  0.00    +0.000 A 
ATOM     19 CL   UNL     1      -7.917  13.703  21.641  0.00  0.00    +0.000 Cl
ATOM     20  C   UNL     1      -5.245  13.361  19.637  0.00  0.00    +0.000 A 
ATOM     21  N   UNL     1      -3.811  12.840  20.133  0.00  0.00    +0.000 N 
ATOM     22  N   UNL     1      -2.451  12.475  19.867  0.00  0.00    +0.000 NA
ENDBRANCH   9  13
BRANCH   1  24
ATOM     23  C   UNL     1       2.042   4.532  17.656  0.00  0.00    +0.000 C 
ATOM     24  C   UNL     1       3.117   5.426  18.277  0.00  0.00    +0.000 C 
ATOM     25  C   UNL     1       4.093   5.925  17.246  0.00  0.00    +0.000 C 
ENDBRANCH   1  24
TORSDOF 2
ENDMDL
MODEL 9
REMARK VINA RESULT:      -6.5      1.470      1.652
REMARK  Name = 
REMARK  4 active torsions:
REMARK  status: ('A' for Active; 'I' for Inactive)
REMARK    1  A    between atoms: C_1  and  C_2
REMARK    2  A    between atoms: C_2  and  C_3
REMARK    3  A    between atoms: C_2  and  C_4
REMARK    4  A    between atoms: C_12  and  C_14
REMARK                            x       y       z     vdW  Elec       q    Type
REMARK                         _______ _______ _______ _____ _____    ______ ____
ROOT
ATOM      1  C   UNL     1      -0.460  12.803  21.189  0.00  0.00    +0.000 A 
ATOM      2  N   UNL     1       0.199  11.998  22.013  0.00  0.00    +0.000 NA
ATOM      3  C   UNL     1       0.466  10.799  21.353  0.00  0.00    +0.000 A 
ATOM      4  C   UNL     1      -0.027  10.784  20.062  0.00  0.00    +0.000 A 
ATOM      5  S   UNL     1      -0.757  12.224  19.621  0.00  0.00    +0.000 S 
ATOM      6  C   UNL     1       0.018   9.745  19.023  0.00  0.00    +0.000 C 
ATOM      7  C   UNL     1       1.402   9.140  18.996  0.00  0.00    +0.000 C 
ATOM      8  N   UNL     1       1.504   8.040  20.000  0.00  0.00    +0.000 N 
ATOM      9  C   UNL     1       2.166   6.779  19.770  0.00  0.00    +0.000 C 
ATOM     10  O   UNL     1       2.212   5.915  20.643  0.00  0.00    +0.000 OA
ATOM     11  C   UNL     1       0.828   8.294  21.300  0.00  0.00    +0.000 C 
ATOM     12  C   UNL     1       1.221   9.640  21.972  0.00  0.00    +0.000 C 
ENDROOT
BRANCH   9  13
ATOM     13  C   UNL     1       3.096   6.750  18.624  0.00  0.00    +0.000 A 
ATOM     14  C   UNL     1       3.266   5.448  18.239  0.00  0.00    +0.000 A 
ATOM     15  C   UNL     1       4.178   5.631  17.355  0.00  0.00    +0.000 A 
ATOM     16  N   UNL     1       4.643   4.840  16.566  0.00  0.00    +0.000 NA
ATOM     17  C   UNL     1       5.073   3.976  15.793  0.00  0.00    +0.000 A 
ATOM     18  C   UNL     1       5.776   5.258  14.984  0.00  0.00    +0.000 A 
ATOM     19 CL   UNL     1       6.276   3.585  14.393  0.00  0.00    +0.000 Cl
ATOM     20  C   UNL     1       5.328   6.596  15.536  0.00  0.00    +0.000 A 
ATOM     21  N   UNL     1       4.420   6.816  16.841  0.00  0.00    +0.000 N 
ATOM     22  N   UNL     1       3.763   7.679  17.777  0.00  0.00    +0.000 NA
ENDBRANCH   9  13
BRANCH   1  24
ATOM     23  C   UNL     1      -1.230  14.396  22.912  0.00  0.00    +0.000 C 
ATOM     24  C   UNL     1      -1.013  14.168  21.414  0.00  0.00    +0.000 C 
ATOM     25  C   UNL     1      -0.103  15.206  20.817  0.00  0.00    +0.000 C 
ENDBRANCH   1  24
TORSDOF 2
ENDMDL
