MODEL 1
REMARK VINA RESULT:      -7.1      0.000      0.000
REMARK  Name = 
REMARK  5 active torsions:
REMARK  status: ('A' for Active; 'I' for Inactive)
REMARK    1  A    between atoms: C_1  and  C_2
REMARK    2  A    between atoms: N_5  and  S_6
REMARK    3  A    between atoms: S_6  and  C_9
REMARK    4  A    between atoms: C_16  and  C_17
REMARK    5  A    between atoms: N_19  and  C_20
REMARK                            x       y       z     vdW  Elec       q    Type
REMARK                         _______ _______ _______ _____ _____    ______ ____
ROOT
ATOM      1  C   UNL     1       4.384   5.730  19.616  0.00  0.00    +0.000 C 
ATOM      2  C   UNL     1       4.933   5.035  18.418  0.00  0.00    +0.000 A 
ATOM      3  S   UNL     1       6.480   5.465  17.805  0.00  0.00    +0.000 S 
ATOM      4  C   UNL     1       6.256   4.387  16.511  0.00  0.00    +0.000 A 
ATOM      5  N   UNL     1       7.233   4.171  15.518  0.00  0.00    +0.000 N 
ATOM      6  N   UNL     1       5.173   3.654  16.538  0.00  0.00    +0.000 NA
ATOM      7  C   UNL     1       4.406   3.993  17.661  0.00  0.00    +0.000 A 
ATOM      8  H   UNL     1       8.184   4.371  15.826  0.00  0.00    +0.000 HD
ENDROOT
BRANCH   7   9
ATOM      9  C   UNL     1       3.168   3.258  17.963  0.00  0.00    +0.000 C 
ATOM     10  O   UNL     1       2.366   2.908  17.102  0.00  0.00    +0.000 OA
ATOM     11  N   UNL     1       2.998   3.032  19.317  0.00  0.00    +0.000 N 
ATOM     12  H   UNL     1       3.727   3.395  19.926  0.00  0.00    +0.000 HD
BRANCH  11  13
ATOM     13  C   UNL     1       1.852   2.385  19.869  0.00  0.00    +0.000 C 
ATOM     14  C   UNL     1       1.450   2.588  21.305  0.00  0.00    +0.000 C 
ATOM     15  C   UNL     1       0.616   3.174  20.204  0.00  0.00    +0.000 C 
ENDBRANCH  11  13
ENDBRANCH   7   9
BRANCH   5  16
ATOM     16  S   UNL     1       6.968   5.135  14.155  0.00  0.00    +0.000 S 
ATOM     17  O   UNL     1       5.907   6.090  14.406  0.00  0.00    +0.000 OA
ATOM     18  O   UNL     1       8.279   5.592  13.747  0.00  0.00    +0.000 OA
BRANCH  16  19
ATOM     19  C   UNL     1       6.405   3.957  12.962  0.00  0.00    +0.000 A 
ATOM     20  C   UNL     1       5.032   3.793  12.759  0.00  0.00    +0.000 A 
ATOM     21  C   UNL     1       4.585   2.859  11.828  0.00  0.00    +0.000 A 
ATOM     22  C   UNL     1       5.508   2.109  11.097  0.00  0.00    +0.000 A 
ATOM     23  C   UNL     1       6.879   2.299  11.282  0.00  0.00    +0.000 A 
ATOM     24  C   UNL     1       7.334   3.232  12.212  0.00  0.00    +0.000 A 
ENDBRANCH  16  19
ENDBRANCH   5  16
TORSDOF 4
ENDMDL
MODEL 2
REMARK VINA RESULT:      -7.0      0.129      1.043
REMARK  Name = 
REMARK  5 active torsions:
REMARK  status: ('A' for Active; 'I' for Inactive)
REMARK    1  A    between atoms: C_1  and  C_2
REMARK    2  A    between atoms: N_5  and  S_6
REMARK    3  A    between atoms: S_6  and  C_9
REMARK    4  A    between atoms: C_16  and  C_17
REMARK    5  A    between atoms: N_19  and  C_20
REMARK                            x       y       z     vdW  Elec       q    Type
REMARK                         _______ _______ _______ _____ _____    ______ ____
ROOT
ATOM      1  C   UNL     1       4.319   5.877  19.517  0.00  0.00    +0.000 C 
ATOM      2  C   UNL     1       4.879   5.156  18.339  0.00  0.00    +0.000 A 
ATOM      3  S   UNL     1       6.431   5.574  17.729  0.00  0.00    +0.000 S 
ATOM      4  C   UNL     1       6.220   4.465  16.459  0.00  0.00    +0.000 A 
ATOM      5  N   UNL     1       7.206   4.229  15.479  0.00  0.00    +0.000 N 
ATOM      6  N   UNL     1       5.138   3.730  16.494  0.00  0.00    +0.000 NA
ATOM      7  C   UNL     1       4.362   4.095  17.604  0.00  0.00    +0.000 A 
ATOM      8  H   UNL     1       8.153   4.437  15.790  0.00  0.00    +0.000 HD
ENDROOT
BRANCH   7   9
ATOM      9  C   UNL     1       3.122   3.363  17.913  0.00  0.00    +0.000 C 
ATOM     10  O   UNL     1       2.250   3.135  17.080  0.00  0.00    +0.000 OA
ATOM     11  N   UNL     1       3.041   2.990  19.242  0.00  0.00    +0.000 N 
ATOM     12  H   UNL     1       3.823   3.262  19.832  0.00  0.00    +0.000 HD
BRANCH  11  13
ATOM     13  C   UNL     1       1.914   2.316  19.802  0.00  0.00    +0.000 C 
ATOM     14  C   UNL     1       1.425   2.625  21.191  0.00  0.00    +0.000 C 
ATOM     15  C   UNL     1       0.612   3.041  20.001  0.00  0.00    +0.000 C 
ENDBRANCH  11  13
ENDBRANCH   7   9
BRANCH   5  16
ATOM     16  S   UNL     1       6.949   5.159  14.092  0.00  0.00    +0.000 S 
ATOM     17  O   UNL     1       5.873   6.106  14.306  0.00  0.00    +0.000 OA
ATOM     18  O   UNL     1       8.261   5.624  13.693  0.00  0.00    +0.000 OA
BRANCH  16  19
ATOM     19  C   UNL     1       6.419   3.948  12.917  0.00  0.00    +0.000 A 
ATOM     20  C   UNL     1       7.378   3.187  12.240  0.00  0.00    +0.000 A 
ATOM     21  C   UNL     1       6.964   2.240  11.307  0.00  0.00    +0.000 A 
ATOM     22  C   UNL     1       5.602   2.046  11.069  0.00  0.00    +0.000 A 
ATOM     23  C   UNL     1       4.649   2.787  11.771  0.00  0.00    +0.000 A 
ATOM     24  C   UNL     1       5.055   3.738  12.706  0.00  0.00    +0.000 A 
ENDBRANCH  16  19
ENDBRANCH   5  16
TORSDOF 4
ENDMDL
MODEL 3
REMARK VINA RESULT:      -7.0      1.806      7.338
REMARK  Name = 
REMARK  5 active torsions:
REMARK  status: ('A' for Active; 'I' for Inactive)
REMARK    1  A    between atoms: C_1  and  C_2
REMARK    2  A    between atoms: N_5  and  S_6
REMARK    3  A    between atoms: S_6  and  C_9
REMARK    4  A    between atoms: C_16  and  C_17
REMARK    5  A    between atoms: N_19  and  C_20
REMARK                            x       y       z     vdW  Elec       q    Type
REMARK                         _______ _______ _______ _____ _____    ______ ____
ROOT
ATOM      1  C   UNL     1       8.046   4.410  17.694  0.00  0.00    +0.000 C 
ATOM      2  C   UNL     1       6.644   4.706  17.285  0.00  0.00    +0.000 A 
ATOM      3  S   UNL     1       5.444   5.007  18.478  0.00  0.00    +0.000 S 
ATOM      4  C   UNL     1       4.267   5.104  17.256  0.00  0.00    +0.000 A 
ATOM      5  N   UNL     1       2.911   5.385  17.520  0.00  0.00    +0.000 N 
ATOM      6  N   UNL     1       4.695   5.031  16.022  0.00  0.00    +0.000 NA
ATOM      7  C   UNL     1       6.083   4.834  16.019  0.00  0.00    +0.000 A 
ATOM      8  H   UNL     1       2.760   5.906  18.383  0.00  0.00    +0.000 HD
ENDROOT
BRANCH   7   9
ATOM      9  C   UNL     1       6.823   4.792  14.747  0.00  0.00    +0.000 C 
ATOM     10  O   UNL     1       7.816   5.478  14.523  0.00  0.00    +0.000 OA
ATOM     11  N   UNL     1       6.261   3.920  13.832  0.00  0.00    +0.000 N 
ATOM     12  H   UNL     1       5.424   3.429  14.138  0.00  0.00    +0.000 HD
BRANCH  11  13
ATOM     13  C   UNL     1       6.762   3.739  12.508  0.00  0.00    +0.000 C 
ATOM     14  C   UNL     1       6.725   2.395  11.832  0.00  0.00    +0.000 C 
ATOM     15  C   UNL     1       5.820   3.495  11.362  0.00  0.00    +0.000 C 
ENDBRANCH  11  13
ENDBRANCH   7   9
BRANCH   5  16
ATOM     16  S   UNL     1       1.990   3.974  17.654  0.00  0.00    +0.000 S 
ATOM     17  O   UNL     1       0.625   4.217  17.232  0.00  0.00    +0.000 OA
ATOM     18  O   UNL     1       2.777   2.941  17.017  0.00  0.00    +0.000 OA
BRANCH  16  19
ATOM     19  C   UNL     1       2.005   3.677  19.397  0.00  0.00    +0.000 A 
ATOM     20  C   UNL     1       1.802   2.376  19.869  0.00  0.00    +0.000 A 
ATOM     21  C   UNL     1       1.803   2.140  21.241  0.00  0.00    +0.000 A 
ATOM     22  C   UNL     1       2.023   3.194  22.129  0.00  0.00    +0.000 A 
ATOM     23  C   UNL     1       2.256   4.486  21.650  0.00  0.00    +0.000 A 
ATOM     24  C   UNL     1       2.256   4.730  20.278  0.00  0.00    +0.000 A 
ENDBRANCH  16  19
ENDBRANCH   5  16
TORSDOF 4
ENDMDL
MODEL 4
REMARK VINA RESULT:      -6.9      4.391      5.945
REMARK  Name = 
REMARK  5 active torsions:
REMARK  status: ('A' for Active; 'I' for Inactive)
REMARK    1  A    between atoms: C_1  and  C_2
REMARK    2  A    between atoms: N_5  and  S_6
REMARK    3  A    between atoms: S_6  and  C_9
REMARK    4  A    between atoms: C_16  and  C_17
REMARK    5  A    between atoms: N_19  and  C_20
REMARK                            x       y       z     vdW  Elec       q    Type
REMARK                         _______ _______ _______ _____ _____    ______ ____
ROOT
ATOM      1  C   UNL     1       1.070   8.319  21.474  0.00  0.00    +0.000 C 
ATOM      2  C   UNL     1       1.686   7.488  20.401  0.00  0.00    +0.000 A 
ATOM      3  S   UNL     1       2.041   5.831  20.690  0.00  0.00    +0.000 S 
ATOM      4  C   UNL     1       2.758   5.727  19.153  0.00  0.00    +0.000 A 
ATOM      5  N   UNL     1       3.301   4.530  18.642  0.00  0.00    +0.000 N 
ATOM      6  N   UNL     1       2.674   6.787  18.392  0.00  0.00    +0.000 NA
ATOM      7  C   UNL     1       2.021   7.813  19.091  0.00  0.00    +0.000 A 
ATOM      8  H   UNL     1       2.894   3.688  19.048  0.00  0.00    +0.000 HD
ENDROOT
BRANCH   7   9
ATOM      9  C   UNL     1       1.733   9.095  18.427  0.00  0.00    +0.000 C 
ATOM     10  O   UNL     1       2.429   9.559  17.529  0.00  0.00    +0.000 OA
ATOM     11  N   UNL     1       0.614   9.724  18.944  0.00  0.00    +0.000 N 
ATOM     12  H   UNL     1       0.141   9.241  19.704  0.00  0.00    +0.000 HD
BRANCH  11  13
ATOM     13  C   UNL     1       0.158  11.003  18.505  0.00  0.00    +0.000 C 
ATOM     14  C   UNL     1      -1.301  11.370  18.539  0.00  0.00    +0.000 C 
ATOM     15  C   UNL     1      -0.344  12.016  19.497  0.00  0.00    +0.000 C 
ENDBRANCH  11  13
ENDBRANCH   7   9
BRANCH   5  16
ATOM     16  S   UNL     1       4.966   4.428  18.915  0.00  0.00    +0.000 S 
ATOM     17  O   UNL     1       5.434   5.591  19.641  0.00  0.00    +0.000 OA
ATOM     18  O   UNL     1       5.187   3.099  19.445  0.00  0.00    +0.000 OA
BRANCH  16  19
ATOM     19  C   UNL     1       5.621   4.477  17.273  0.00  0.00    +0.000 A 
ATOM     20  C   UNL     1       6.980   4.750  17.089  0.00  0.00    +0.000 A 
ATOM     21  C   UNL     1       7.497   4.800  15.797  0.00  0.00    +0.000 A 
ATOM     22  C   UNL     1       6.664   4.560  14.704  0.00  0.00    +0.000 A 
ATOM     23  C   UNL     1       5.314   4.257  14.896  0.00  0.00    +0.000 A 
ATOM     24  C   UNL     1       4.788   4.206  16.186  0.00  0.00    +0.000 A 
ENDBRANCH  16  19
ENDBRANCH   5  16
TORSDOF 4
ENDMDL
MODEL 5
REMARK VINA RESULT:      -6.8      4.405      5.927
REMARK  Name = 
REMARK  5 active torsions:
REMARK  status: ('A' for Active; 'I' for Inactive)
REMARK    1  A    between atoms: C_1  and  C_2
REMARK    2  A    between atoms: N_5  and  S_6
REMARK    3  A    between atoms: S_6  and  C_9
REMARK    4  A    between atoms: C_16  and  C_17
REMARK    5  A    between atoms: N_19  and  C_20
REMARK                            x       y       z     vdW  Elec       q    Type
REMARK                         _______ _______ _______ _____ _____    ______ ____
ROOT
ATOM      1  C   UNL     1       1.037   8.339  21.498  0.00  0.00    +0.000 C 
ATOM      2  C   UNL     1       1.655   7.509  20.426  0.00  0.00    +0.000 A 
ATOM      3  S   UNL     1       1.992   5.847  20.708  0.00  0.00    +0.000 S 
ATOM      4  C   UNL     1       2.722   5.746  19.177  0.00  0.00    +0.000 A 
ATOM      5  N   UNL     1       3.259   4.547  18.663  0.00  0.00    +0.000 N 
ATOM      6  N   UNL     1       2.655   6.812  18.422  0.00  0.00    +0.000 NA
ATOM      7  C   UNL     1       2.005   7.839  19.121  0.00  0.00    +0.000 A 
ATOM      8  H   UNL     1       2.841   3.706  19.060  0.00  0.00    +0.000 HD
ENDROOT
BRANCH   7   9
ATOM      9  C   UNL     1       1.734   9.127  18.463  0.00  0.00    +0.000 C 
ATOM     10  O   UNL     1       2.416   9.569  17.543  0.00  0.00    +0.000 OA
ATOM     11  N   UNL     1       0.651   9.790  19.012  0.00  0.00    +0.000 N 
ATOM     12  H   UNL     1       0.187   9.323  19.787  0.00  0.00    +0.000 HD
BRANCH  11  13
ATOM     13  C   UNL     1       0.219  11.081  18.583  0.00  0.00    +0.000 C 
ATOM     14  C   UNL     1      -1.222  11.501  18.687  0.00  0.00    +0.000 C 
ATOM     15  C   UNL     1      -0.196  12.120  19.588  0.00  0.00    +0.000 C 
ENDBRANCH  11  13
ENDBRANCH   7   9
BRANCH   5  16
ATOM     16  S   UNL     1       4.920   4.428  18.951  0.00  0.00    +0.000 S 
ATOM     17  O   UNL     1       5.391   5.578  19.696  0.00  0.00    +0.000 OA
ATOM     18  O   UNL     1       5.126   3.092  19.465  0.00  0.00    +0.000 OA
BRANCH  16  19
ATOM     19  C   UNL     1       5.592   4.494  17.316  0.00  0.00    +0.000 A 
ATOM     20  C   UNL     1       4.751   4.267  16.222  0.00  0.00    +0.000 A 
ATOM     21  C   UNL     1       5.279   4.308  14.934  0.00  0.00    +0.000 A 
ATOM     22  C   UNL     1       6.632   4.590  14.746  0.00  0.00    +0.000 A 
ATOM     23  C   UNL     1       7.461   4.846  15.841  0.00  0.00    +0.000 A 
ATOM     24  C   UNL     1       6.941   4.807  17.133  0.00  0.00    +0.000 A 
ENDBRANCH  16  19
ENDBRANCH   5  16
TORSDOF 4
ENDMDL
MODEL 6
REMARK VINA RESULT:      -6.8      1.820      7.348
REMARK  Name = 
REMARK  5 active torsions:
REMARK  status: ('A' for Active; 'I' for Inactive)
REMARK    1  A    between atoms: C_1  and  C_2
REMARK    2  A    between atoms: N_5  and  S_6
REMARK    3  A    between atoms: S_6  and  C_9
REMARK    4  A    between atoms: C_16  and  C_17
REMARK    5  A    between atoms: N_19  and  C_20
REMARK                            x       y       z     vdW  Elec       q    Type
REMARK                         _______ _______ _______ _____ _____    ______ ____
ROOT
ATOM      1  C   UNL     1       8.030   4.513  17.981  0.00  0.00    +0.000 C 
ATOM      2  C   UNL     1       6.647   4.781  17.496  0.00  0.00    +0.000 A 
ATOM      3  S   UNL     1       5.384   5.091  18.621  0.00  0.00    +0.000 S 
ATOM      4  C   UNL     1       4.270   5.145  17.339  0.00  0.00    +0.000 A 
ATOM      5  N   UNL     1       2.898   5.413  17.529  0.00  0.00    +0.000 N 
ATOM      6  N   UNL     1       4.760   5.051  16.130  0.00  0.00    +0.000 NA
ATOM      7  C   UNL     1       6.149   4.874  16.201  0.00  0.00    +0.000 A 
ATOM      8  H   UNL     1       2.697   5.950  18.371  0.00  0.00    +0.000 HD
ENDROOT
BRANCH   7   9
ATOM      9  C   UNL     1       6.952   4.815  14.969  0.00  0.00    +0.000 C 
ATOM     10  O   UNL     1       7.868   5.595  14.724  0.00  0.00    +0.000 OA
ATOM     11  N   UNL     1       6.544   3.806  14.114  0.00  0.00    +0.000 N 
ATOM     12  H   UNL     1       5.756   3.245  14.429  0.00  0.00    +0.000 HD
BRANCH  11  13
ATOM     13  C   UNL     1       7.130   3.576  12.833  0.00  0.00    +0.000 C 
ATOM     14  C   UNL     1       6.281   3.335  11.614  0.00  0.00    +0.000 C 
ATOM     15  C   UNL     1       7.042   4.620  11.755  0.00  0.00    +0.000 C 
ENDBRANCH  11  13
ENDBRANCH   7   9
BRANCH   5  16
ATOM     16  S   UNL     1       1.990   3.992  17.648  0.00  0.00    +0.000 S 
ATOM     17  O   UNL     1       0.625   4.224  17.220  0.00  0.00    +0.000 OA
ATOM     18  O   UNL     1       2.791   2.970  17.008  0.00  0.00    +0.000 OA
BRANCH  16  19
ATOM     19  C   UNL     1       1.998   3.683  19.389  0.00  0.00    +0.000 A 
ATOM     20  C   UNL     1       2.201   4.749  20.271  0.00  0.00    +0.000 A 
ATOM     21  C   UNL     1       2.218   4.507  21.642  0.00  0.00    +0.000 A 
ATOM     22  C   UNL     1       2.016   3.212  22.123  0.00  0.00    +0.000 A 
ATOM     23  C   UNL     1       1.783   2.157  21.238  0.00  0.00    +0.000 A 
ATOM     24  C   UNL     1       1.765   2.390  19.864  0.00  0.00    +0.000 A 
ENDBRANCH  16  19
ENDBRANCH   5  16
TORSDOF 4
ENDMDL
MODEL 7
REMARK VINA RESULT:      -6.6      2.903      3.731
REMARK  Name = 
REMARK  5 active torsions:
REMARK  status: ('A' for Active; 'I' for Inactive)
REMARK    1  A    between atoms: C_1  and  C_2
REMARK    2  A    between atoms: N_5  and  S_6
REMARK    3  A    between atoms: S_6  and  C_9
REMARK    4  A    between atoms: C_16  and  C_17
REMARK    5  A    between atoms: N_19  and  C_20
REMARK                            x       y       z     vdW  Elec       q    Type
REMARK                         _______ _______ _______ _____ _____    ______ ____
ROOT
ATOM      1  C   UNL     1       1.646   2.624  19.251  0.00  0.00    +0.000 C 
ATOM      2  C   UNL     1       2.421   3.750  18.659  0.00  0.00    +0.000 A 
ATOM      3  S   UNL     1       3.007   3.641  17.047  0.00  0.00    +0.000 S 
ATOM      4  C   UNL     1       3.792   5.136  17.241  0.00  0.00    +0.000 A 
ATOM      5  N   UNL     1       4.527   5.753  16.209  0.00  0.00    +0.000 N 
ATOM      6  N   UNL     1       3.581   5.768  18.367  0.00  0.00    +0.000 NA
ATOM      7  C   UNL     1       2.755   4.991  19.192  0.00  0.00    +0.000 A 
ATOM      8  H   UNL     1       4.235   5.475  15.273  0.00  0.00    +0.000 HD
ENDROOT
BRANCH   7   9
ATOM      9  C   UNL     1       2.306   5.513  20.493  0.00  0.00    +0.000 C 
ATOM     10  O   UNL     1       2.347   4.859  21.531  0.00  0.00    +0.000 OA
ATOM     11  N   UNL     1       1.812   6.802  20.409  0.00  0.00    +0.000 N 
ATOM     12  H   UNL     1       1.814   7.222  19.482  0.00  0.00    +0.000 HD
BRANCH  11  13
ATOM     13  C   UNL     1       1.268   7.510  21.521  0.00  0.00    +0.000 C 
ATOM     14  C   UNL     1       1.446   8.997  21.670  0.00  0.00    +0.000 C 
ATOM     15  C   UNL     1       0.096   8.435  21.339  0.00  0.00    +0.000 C 
ENDBRANCH  11  13
ENDBRANCH   7   9
BRANCH   5  16
ATOM     16  S   UNL     1       6.176   5.399  16.312  0.00  0.00    +0.000 S 
ATOM     17  O   UNL     1       6.935   6.595  16.617  0.00  0.00    +0.000 OA
ATOM     18  O   UNL     1       6.267   4.239  17.173  0.00  0.00    +0.000 OA
BRANCH  16  19
ATOM     19  C   UNL     1       6.557   4.886  14.663  0.00  0.00    +0.000 A 
ATOM     20  C   UNL     1       7.628   5.484  13.992  0.00  0.00    +0.000 A 
ATOM     21  C   UNL     1       7.924   5.090  12.689  0.00  0.00    +0.000 A 
ATOM     22  C   UNL     1       7.164   4.095  12.074  0.00  0.00    +0.000 A 
ATOM     23  C   UNL     1       6.115   3.479  12.760  0.00  0.00    +0.000 A 
ATOM     24  C   UNL     1       5.812   3.868  14.064  0.00  0.00    +0.000 A 
ENDBRANCH  16  19
ENDBRANCH   5  16
TORSDOF 4
ENDMDL
MODEL 8
REMARK VINA RESULT:      -6.6      3.252      4.158
REMARK  Name = 
REMARK  5 active torsions:
REMARK  status: ('A' for Active; 'I' for Inactive)
REMARK    1  A    between atoms: C_1  and  C_2
REMARK    2  A    between atoms: N_5  and  S_6
REMARK    3  A    between atoms: S_6  and  C_9
REMARK    4  A    between atoms: C_16  and  C_17
REMARK    5  A    between atoms: N_19  and  C_20
REMARK                            x       y       z     vdW  Elec       q    Type
REMARK                         _______ _______ _______ _____ _____    ______ ____
ROOT
ATOM      1  C   UNL     1       2.612   4.281  21.117  0.00  0.00    +0.000 C 
ATOM      2  C   UNL     1       2.965   4.775  19.756  0.00  0.00    +0.000 A 
ATOM      3  S   UNL     1       3.679   3.710  18.611  0.00  0.00    +0.000 S 
ATOM      4  C   UNL     1       3.842   5.006  17.523  0.00  0.00    +0.000 A 
ATOM      5  N   UNL     1       4.380   4.854  16.229  0.00  0.00    +0.000 N 
ATOM      6  N   UNL     1       3.323   6.149  17.890  0.00  0.00    +0.000 NA
ATOM      7  C   UNL     1       2.777   6.024  19.175  0.00  0.00    +0.000 A 
ATOM      8  H   UNL     1       4.287   3.912  15.852  0.00  0.00    +0.000 HD
ENDROOT
BRANCH   7   9
ATOM      9  C   UNL     1       2.064   7.156  19.790  0.00  0.00    +0.000 C 
ATOM     10  O   UNL     1       1.530   7.095  20.893  0.00  0.00    +0.000 OA
ATOM     11  N   UNL     1       2.041   8.276  18.979  0.00  0.00    +0.000 N 
ATOM     12  H   UNL     1       2.502   8.185  18.077  0.00  0.00    +0.000 HD
BRANCH  11  13
ATOM     13  C   UNL     1       1.367   9.485  19.326  0.00  0.00    +0.000 C 
ATOM     14  C   UNL     1       0.922  10.466  18.276  0.00  0.00    +0.000 C 
ATOM     15  C   UNL     1      -0.096   9.659  19.025  0.00  0.00    +0.000 C 
ENDBRANCH  11  13
ENDBRANCH   7   9
BRANCH   5  16
ATOM     16  S   UNL     1       6.030   5.217  16.187  0.00  0.00    +0.000 S 
ATOM     17  O   UNL     1       6.243   6.638  16.374  0.00  0.00    +0.000 OA
ATOM     18  O   UNL     1       6.655   4.263  17.077  0.00  0.00    +0.000 OA
BRANCH  16  19
ATOM     19  C   UNL     1       6.470   4.787  14.529  0.00  0.00    +0.000 A 
ATOM     20  C   UNL     1       7.532   5.453  13.909  0.00  0.00    +0.000 A 
ATOM     21  C   UNL     1       7.874   5.123  12.601  0.00  0.00    +0.000 A 
ATOM     22  C   UNL     1       7.170   4.125  11.927  0.00  0.00    +0.000 A 
ATOM     23  C   UNL     1       6.130   3.441  12.562  0.00  0.00    +0.000 A 
ATOM     24  C   UNL     1       5.781   3.765  13.872  0.00  0.00    +0.000 A 
ENDBRANCH  16  19
ENDBRANCH   5  16
TORSDOF 4
ENDMDL
MODEL 9
REMARK VINA RESULT:      -6.6      2.655      3.542
REMARK  Name = 
REMARK  5 active torsions:
REMARK  status: ('A' for Active; 'I' for Inactive)
REMARK    1  A    between atoms: C_1  and  C_2
REMARK    2  A    between atoms: N_5  and  S_6
REMARK    3  A    between atoms: S_6  and  C_9
REMARK    4  A    between atoms: C_16  and  C_17
REMARK    5  A    between atoms: N_19  and  C_20
REMARK                            x       y       z     vdW  Elec       q    Type
REMARK                         _______ _______ _______ _____ _____    ______ ____
ROOT
ATOM      1  C   UNL     1       3.313   2.530  21.021  0.00  0.00    +0.000 C 
ATOM      2  C   UNL     1       3.359   3.276  19.731  0.00  0.00    +0.000 A 
ATOM      3  S   UNL     1       4.255   2.650  18.404  0.00  0.00    +0.000 S 
ATOM      4  C   UNL     1       3.896   4.053  17.514  0.00  0.00    +0.000 A 
ATOM      5  N   UNL     1       4.325   4.245  16.185  0.00  0.00    +0.000 N 
ATOM      6  N   UNL     1       3.083   4.912  18.073  0.00  0.00    +0.000 NA
ATOM      7  C   UNL     1       2.732   4.458  19.353  0.00  0.00    +0.000 A 
ATOM      8  H   UNL     1       4.496   3.378  15.678  0.00  0.00    +0.000 HD
ENDROOT
BRANCH   7   9
ATOM      9  C   UNL     1       1.764   5.212  20.166  0.00  0.00    +0.000 C 
ATOM     10  O   UNL     1       0.816   4.687  20.742  0.00  0.00    +0.000 OA
ATOM     11  N   UNL     1       2.026   6.570  20.185  0.00  0.00    +0.000 N 
ATOM     12  H   UNL     1       2.831   6.878  19.644  0.00  0.00    +0.000 HD
BRANCH  11  13
ATOM     13  C   UNL     1       1.202   7.521  20.859  0.00  0.00    +0.000 C 
ATOM     14  C   UNL     1       1.795   8.591  21.734  0.00  0.00    +0.000 C 
ATOM     15  C   UNL     1       1.177   8.958  20.418  0.00  0.00    +0.000 C 
ENDBRANCH  11  13
ENDBRANCH   7   9
BRANCH   5  16
ATOM     16  S   UNL     1       5.765   5.126  16.110  0.00  0.00    +0.000 S 
ATOM     17  O   UNL     1       5.497   6.547  16.200  0.00  0.00    +0.000 OA
ATOM     18  O   UNL     1       6.654   4.490  17.059  0.00  0.00    +0.000 OA
BRANCH  16  19
ATOM     19  C   UNL     1       6.350   4.757  14.483  0.00  0.00    +0.000 A 
ATOM     20  C   UNL     1       7.486   5.414  14.000  0.00  0.00    +0.000 A 
ATOM     21  C   UNL     1       7.943   5.133  12.715  0.00  0.00    +0.000 A 
ATOM     22  C   UNL     1       7.278   4.190  11.930  0.00  0.00    +0.000 A 
ATOM     23  C   UNL     1       6.163   3.514  12.430  0.00  0.00    +0.000 A 
ATOM     24  C   UNL     1       5.698   3.790  13.714  0.00  0.00    +0.000 A 
ENDBRANCH  16  19
ENDBRANCH   5  16
TORSDOF 4
ENDMDL
