MODEL 1
REMARK VINA RESULT:      -9.1      0.000      0.000
REMARK  Name = 
REMARK  7 active torsions:
REMARK  status: ('A' for Active; 'I' for Inactive)
REMARK    1  A    between atoms: C_1  and  C_2
REMARK    2  A    between atoms: C_4  and  C_5
REMARK    3  A    between atoms: C_12  and  C_13
REMARK    4  A    between atoms: C_13  and  N_14
REMARK    5  A    between atoms: C_17  and  C_18
REMARK    6  A    between atoms: C_20  and  C_21
REMARK    7  A    between atoms: C_30  and  C_31
REMARK                            x       y       z     vdW  Elec       q    Type
REMARK                         _______ _______ _______ _____ _____    ______ ____
ROOT
ATOM      1  N   UNL     1       3.597   6.789  18.533  0.00  0.00    +0.000 N 
ATOM      2  N   UNL     1       3.897   7.551  17.463  0.00  0.00    +0.000 NA
ATOM      3  N   UNL     1       2.972   8.495  17.366  0.00  0.00    +0.000 NA
ATOM      4  C   UNL     1       2.077   8.327  18.392  0.00  0.00    +0.000 A 
ATOM      5  C   UNL     1       2.448   7.232  19.150  0.00  0.00    +0.000 A 
ATOM      6  C   UNL     1       1.858   6.580  20.342  0.00  0.00    +0.000 C 
ENDROOT
BRANCH   4   7
ATOM      7  C   UNL     1       0.907   9.232  18.585  0.00  0.00    +0.000 A 
ATOM      8  N   UNL     1      -0.110   9.369  17.755  0.00  0.00    +0.000 NA
ATOM      9  C   UNL     1      -0.917  10.288  18.394  0.00  0.00    +0.000 A 
ATOM     10  N   UNL     1      -0.418  10.721  19.563  0.00  0.00    +0.000 NA
ATOM     11  O   UNL     1       0.777  10.027  19.693  0.00  0.00    +0.000 OA
BRANCH   9  12
ATOM     12  C   UNL     1      -2.193  10.752  17.849  0.00  0.00    +0.000 A 
ATOM     13  C   UNL     1      -2.498  10.555  16.490  0.00  0.00    +0.000 A 
ATOM     14  C   UNL     1      -3.720  10.974  15.958  0.00  0.00    +0.000 A 
ATOM     15  C   UNL     1      -4.656  11.599  16.779  0.00  0.00    +0.000 A 
ATOM     16  C   UNL     1      -4.359  11.808  18.124  0.00  0.00    +0.000 A 
ATOM     17 BR   UNL     1      -5.636  12.654  19.234  0.00  0.00    +0.000 Br
ATOM     18  C   UNL     1      -3.137  11.394  18.662  0.00  0.00    +0.000 A 
ENDBRANCH   9  12
ENDBRANCH   4   7
BRANCH   1  19
ATOM     19  C   UNL     1       4.393   5.602  18.804  0.00  0.00    +0.000 C 
BRANCH  19  25
ATOM     20  C   UNL     1       7.765   5.900  18.877  0.00  0.00    +0.000 C 
ATOM     21  C   UNL     1       6.798   5.507  17.837  0.00  0.00    +0.000 A 
ATOM     22  O   UNL     1       7.312   5.227  16.606  0.00  0.00    +0.000 OA
ATOM     23  C   UNL     1       6.229   4.939  15.824  0.00  0.00    +0.000 A 
ATOM     24  N   UNL     1       5.078   4.999  16.470  0.00  0.00    +0.000 NA
ATOM     25  C   UNL     1       5.427   5.363  17.765  0.00  0.00    +0.000 A 
BRANCH  23  26
ATOM     26  C   UNL     1       6.517   4.657  14.417  0.00  0.00    +0.000 A 
ATOM     27  C   UNL     1       5.798   3.671  13.717  0.00  0.00    +0.000 A 
ATOM     28  C   UNL     1       6.090   3.374  12.383  0.00  0.00    +0.000 A 
ATOM     29  C   UNL     1       7.105   4.061  11.726  0.00  0.00    +0.000 A 
ATOM     30  C   UNL     1       7.825   5.048  12.400  0.00  0.00    +0.000 A 
ATOM     31  C   UNL     1       7.531   5.345  13.736  0.00  0.00    +0.000 A 
ENDBRANCH  23  26
ENDBRANCH  19  25
ENDBRANCH   1  19
TORSDOF 5
ENDMDL
MODEL 2
REMARK VINA RESULT:      -8.9      2.807      3.222
REMARK  Name = 
REMARK  7 active torsions:
REMARK  status: ('A' for Active; 'I' for Inactive)
REMARK    1  A    between atoms: C_1  and  C_2
REMARK    2  A    between atoms: C_4  and  C_5
REMARK    3  A    between atoms: C_12  and  C_13
REMARK    4  A    between atoms: C_13  and  N_14
REMARK    5  A    between atoms: C_17  and  C_18
REMARK    6  A    between atoms: C_20  and  C_21
REMARK    7  A    between atoms: C_30  and  C_31
REMARK                            x       y       z     vdW  Elec       q    Type
REMARK                         _______ _______ _______ _____ _____    ______ ____
ROOT
ATOM      1  N   UNL     1       2.772   5.906  18.758  0.00  0.00    +0.000 N 
ATOM      2  N   UNL     1       2.878   6.965  17.932  0.00  0.00    +0.000 NA
ATOM      3  N   UNL     1       2.397   8.024  18.566  0.00  0.00    +0.000 NA
ATOM      4  C   UNL     1       1.984   7.627  19.812  0.00  0.00    +0.000 A 
ATOM      5  C   UNL     1       2.202   6.271  19.959  0.00  0.00    +0.000 A 
ATOM      6  C   UNL     1       1.938   5.316  21.060  0.00  0.00    +0.000 C 
ENDROOT
BRANCH   4   7
ATOM      7  C   UNL     1       1.395   8.581  20.797  0.00  0.00    +0.000 A 
ATOM      8  N   UNL     1       0.618   9.609  20.509  0.00  0.00    +0.000 NA
ATOM      9  C   UNL     1       0.329  10.143  21.749  0.00  0.00    +0.000 A 
ATOM     10  N   UNL     1       0.915   9.490  22.765  0.00  0.00    +0.000 NA
ATOM     11  O   UNL     1       1.611   8.462  22.145  0.00  0.00    +0.000 OA
BRANCH   9  12
ATOM     12  C   UNL     1      -0.528  11.313  21.939  0.00  0.00    +0.000 A 
ATOM     13  C   UNL     1      -1.487  11.332  22.967  0.00  0.00    +0.000 A 
ATOM     14  C   UNL     1      -2.300  12.450  23.174  0.00  0.00    +0.000 A 
ATOM     15  C   UNL     1      -2.164  13.567  22.352  0.00  0.00    +0.000 A 
ATOM     16  C   UNL     1      -1.224  13.554  21.324  0.00  0.00    +0.000 A 
ATOM     17 BR   UNL     1      -1.043  15.076  20.215  0.00  0.00    +0.000 Br
ATOM     18  C   UNL     1      -0.410  12.438  21.110  0.00  0.00    +0.000 A 
ENDBRANCH   9  12
ENDBRANCH   4   7
BRANCH   1  19
ATOM     19  C   UNL     1       3.125   4.583  18.267  0.00  0.00    +0.000 C 
BRANCH  19  25
ATOM     20  C   UNL     1       6.329   5.311  19.085  0.00  0.00    +0.000 C 
ATOM     21  C   UNL     1       5.662   4.907  17.835  0.00  0.00    +0.000 A 
ATOM     22  O   UNL     1       6.450   4.828  16.725  0.00  0.00    +0.000 OA
ATOM     23  C   UNL     1       5.603   4.484  15.709  0.00  0.00    +0.000 A 
ATOM     24  N   UNL     1       4.350   4.325  16.096  0.00  0.00    +0.000 NA
ATOM     25  C   UNL     1       4.371   4.593  17.459  0.00  0.00    +0.000 A 
BRANCH  23  26
ATOM     26  C   UNL     1       6.209   4.392  14.380  0.00  0.00    +0.000 A 
ATOM     27  C   UNL     1       7.332   5.169  14.044  0.00  0.00    +0.000 A 
ATOM     28  C   UNL     1       7.896   5.110  12.768  0.00  0.00    +0.000 A 
ATOM     29  C   UNL     1       7.346   4.271  11.805  0.00  0.00    +0.000 A 
ATOM     30  C   UNL     1       6.236   3.486  12.120  0.00  0.00    +0.000 A 
ATOM     31  C   UNL     1       5.673   3.545  13.401  0.00  0.00    +0.000 A 
ENDBRANCH  23  26
ENDBRANCH  19  25
ENDBRANCH   1  19
TORSDOF 5
ENDMDL
MODEL 3
REMARK VINA RESULT:      -8.9      1.114      1.653
REMARK  Name = 
REMARK  7 active torsions:
REMARK  status: ('A' for Active; 'I' for Inactive)
REMARK    1  A    between atoms: C_1  and  C_2
REMARK    2  A    between atoms: C_4  and  C_5
REMARK    3  A    between atoms: C_12  and  C_13
REMARK    4  A    between atoms: C_13  and  N_14
REMARK    5  A    between atoms: C_17  and  C_18
REMARK    6  A    between atoms: C_20  and  C_21
REMARK    7  A    between atoms: C_30  and  C_31
REMARK                            x       y       z     vdW  Elec       q    Type
REMARK                         _______ _______ _______ _____ _____    ______ ____
ROOT
ATOM      1  N   UNL     1       3.800   6.489  18.634  0.00  0.00    +0.000 N 
ATOM      2  N   UNL     1       4.222   7.373  17.708  0.00  0.00    +0.000 NA
ATOM      3  N   UNL     1       3.315   8.334  17.620  0.00  0.00    +0.000 NA
ATOM      4  C   UNL     1       2.306   8.054  18.507  0.00  0.00    +0.000 A 
ATOM      5  C   UNL     1       2.586   6.870  19.163  0.00  0.00    +0.000 A 
ATOM      6  C   UNL     1       1.861   6.086  20.189  0.00  0.00    +0.000 C 
ENDROOT
BRANCH   4   7
ATOM      7  C   UNL     1       1.121   8.946  18.672  0.00  0.00    +0.000 A 
ATOM      8  N   UNL     1       0.156   9.121  17.789  0.00  0.00    +0.000 NA
ATOM      9  C   UNL     1      -0.694  10.005  18.423  0.00  0.00    +0.000 A 
ATOM     10  N   UNL     1      -0.270  10.380  19.640  0.00  0.00    +0.000 NA
ATOM     11  O   UNL     1       0.918   9.684  19.809  0.00  0.00    +0.000 OA
BRANCH   9  12
ATOM     12  C   UNL     1      -1.936  10.493  17.823  0.00  0.00    +0.000 A 
ATOM     13  C   UNL     1      -2.796  11.332  18.553  0.00  0.00    +0.000 A 
ATOM     14  C   UNL     1      -3.976  11.822  17.988  0.00  0.00    +0.000 A 
ATOM     15  C   UNL     1      -4.314  11.478  16.681  0.00  0.00    +0.000 A 
ATOM     16  C   UNL     1      -3.473  10.639  15.952  0.00  0.00    +0.000 A 
ATOM     17 BR   UNL     1      -3.936  10.180  14.176  0.00  0.00    +0.000 Br
ATOM     18  C   UNL     1      -2.293  10.142  16.513  0.00  0.00    +0.000 A 
ENDBRANCH   9  12
ENDBRANCH   4   7
BRANCH   1  19
ATOM     19  C   UNL     1       4.559   5.267  18.847  0.00  0.00    +0.000 C 
BRANCH  19  25
ATOM     20  C   UNL     1       7.942   5.415  18.891  0.00  0.00    +0.000 C 
ATOM     21  C   UNL     1       6.947   5.116  17.846  0.00  0.00    +0.000 A 
ATOM     22  O   UNL     1       7.435   4.874  16.596  0.00  0.00    +0.000 OA
ATOM     23  C   UNL     1       6.332   4.671  15.815  0.00  0.00    +0.000 A 
ATOM     24  N   UNL     1       5.192   4.750  16.479  0.00  0.00    +0.000 NA
ATOM     25  C   UNL     1       5.570   5.035  17.785  0.00  0.00    +0.000 A 
BRANCH  23  26
ATOM     26  C   UNL     1       6.592   4.446  14.393  0.00  0.00    +0.000 A 
ATOM     27  C   UNL     1       7.588   5.174  13.718  0.00  0.00    +0.000 A 
ATOM     28  C   UNL     1       7.821   4.987  12.353  0.00  0.00    +0.000 A 
ATOM     29  C   UNL     1       7.062   4.065  11.641  0.00  0.00    +0.000 A 
ATOM     30  C   UNL     1       6.074   3.326  12.293  0.00  0.00    +0.000 A 
ATOM     31  C   UNL     1       5.843   3.514  13.661  0.00  0.00    +0.000 A 
ENDBRANCH  23  26
ENDBRANCH  19  25
ENDBRANCH   1  19
TORSDOF 5
ENDMDL
MODEL 4
REMARK VINA RESULT:      -8.9      3.963     11.059
REMARK  Name = 
REMARK  7 active torsions:
REMARK  status: ('A' for Active; 'I' for Inactive)
REMARK    1  A    between atoms: C_1  and  C_2
REMARK    2  A    between atoms: C_4  and  C_5
REMARK    3  A    between atoms: C_12  and  C_13
REMARK    4  A    between atoms: C_13  and  N_14
REMARK    5  A    between atoms: C_17  and  C_18
REMARK    6  A    between atoms: C_20  and  C_21
REMARK    7  A    between atoms: C_30  and  C_31
REMARK                            x       y       z     vdW  Elec       q    Type
REMARK                         _______ _______ _______ _____ _____    ______ ____
ROOT
ATOM      1  N   UNL     1      -0.521  11.263  22.054  0.00  0.00    +0.000 N 
ATOM      2  N   UNL     1      -0.677  10.016  22.541  0.00  0.00    +0.000 NA
ATOM      3  N   UNL     1      -0.078   9.177  21.708  0.00  0.00    +0.000 NA
ATOM      4  C   UNL     1       0.466   9.907  20.682  0.00  0.00    +0.000 A 
ATOM      5  C   UNL     1       0.187  11.247  20.872  0.00  0.00    +0.000 A 
ATOM      6  C   UNL     1       0.498  12.466  20.091  0.00  0.00    +0.000 C 
ENDROOT
BRANCH   4   7
ATOM      7  C   UNL     1       1.225   9.269  19.567  0.00  0.00    +0.000 A 
ATOM      8  N   UNL     1       1.800   8.082  19.602  0.00  0.00    +0.000 NA
ATOM      9  C   UNL     1       2.336   7.953  18.336  0.00  0.00    +0.000 A 
ATOM     10  N   UNL     1       2.122   9.020  17.551  0.00  0.00    +0.000 NA
ATOM     11  O   UNL     1       1.390   9.884  18.353  0.00  0.00    +0.000 OA
BRANCH   9  12
ATOM     12  C   UNL     1       3.072   6.770  17.894  0.00  0.00    +0.000 A 
ATOM     13  C   UNL     1       4.366   6.897  17.356  0.00  0.00    +0.000 A 
ATOM     14  C   UNL     1       5.090   5.774  16.947  0.00  0.00    +0.000 A 
ATOM     15  C   UNL     1       4.530   4.505  17.071  0.00  0.00    +0.000 A 
ATOM     16  C   UNL     1       3.245   4.368  17.593  0.00  0.00    +0.000 A 
ATOM     17 BR   UNL     1       2.493   2.642  17.761  0.00  0.00    +0.000 Br
ATOM     18  C   UNL     1       2.513   5.488  18.001  0.00  0.00    +0.000 A 
ENDBRANCH   9  12
ENDBRANCH   4   7
BRANCH   1  19
ATOM     19  C   UNL     1      -1.184  12.373  22.720  0.00  0.00    +0.000 C 
BRANCH  19  25
ATOM     20  C   UNL     1      -4.020  12.489  24.566  0.00  0.00    +0.000 C 
ATOM     21  C   UNL     1      -3.743  12.532  23.120  0.00  0.00    +0.000 A 
ATOM     22  O   UNL     1      -4.826  12.595  22.296  0.00  0.00    +0.000 OA
ATOM     23  C   UNL     1      -4.314  12.579  21.029  0.00  0.00    +0.000 A 
ATOM     24  N   UNL     1      -2.993  12.529  20.993  0.00  0.00    +0.000 NA
ATOM     25  C   UNL     1      -2.611  12.497  22.329  0.00  0.00    +0.000 A 
BRANCH  23  26
ATOM     26  C   UNL     1      -5.297  12.580  19.945  0.00  0.00    +0.000 A 
ATOM     27  C   UNL     1      -6.582  13.118  20.138  0.00  0.00    +0.000 A 
ATOM     28  C   UNL     1      -7.536  13.093  19.118  0.00  0.00    +0.000 A 
ATOM     29  C   UNL     1      -7.219  12.531  17.886  0.00  0.00    +0.000 A 
ATOM     30  C   UNL     1      -5.947  12.000  17.671  0.00  0.00    +0.000 A 
ATOM     31  C   UNL     1      -4.992  12.026  18.694  0.00  0.00    +0.000 A 
ENDBRANCH  23  26
ENDBRANCH  19  25
ENDBRANCH   1  19
TORSDOF 5
ENDMDL
MODEL 5
REMARK VINA RESULT:      -8.7      1.777      2.455
REMARK  Name = 
REMARK  7 active torsions:
REMARK  status: ('A' for Active; 'I' for Inactive)
REMARK    1  A    between atoms: C_1  and  C_2
REMARK    2  A    between atoms: C_4  and  C_5
REMARK    3  A    between atoms: C_12  and  C_13
REMARK    4  A    between atoms: C_13  and  N_14
REMARK    5  A    between atoms: C_17  and  C_18
REMARK    6  A    between atoms: C_20  and  C_21
REMARK    7  A    between atoms: C_30  and  C_31
REMARK                            x       y       z     vdW  Elec       q    Type
REMARK                         _______ _______ _______ _____ _____    ______ ____
ROOT
ATOM      1  N   UNL     1       3.429   6.717  18.634  0.00  0.00    +0.000 N 
ATOM      2  N   UNL     1       3.713   7.462  17.547  0.00  0.00    +0.000 NA
ATOM      3  N   UNL     1       2.853   8.469  17.509  0.00  0.00    +0.000 NA
ATOM      4  C   UNL     1       2.017   8.360  18.591  0.00  0.00    +0.000 A 
ATOM      5  C   UNL     1       2.356   7.238  19.323  0.00  0.00    +0.000 A 
ATOM      6  C   UNL     1       1.800   6.625  20.551  0.00  0.00    +0.000 C 
ENDROOT
BRANCH   4   7
ATOM      7  C   UNL     1       0.929   9.345  18.859  0.00  0.00    +0.000 A 
ATOM      8  N   UNL     1       0.603   9.836  20.040  0.00  0.00    +0.000 NA
ATOM      9  C   UNL     1      -0.428  10.707  19.746  0.00  0.00    +0.000 A 
ATOM     10  N   UNL     1      -0.744  10.744  18.442  0.00  0.00    +0.000 NA
ATOM     11  O   UNL     1       0.146   9.855  17.856  0.00  0.00    +0.000 OA
BRANCH   9  12
ATOM     12  C   UNL     1      -1.114  11.508  20.759  0.00  0.00    +0.000 A 
ATOM     13  C   UNL     1      -0.646  11.530  22.085  0.00  0.00    +0.000 A 
ATOM     14  C   UNL     1      -1.279  12.305  23.060  0.00  0.00    +0.000 A 
ATOM     15  C   UNL     1      -2.392  13.072  22.721  0.00  0.00    +0.000 A 
ATOM     16  C   UNL     1      -2.870  13.049  21.412  0.00  0.00    +0.000 A 
ATOM     17 BR   UNL     1      -4.379  14.095  20.960  0.00  0.00    +0.000 Br
ATOM     18  C   UNL     1      -2.244  12.272  20.433  0.00  0.00    +0.000 A 
ENDBRANCH   9  12
ENDBRANCH   4   7
BRANCH   1  19
ATOM     19  C   UNL     1       4.155   5.475  18.853  0.00  0.00    +0.000 C 
BRANCH  19  25
ATOM     20  C   UNL     1       7.523   5.784  19.014  0.00  0.00    +0.000 C 
ATOM     21  C   UNL     1       6.584   5.399  17.946  0.00  0.00    +0.000 A 
ATOM     22  O   UNL     1       7.129   5.135  16.725  0.00  0.00    +0.000 OA
ATOM     23  C   UNL     1       6.068   4.852  15.913  0.00  0.00    +0.000 A 
ATOM     24  N   UNL     1       4.901   4.901  16.531  0.00  0.00    +0.000 NA
ATOM     25  C   UNL     1       5.215   5.252  17.837  0.00  0.00    +0.000 A 
BRANCH  23  26
ATOM     26  C   UNL     1       6.393   4.586  14.511  0.00  0.00    +0.000 A 
ATOM     27  C   UNL     1       5.661   3.644  13.766  0.00  0.00    +0.000 A 
ATOM     28  C   UNL     1       5.986   3.362  12.438  0.00  0.00    +0.000 A 
ATOM     29  C   UNL     1       7.049   4.021  11.829  0.00  0.00    +0.000 A 
ATOM     30  C   UNL     1       7.783   4.966  12.547  0.00  0.00    +0.000 A 
ATOM     31  C   UNL     1       7.455   5.248  13.879  0.00  0.00    +0.000 A 
ENDBRANCH  23  26
ENDBRANCH  19  25
ENDBRANCH   1  19
TORSDOF 5
ENDMDL
MODEL 6
REMARK VINA RESULT:      -8.7      1.927      2.332
REMARK  Name = 
REMARK  7 active torsions:
REMARK  status: ('A' for Active; 'I' for Inactive)
REMARK    1  A    between atoms: C_1  and  C_2
REMARK    2  A    between atoms: C_4  and  C_5
REMARK    3  A    between atoms: C_12  and  C_13
REMARK    4  A    between atoms: C_13  and  N_14
REMARK    5  A    between atoms: C_17  and  C_18
REMARK    6  A    between atoms: C_20  and  C_21
REMARK    7  A    between atoms: C_30  and  C_31
REMARK                            x       y       z     vdW  Elec       q    Type
REMARK                         _______ _______ _______ _____ _____    ______ ____
ROOT
ATOM      1  N   UNL     1       3.721   5.628  18.934  0.00  0.00    +0.000 N 
ATOM      2  N   UNL     1       3.918   6.656  18.085  0.00  0.00    +0.000 NA
ATOM      3  N   UNL     1       3.104   7.639  18.442  0.00  0.00    +0.000 NA
ATOM      4  C   UNL     1       2.385   7.225  19.534  0.00  0.00    +0.000 A 
ATOM      5  C   UNL     1       2.752   5.935  19.865  0.00  0.00    +0.000 A 
ATOM      6  C   UNL     1       2.304   4.994  20.917  0.00  0.00    +0.000 C 
ENDROOT
BRANCH   4   7
ATOM      7  C   UNL     1       1.376   8.100  20.200  0.00  0.00    +0.000 A 
ATOM      8  N   UNL     1       0.907   9.239  19.727  0.00  0.00    +0.000 NA
ATOM      9  C   UNL     1      -0.001   9.631  20.690  0.00  0.00    +0.000 A 
ATOM     10  N   UNL     1      -0.081   8.785  21.729  0.00  0.00    +0.000 NA
ATOM     11  O   UNL     1       0.817   7.776  21.409  0.00  0.00    +0.000 OA
BRANCH   9  12
ATOM     12  C   UNL     1      -0.795  10.856  20.593  0.00  0.00    +0.000 A 
ATOM     13  C   UNL     1      -1.398  11.217  19.375  0.00  0.00    +0.000 A 
ATOM     14  C   UNL     1      -2.176  12.373  19.271  0.00  0.00    +0.000 A 
ATOM     15  C   UNL     1      -2.362  13.186  20.387  0.00  0.00    +0.000 A 
ATOM     16  C   UNL     1      -1.760  12.843  21.596  0.00  0.00    +0.000 A 
ATOM     17 BR   UNL     1      -2.019  13.950  23.107  0.00  0.00    +0.000 Br
ATOM     18  C   UNL     1      -0.977  11.689  21.706  0.00  0.00    +0.000 A 
ENDBRANCH   9  12
ENDBRANCH   4   7
BRANCH   1  19
ATOM     19  C   UNL     1       4.411   4.369  18.698  0.00  0.00    +0.000 C 
BRANCH  19  25
ATOM     20  C   UNL     1       7.636   5.387  18.860  0.00  0.00    +0.000 C 
ATOM     21  C   UNL     1       6.768   4.917  17.765  0.00  0.00    +0.000 A 
ATOM     22  O   UNL     1       7.319   4.902  16.519  0.00  0.00    +0.000 OA
ATOM     23  C   UNL     1       6.318   4.477  15.691  0.00  0.00    +0.000 A 
ATOM     24  N   UNL     1       5.188   4.208  16.322  0.00  0.00    +0.000 NA
ATOM     25  C   UNL     1       5.461   4.486  17.655  0.00  0.00    +0.000 A 
BRANCH  23  26
ATOM     26  C   UNL     1       6.647   4.431  14.266  0.00  0.00    +0.000 A 
ATOM     27  C   UNL     1       6.053   3.479  13.418  0.00  0.00    +0.000 A 
ATOM     28  C   UNL     1       6.386   3.409  12.064  0.00  0.00    +0.000 A 
ATOM     29  C   UNL     1       7.320   4.293  11.533  0.00  0.00    +0.000 A 
ATOM     30  C   UNL     1       7.916   5.250  12.355  0.00  0.00    +0.000 A 
ATOM     31  C   UNL     1       7.579   5.320  13.712  0.00  0.00    +0.000 A 
ENDBRANCH  23  26
ENDBRANCH  19  25
ENDBRANCH   1  19
TORSDOF 5
ENDMDL
MODEL 7
REMARK VINA RESULT:      -8.6      2.965      3.235
REMARK  Name = 
REMARK  7 active torsions:
REMARK  status: ('A' for Active; 'I' for Inactive)
REMARK    1  A    between atoms: C_1  and  C_2
REMARK    2  A    between atoms: C_4  and  C_5
REMARK    3  A    between atoms: C_12  and  C_13
REMARK    4  A    between atoms: C_13  and  N_14
REMARK    5  A    between atoms: C_17  and  C_18
REMARK    6  A    between atoms: C_20  and  C_21
REMARK    7  A    between atoms: C_30  and  C_31
REMARK                            x       y       z     vdW  Elec       q    Type
REMARK                         _______ _______ _______ _____ _____    ______ ____
ROOT
ATOM      1  N   UNL     1       3.040   5.715  18.875  0.00  0.00    +0.000 N 
ATOM      2  N   UNL     1       3.204   6.757  18.036  0.00  0.00    +0.000 NA
ATOM      3  N   UNL     1       2.550   7.793  18.542  0.00  0.00    +0.000 NA
ATOM      4  C   UNL     1       1.967   7.398  19.720  0.00  0.00    +0.000 A 
ATOM      5  C   UNL     1       2.255   6.066  19.952  0.00  0.00    +0.000 A 
ATOM      6  C   UNL     1       1.883   5.124  21.031  0.00  0.00    +0.000 C 
ENDROOT
BRANCH   4   7
ATOM      7  C   UNL     1       1.157   8.329  20.558  0.00  0.00    +0.000 A 
ATOM      8  N   UNL     1       1.171   9.647  20.484  0.00  0.00    +0.000 NA
ATOM      9  C   UNL     1       0.245  10.026  21.436  0.00  0.00    +0.000 A 
ATOM     10  N   UNL     1      -0.309   8.992  22.088  0.00  0.00    +0.000 NA
ATOM     11  O   UNL     1       0.284   7.877  21.512  0.00  0.00    +0.000 OA
BRANCH   9  12
ATOM     12  C   UNL     1      -0.097  11.421  21.712  0.00  0.00    +0.000 A 
ATOM     13  C   UNL     1       0.661  12.463  21.148  0.00  0.00    +0.000 A 
ATOM     14  C   UNL     1       0.336  13.801  21.386  0.00  0.00    +0.000 A 
ATOM     15  C   UNL     1      -0.755  14.116  22.194  0.00  0.00    +0.000 A 
ATOM     16  C   UNL     1      -1.506  13.091  22.765  0.00  0.00    +0.000 A 
ATOM     17 BR   UNL     1      -2.987  13.527  23.857  0.00  0.00    +0.000 Br
ATOM     18  C   UNL     1      -1.184  11.750  22.534  0.00  0.00    +0.000 A 
ENDBRANCH   9  12
ENDBRANCH   4   7
BRANCH   1  19
ATOM     19  C   UNL     1       3.563   4.411  18.498  0.00  0.00    +0.000 C 
BRANCH  19  25
ATOM     20  C   UNL     1       6.737   5.450  19.054  0.00  0.00    +0.000 C 
ATOM     21  C   UNL     1       6.020   4.952  17.867  0.00  0.00    +0.000 A 
ATOM     22  O   UNL     1       6.728   4.914  16.703  0.00  0.00    +0.000 OA
ATOM     23  C   UNL     1       5.844   4.466  15.762  0.00  0.00    +0.000 A 
ATOM     24  N   UNL     1       4.642   4.204  16.246  0.00  0.00    +0.000 NA
ATOM     25  C   UNL     1       4.740   4.512  17.598  0.00  0.00    +0.000 A 
BRANCH  23  26
ATOM     26  C   UNL     1       6.356   4.392  14.393  0.00  0.00    +0.000 A 
ATOM     27  C   UNL     1       7.414   5.217  13.973  0.00  0.00    +0.000 A 
ATOM     28  C   UNL     1       7.887   5.175  12.659  0.00  0.00    +0.000 A 
ATOM     29  C   UNL     1       7.308   4.303  11.743  0.00  0.00    +0.000 A 
ATOM     30  C   UNL     1       6.263   3.470  12.141  0.00  0.00    +0.000 A 
ATOM     31  C   UNL     1       5.791   3.513  13.458  0.00  0.00    +0.000 A 
ENDBRANCH  23  26
ENDBRANCH  19  25
ENDBRANCH   1  19
TORSDOF 5
ENDMDL
MODEL 8
REMARK VINA RESULT:      -8.5      2.345      3.070
REMARK  Name = 
REMARK  7 active torsions:
REMARK  status: ('A' for Active; 'I' for Inactive)
REMARK    1  A    between atoms: C_1  and  C_2
REMARK    2  A    between atoms: C_4  and  C_5
REMARK    3  A    between atoms: C_12  and  C_13
REMARK    4  A    between atoms: C_13  and  N_14
REMARK    5  A    between atoms: C_17  and  C_18
REMARK    6  A    between atoms: C_20  and  C_21
REMARK    7  A    between atoms: C_30  and  C_31
REMARK                            x       y       z     vdW  Elec       q    Type
REMARK                         _______ _______ _______ _____ _____    ______ ____
ROOT
ATOM      1  N   UNL     1       3.101   6.784  18.566  0.00  0.00    +0.000 N 
ATOM      2  N   UNL     1       3.322   7.464  17.424  0.00  0.00    +0.000 NA
ATOM      3  N   UNL     1       2.603   8.576  17.468  0.00  0.00    +0.000 NA
ATOM      4  C   UNL     1       1.922   8.600  18.659  0.00  0.00    +0.000 A 
ATOM      5  C   UNL     1       2.214   7.456  19.378  0.00  0.00    +0.000 A 
ATOM      6  C   UNL     1       1.762   6.945  20.692  0.00  0.00    +0.000 C 
ENDROOT
BRANCH   4   7
ATOM      7  C   UNL     1       1.020   9.726  19.038  0.00  0.00    +0.000 A 
ATOM      8  N   UNL     1       0.948  10.293  20.228  0.00  0.00    +0.000 NA
ATOM      9  C   UNL     1      -0.000  11.280  20.050  0.00  0.00    +0.000 A 
ATOM     10  N   UNL     1      -0.511  11.317  18.809  0.00  0.00    +0.000 NA
ATOM     11  O   UNL     1       0.159  10.302  18.141  0.00  0.00    +0.000 OA
BRANCH   9  12
ATOM     12  C   UNL     1      -0.414  12.195  21.113  0.00  0.00    +0.000 A 
ATOM     13  C   UNL     1       0.340  13.349  21.391  0.00  0.00    +0.000 A 
ATOM     14  C   UNL     1      -0.053  14.244  22.390  0.00  0.00    +0.000 A 
ATOM     15  C   UNL     1      -1.209  13.996  23.127  0.00  0.00    +0.000 A 
ATOM     16  C   UNL     1      -1.958  12.851  22.865  0.00  0.00    +0.000 A 
ATOM     17 BR   UNL     1      -3.529  12.524  23.867  0.00  0.00    +0.000 Br
ATOM     18  C   UNL     1      -1.569  11.950  21.870  0.00  0.00    +0.000 A 
ENDBRANCH   9  12
ENDBRANCH   4   7
BRANCH   1  19
ATOM     19  C   UNL     1       3.683   5.460  18.728  0.00  0.00    +0.000 C 
BRANCH  19  25
ATOM     20  C   UNL     1       7.030   5.668  19.192  0.00  0.00    +0.000 C 
ATOM     21  C   UNL     1       6.180   5.331  18.037  0.00  0.00    +0.000 A 
ATOM     22  O   UNL     1       6.824   5.074  16.864  0.00  0.00    +0.000 OA
ATOM     23  C   UNL     1       5.831   4.837  15.955  0.00  0.00    +0.000 A 
ATOM     24  N   UNL     1       4.616   4.909  16.469  0.00  0.00    +0.000 NA
ATOM     25  C   UNL     1       4.823   5.226  17.806  0.00  0.00    +0.000 A 
BRANCH  23  26
ATOM     26  C   UNL     1       6.272   4.588  14.582  0.00  0.00    +0.000 A 
ATOM     27  C   UNL     1       7.373   5.277  14.042  0.00  0.00    +0.000 A 
ATOM     28  C   UNL     1       7.779   5.069  12.722  0.00  0.00    +0.000 A 
ATOM     29  C   UNL     1       7.091   4.165  11.920  0.00  0.00    +0.000 A 
ATOM     30  C   UNL     1       6.001   3.465  12.438  0.00  0.00    +0.000 A 
ATOM     31  C   UNL     1       5.596   3.675  13.762  0.00  0.00    +0.000 A 
ENDBRANCH  23  26
ENDBRANCH  19  25
ENDBRANCH   1  19
TORSDOF 5
ENDMDL
MODEL 9
REMARK VINA RESULT:      -8.5      1.148      1.403
REMARK  Name = 
REMARK  7 active torsions:
REMARK  status: ('A' for Active; 'I' for Inactive)
REMARK    1  A    between atoms: C_1  and  C_2
REMARK    2  A    between atoms: C_4  and  C_5
REMARK    3  A    between atoms: C_12  and  C_13
REMARK    4  A    between atoms: C_13  and  N_14
REMARK    5  A    between atoms: C_17  and  C_18
REMARK    6  A    between atoms: C_20  and  C_21
REMARK    7  A    between atoms: C_30  and  C_31
REMARK                            x       y       z     vdW  Elec       q    Type
REMARK                         _______ _______ _______ _____ _____    ______ ____
ROOT
ATOM      1  N   UNL     1       3.277   7.073  18.612  0.00  0.00    +0.000 N 
ATOM      2  N   UNL     1       3.550   7.696  17.449  0.00  0.00    +0.000 NA
ATOM      3  N   UNL     1       2.671   8.676  17.298  0.00  0.00    +0.000 NA
ATOM      4  C   UNL     1       1.835   8.674  18.384  0.00  0.00    +0.000 A 
ATOM      5  C   UNL     1       2.193   7.649  19.239  0.00  0.00    +0.000 A 
ATOM      6  C   UNL     1       1.645   7.167  20.527  0.00  0.00    +0.000 C 
ENDROOT
BRANCH   4   7
ATOM      7  C   UNL     1       0.728   9.663  18.539  0.00  0.00    +0.000 A 
ATOM      8  N   UNL     1      -0.425   9.640  17.897  0.00  0.00    +0.000 NA
ATOM      9  C   UNL     1      -1.092  10.736  18.407  0.00  0.00    +0.000 A 
ATOM     10  N   UNL     1      -0.381  11.424  19.313  0.00  0.00    +0.000 NA
ATOM     11  O   UNL     1       0.812  10.721  19.406  0.00  0.00    +0.000 OA
BRANCH   9  12
ATOM     12  C   UNL     1      -2.443  11.115  17.995  0.00  0.00    +0.000 A 
ATOM     13  C   UNL     1      -2.871  10.894  16.673  0.00  0.00    +0.000 A 
ATOM     14  C   UNL     1      -4.166  11.233  16.269  0.00  0.00    +0.000 A 
ATOM     15  C   UNL     1      -5.051  11.800  17.183  0.00  0.00    +0.000 A 
ATOM     16  C   UNL     1      -4.634  12.031  18.492  0.00  0.00    +0.000 A 
ATOM     17 BR   UNL     1      -5.843  12.797  19.728  0.00  0.00    +0.000 Br
ATOM     18  C   UNL     1      -3.339  11.698  18.902  0.00  0.00    +0.000 A 
ENDBRANCH   9  12
ENDBRANCH   4   7
BRANCH   1  19
ATOM     19  C   UNL     1       4.025   5.878  18.970  0.00  0.00    +0.000 C 
BRANCH  19  25
ATOM     20  C   UNL     1       3.516   2.586  18.362  0.00  0.00    +0.000 C 
ATOM     21  C   UNL     1       4.121   3.685  17.588  0.00  0.00    +0.000 A 
ATOM     22  O   UNL     1       4.639   3.356  16.371  0.00  0.00    +0.000 OA
ATOM     23  C   UNL     1       5.170   4.517  15.883  0.00  0.00    +0.000 A 
ATOM     24  N   UNL     1       5.012   5.551  16.691  0.00  0.00    +0.000 NA
ATOM     25  C   UNL     1       4.341   5.033  17.791  0.00  0.00    +0.000 A 
BRANCH  23  26
ATOM     26  C   UNL     1       5.848   4.412  14.591  0.00  0.00    +0.000 A 
ATOM     27  C   UNL     1       5.330   3.596  13.569  0.00  0.00    +0.000 A 
ATOM     28  C   UNL     1       5.989   3.466  12.344  0.00  0.00    +0.000 A 
ATOM     29  C   UNL     1       7.177   4.153  12.120  0.00  0.00    +0.000 A 
ATOM     30  C   UNL     1       7.704   4.974  13.117  0.00  0.00    +0.000 A 
ATOM     31  C   UNL     1       7.041   5.104  14.344  0.00  0.00    +0.000 A 
ENDBRANCH  23  26
ENDBRANCH  19  25
ENDBRANCH   1  19
TORSDOF 5
ENDMDL
