MODEL 1
REMARK VINA RESULT:      -8.6      0.000      0.000
REMARK  Name = 
REMARK  8 active torsions:
REMARK  status: ('A' for Active; 'I' for Inactive)
REMARK    1  A    between atoms: C_1  and  N_2
REMARK    2  A    between atoms: N_2  and  C_26
REMARK    3  A    between atoms: C_3  and  C_5
REMARK    4  A    between atoms: C_8  and  O_9
REMARK    5  A    between atoms: O_9  and  C_10
REMARK    6  A    between atoms: N_13  and  C_14
REMARK    7  A    between atoms: C_14  and  C_15
REMARK    8  A    between atoms: C_15  and  C_16
REMARK                            x       y       z     vdW  Elec       q    Type
REMARK                         _______ _______ _______ _____ _____    ______ ____
ROOT
ATOM      1  C   UNL     1       1.033   9.828  19.480  0.00  0.00    +0.000 A 
ATOM      2  C   UNL     1       0.833   9.132  20.685  0.00  0.00    +0.000 A 
ATOM      3  C   UNL     1       1.388   7.842  20.888  0.00  0.00    +0.000 A 
ATOM      4  C   UNL     1       2.162   7.230  19.896  0.00  0.00    +0.000 A 
ATOM      5  C   UNL     1       2.330   7.914  18.712  0.00  0.00    +0.000 A 
ATOM      6  C   UNL     1       1.699   9.123  18.497  0.00  0.00    +0.000 A 
ENDROOT
BRANCH   1   9
ATOM      7  C   UNL     1      -1.190  12.896  18.584  0.00  0.00    +0.000 C 
ATOM      8  N   UNL     1      -0.775  11.497  18.664  0.00  0.00    +0.000 N 
ATOM      9  C   UNL     1       0.496  11.233  19.266  0.00  0.00    +0.000 C 
ATOM     10  O   UNL     1       1.252  12.150  19.603  0.00  0.00    +0.000 OA
BRANCH   8  11
ATOM     11  C   UNL     1      -1.794  10.474  18.319  0.00  0.00    +0.000 C 
ATOM     12  C   UNL     1      -3.225  10.988  18.600  0.00  0.00    +0.000 C 
ATOM     13  C   UNL     1      -3.942  11.613  17.427  0.00  0.00    +0.000 C 
ATOM     14  C   UNL     1      -3.958  10.663  16.251  0.00  0.00    +0.000 C 
ATOM     15  C   UNL     1      -2.544  10.285  15.828  0.00  0.00    +0.000 C 
ATOM     16  C   UNL     1      -1.681   9.747  16.967  0.00  0.00    +0.000 C 
ENDBRANCH   8  11
ENDBRANCH   1   9
BRANCH   4  17
ATOM     17  O   UNL     1       2.676   5.973  20.107  0.00  0.00    +0.000 OA
BRANCH  17  18
ATOM     18  C   UNL     1       1.790   4.869  19.791  0.00  0.00    +0.000 C 
ATOM     19  C   UNL     1       2.384   3.525  20.223  0.00  0.00    +0.000 C 
ATOM     20  C   UNL     1       3.605   3.160  19.387  0.00  0.00    +0.000 C 
ATOM     21  N   UNL     1       3.343   3.170  17.940  0.00  0.00    +0.000 NA
ATOM     22  C   UNL     1       2.705   4.420  17.487  0.00  0.00    +0.000 C 
ATOM     23  C   UNL     1       1.487   4.816  18.301  0.00  0.00    +0.000 C 
BRANCH  21  24
ATOM     24  C   UNL     1       4.610   3.010  17.187  0.00  0.00    +0.000 C 
BRANCH  24  25
ATOM     25  C   UNL     1       4.973   4.198  16.282  0.00  0.00    +0.000 C 
BRANCH  25  26
ATOM     26  C   UNL     1       5.979   5.094  16.964  0.00  0.00    +0.000 A 
ATOM     27  C   UNL     1       6.818   4.592  17.969  0.00  0.00    +0.000 A 
ATOM     28  C   UNL     1       7.701   5.440  18.638  0.00  0.00    +0.000 A 
ATOM     29  C   UNL     1       7.745   6.796  18.317  0.00  0.00    +0.000 A 
ATOM     30  C   UNL     1       6.915   7.303  17.319  0.00  0.00    +0.000 A 
ATOM     31  C   UNL     1       6.040   6.456  16.642  0.00  0.00    +0.000 A 
ENDBRANCH  25  26
ENDBRANCH  24  25
ENDBRANCH  21  24
ENDBRANCH  17  18
ENDBRANCH   4  17
TORSDOF 7
ENDMDL
MODEL 2
REMARK VINA RESULT:      -8.5      1.825      3.356
REMARK  Name = 
REMARK  8 active torsions:
REMARK  status: ('A' for Active; 'I' for Inactive)
REMARK    1  A    between atoms: C_1  and  N_2
REMARK    2  A    between atoms: N_2  and  C_26
REMARK    3  A    between atoms: C_3  and  C_5
REMARK    4  A    between atoms: C_8  and  O_9
REMARK    5  A    between atoms: O_9  and  C_10
REMARK    6  A    between atoms: N_13  and  C_14
REMARK    7  A    between atoms: C_14  and  C_15
REMARK    8  A    between atoms: C_15  and  C_16
REMARK                            x       y       z     vdW  Elec       q    Type
REMARK                         _______ _______ _______ _____ _____    ______ ____
ROOT
ATOM      1  C   UNL     1       0.816   9.827  19.006  0.00  0.00    +0.000 A 
ATOM      2  C   UNL     1       1.606   9.176  18.043  0.00  0.00    +0.000 A 
ATOM      3  C   UNL     1       2.293   7.973  18.349  0.00  0.00    +0.000 A 
ATOM      4  C   UNL     1       2.192   7.393  19.618  0.00  0.00    +0.000 A 
ATOM      5  C   UNL     1       1.432   8.054  20.559  0.00  0.00    +0.000 A 
ATOM      6  C   UNL     1       0.855   9.274  20.271  0.00  0.00    +0.000 A 
ENDROOT
BRANCH   1   9
ATOM      7  C   UNL     1      -0.329  13.518  18.535  0.00  0.00    +0.000 C 
ATOM      8  N   UNL     1       0.508  12.401  18.966  0.00  0.00    +0.000 N 
ATOM      9  C   UNL     1       0.027  11.084  18.681  0.00  0.00    +0.000 C 
ATOM     10  O   UNL     1      -1.092  10.900  18.192  0.00  0.00    +0.000 OA
BRANCH   8  11
ATOM     11  C   UNL     1       1.870  12.733  19.455  0.00  0.00    +0.000 C 
ATOM     12  C   UNL     1       2.803  13.141  18.291  0.00  0.00    +0.000 C 
ATOM     13  C   UNL     1       2.904  14.623  18.018  0.00  0.00    +0.000 C 
ATOM     14  C   UNL     1       3.294  15.367  19.275  0.00  0.00    +0.000 C 
ATOM     15  C   UNL     1       2.284  15.132  20.391  0.00  0.00    +0.000 C 
ATOM     16  C   UNL     1       2.010  13.657  20.677  0.00  0.00    +0.000 C 
ENDBRANCH   8  11
ENDBRANCH   1   9
BRANCH   4  17
ATOM     17  O   UNL     1       2.879   6.235  19.899  0.00  0.00    +0.000 OA
BRANCH  17  18
ATOM     18  C   UNL     1       2.092   5.017  19.892  0.00  0.00    +0.000 C 
ATOM     19  C   UNL     1       2.899   3.819  20.401  0.00  0.00    +0.000 C 
ATOM     20  C   UNL     1       4.013   3.445  19.432  0.00  0.00    +0.000 C 
ATOM     21  N   UNL     1       3.536   3.204  18.061  0.00  0.00    +0.000 NA
ATOM     22  C   UNL     1       2.694   4.302  17.552  0.00  0.00    +0.000 C 
ATOM     23  C   UNL     1       1.575   4.704  18.495  0.00  0.00    +0.000 C 
BRANCH  21  24
ATOM     24  C   UNL     1       4.684   3.048  17.137  0.00  0.00    +0.000 C 
BRANCH  24  25
ATOM     25  C   UNL     1       4.974   4.278  16.262  0.00  0.00    +0.000 C 
BRANCH  25  26
ATOM     26  C   UNL     1       5.994   5.172  16.926  0.00  0.00    +0.000 A 
ATOM     27  C   UNL     1       6.926   4.644  17.830  0.00  0.00    +0.000 A 
ATOM     28  C   UNL     1       7.824   5.486  18.488  0.00  0.00    +0.000 A 
ATOM     29  C   UNL     1       7.789   6.860  18.257  0.00  0.00    +0.000 A 
ATOM     30  C   UNL     1       6.867   7.393  17.359  0.00  0.00    +0.000 A 
ATOM     31  C   UNL     1       5.977   6.553  16.692  0.00  0.00    +0.000 A 
ENDBRANCH  25  26
ENDBRANCH  24  25
ENDBRANCH  21  24
ENDBRANCH  17  18
ENDBRANCH   4  17
TORSDOF 7
ENDMDL
MODEL 3
REMARK VINA RESULT:      -8.4      0.960      1.243
REMARK  Name = 
REMARK  8 active torsions:
REMARK  status: ('A' for Active; 'I' for Inactive)
REMARK    1  A    between atoms: C_1  and  N_2
REMARK    2  A    between atoms: N_2  and  C_26
REMARK    3  A    between atoms: C_3  and  C_5
REMARK    4  A    between atoms: C_8  and  O_9
REMARK    5  A    between atoms: O_9  and  C_10
REMARK    6  A    between atoms: N_13  and  C_14
REMARK    7  A    between atoms: C_14  and  C_15
REMARK    8  A    between atoms: C_15  and  C_16
REMARK                            x       y       z     vdW  Elec       q    Type
REMARK                         _______ _______ _______ _____ _____    ______ ____
ROOT
ATOM      1  C   UNL     1       1.053   9.796  19.480  0.00  0.00    +0.000 A 
ATOM      2  C   UNL     1       0.825   9.220  20.742  0.00  0.00    +0.000 A 
ATOM      3  C   UNL     1       1.332   7.935  21.064  0.00  0.00    +0.000 A 
ATOM      4  C   UNL     1       2.086   7.208  20.135  0.00  0.00    +0.000 A 
ATOM      5  C   UNL     1       2.281   7.775  18.895  0.00  0.00    +0.000 A 
ATOM      6  C   UNL     1       1.695   8.981  18.568  0.00  0.00    +0.000 A 
ENDROOT
BRANCH   1   9
ATOM      7  C   UNL     1      -1.041  12.846  18.265  0.00  0.00    +0.000 C 
ATOM      8  N   UNL     1      -0.673  11.446  18.470  0.00  0.00    +0.000 N 
ATOM      9  C   UNL     1       0.568  11.194  19.137  0.00  0.00    +0.000 C 
ATOM     10  O   UNL     1       1.340  12.113  19.428  0.00  0.00    +0.000 OA
BRANCH   8  11
ATOM     11  C   UNL     1      -1.711  10.429  18.170  0.00  0.00    +0.000 C 
ATOM     12  C   UNL     1      -3.119  10.926  18.570  0.00  0.00    +0.000 C 
ATOM     13  C   UNL     1      -3.922  11.582  17.471  0.00  0.00    +0.000 C 
ATOM     14  C   UNL     1      -4.022  10.668  16.271  0.00  0.00    +0.000 C 
ATOM     15  C   UNL     1      -2.641  10.309  15.736  0.00  0.00    +0.000 C 
ATOM     16  C   UNL     1      -1.695   9.742  16.792  0.00  0.00    +0.000 C 
ENDBRANCH   8  11
ENDBRANCH   1   9
BRANCH   4  17
ATOM     17  O   UNL     1       2.554   5.957  20.462  0.00  0.00    +0.000 OA
BRANCH  17  18
ATOM     18  C   UNL     1       1.539   4.948  20.704  0.00  0.00    +0.000 C 
ATOM     19  C   UNL     1       2.129   3.701  21.367  0.00  0.00    +0.000 C 
ATOM     20  C   UNL     1       3.058   2.951  20.420  0.00  0.00    +0.000 C 
ATOM     21  N   UNL     1       2.425   2.607  19.137  0.00  0.00    +0.000 NA
ATOM     22  C   UNL     1       1.781   3.766  18.492  0.00  0.00    +0.000 C 
ATOM     23  C   UNL     1       0.852   4.539  19.409  0.00  0.00    +0.000 C 
BRANCH  21  24
ATOM     24  C   UNL     1       3.435   2.068  18.195  0.00  0.00    +0.000 C 
BRANCH  24  25
ATOM     25  C   UNL     1       3.629   2.900  16.918  0.00  0.00    +0.000 C 
BRANCH  25  26
ATOM     26  C   UNL     1       4.951   3.630  16.958  0.00  0.00    +0.000 A 
ATOM     27  C   UNL     1       5.417   4.199  18.152  0.00  0.00    +0.000 A 
ATOM     28  C   UNL     1       6.608   4.926  18.167  0.00  0.00    +0.000 A 
ATOM     29  C   UNL     1       7.336   5.098  16.990  0.00  0.00    +0.000 A 
ATOM     30  C   UNL     1       6.881   4.535  15.800  0.00  0.00    +0.000 A 
ATOM     31  C   UNL     1       5.697   3.800  15.784  0.00  0.00    +0.000 A 
ENDBRANCH  25  26
ENDBRANCH  24  25
ENDBRANCH  21  24
ENDBRANCH  17  18
ENDBRANCH   4  17
TORSDOF 7
ENDMDL
MODEL 4
REMARK VINA RESULT:      -8.4      0.590      1.343
REMARK  Name = 
REMARK  8 active torsions:
REMARK  status: ('A' for Active; 'I' for Inactive)
REMARK    1  A    between atoms: C_1  and  N_2
REMARK    2  A    between atoms: N_2  and  C_26
REMARK    3  A    between atoms: C_3  and  C_5
REMARK    4  A    between atoms: C_8  and  O_9
REMARK    5  A    between atoms: O_9  and  C_10
REMARK    6  A    between atoms: N_13  and  C_14
REMARK    7  A    between atoms: C_14  and  C_15
REMARK    8  A    between atoms: C_15  and  C_16
REMARK                            x       y       z     vdW  Elec       q    Type
REMARK                         _______ _______ _______ _____ _____    ______ ____
ROOT
ATOM      1  C   UNL     1       0.479  10.072  19.804  0.00  0.00    +0.000 A 
ATOM      2  C   UNL     1       1.274   9.715  18.701  0.00  0.00    +0.000 A 
ATOM      3  C   UNL     1       2.012   8.503  18.690  0.00  0.00    +0.000 A 
ATOM      4  C   UNL     1       1.959   7.621  19.777  0.00  0.00    +0.000 A 
ATOM      5  C   UNL     1       1.194   7.996  20.860  0.00  0.00    +0.000 A 
ATOM      6  C   UNL     1       0.566   9.224  20.891  0.00  0.00    +0.000 A 
ENDROOT
BRANCH   1   9
ATOM      7  C   UNL     1      -2.325  12.712  19.234  0.00  0.00    +0.000 C 
ATOM      8  N   UNL     1      -1.587  11.460  19.080  0.00  0.00    +0.000 N 
ATOM      9  C   UNL     1      -0.363  11.336  19.810  0.00  0.00    +0.000 C 
ATOM     10  O   UNL     1       0.101  12.284  20.453  0.00  0.00    +0.000 OA
BRANCH   8  11
ATOM     11  C   UNL     1      -2.278  10.358  18.364  0.00  0.00    +0.000 C 
ATOM     12  C   UNL     1      -3.811  10.557  18.368  0.00  0.00    +0.000 C 
ATOM     13  C   UNL     1      -4.386  11.254  17.157  0.00  0.00    +0.000 C 
ATOM     14  C   UNL     1      -3.963  10.547  15.890  0.00  0.00    +0.000 C 
ATOM     15  C   UNL     1      -2.445  10.502  15.765  0.00  0.00    +0.000 C 
ATOM     16  C   UNL     1      -1.741   9.921  16.989  0.00  0.00    +0.000 C 
ENDBRANCH   8  11
ENDBRANCH   1   9
BRANCH   4  17
ATOM     17  O   UNL     1       2.695   6.461  19.753  0.00  0.00    +0.000 OA
BRANCH  17  18
ATOM     18  C   UNL     1       1.932   5.229  19.812  0.00  0.00    +0.000 C 
ATOM     19  C   UNL     1       2.744   4.088  20.432  0.00  0.00    +0.000 C 
ATOM     20  C   UNL     1       3.896   3.668  19.527  0.00  0.00    +0.000 C 
ATOM     21  N   UNL     1       3.467   3.318  18.164  0.00  0.00    +0.000 NA
ATOM     22  C   UNL     1       2.621   4.358  17.550  0.00  0.00    +0.000 C 
ATOM     23  C   UNL     1       1.466   4.804  18.427  0.00  0.00    +0.000 C 
BRANCH  21  24
ATOM     24  C   UNL     1       4.647   3.120  17.290  0.00  0.00    +0.000 C 
BRANCH  24  25
ATOM     25  C   UNL     1       4.985   4.317  16.387  0.00  0.00    +0.000 C 
BRANCH  25  26
ATOM     26  C   UNL     1       5.957   5.244  17.080  0.00  0.00    +0.000 A 
ATOM     27  C   UNL     1       5.977   6.612  16.776  0.00  0.00    +0.000 A 
ATOM     28  C   UNL     1       6.919   7.451  17.373  0.00  0.00    +0.000 A 
ATOM     29  C   UNL     1       7.853   6.928  18.267  0.00  0.00    +0.000 A 
ATOM     30  C   UNL     1       7.838   5.570  18.575  0.00  0.00    +0.000 A 
ATOM     31  C   UNL     1       6.892   4.731  17.988  0.00  0.00    +0.000 A 
ENDBRANCH  25  26
ENDBRANCH  24  25
ENDBRANCH  21  24
ENDBRANCH  17  18
ENDBRANCH   4  17
TORSDOF 7
ENDMDL
MODEL 5
REMARK VINA RESULT:      -8.3      1.955      3.568
REMARK  Name = 
REMARK  8 active torsions:
REMARK  status: ('A' for Active; 'I' for Inactive)
REMARK    1  A    between atoms: C_1  and  N_2
REMARK    2  A    between atoms: N_2  and  C_26
REMARK    3  A    between atoms: C_3  and  C_5
REMARK    4  A    between atoms: C_8  and  O_9
REMARK    5  A    between atoms: O_9  and  C_10
REMARK    6  A    between atoms: N_13  and  C_14
REMARK    7  A    between atoms: C_14  and  C_15
REMARK    8  A    between atoms: C_15  and  C_16
REMARK                            x       y       z     vdW  Elec       q    Type
REMARK                         _______ _______ _______ _____ _____    ______ ____
ROOT
ATOM      1  C   UNL     1       0.754   9.728  19.246  0.00  0.00    +0.000 A 
ATOM      2  C   UNL     1       1.584   9.045  18.339  0.00  0.00    +0.000 A 
ATOM      3  C   UNL     1       2.248   7.847  18.712  0.00  0.00    +0.000 A 
ATOM      4  C   UNL     1       2.085   7.305  19.992  0.00  0.00    +0.000 A 
ATOM      5  C   UNL     1       1.287   7.998  20.877  0.00  0.00    +0.000 A 
ATOM      6  C   UNL     1       0.732   9.212  20.527  0.00  0.00    +0.000 A 
ENDROOT
BRANCH   1   9
ATOM      7  C   UNL     1      -0.304  13.403  18.520  0.00  0.00    +0.000 C 
ATOM      8  N   UNL     1       0.518  12.298  19.009  0.00  0.00    +0.000 N 
ATOM      9  C   UNL     1      -0.011  10.979  18.848  0.00  0.00    +0.000 C 
ATOM     10  O   UNL     1      -1.153  10.791  18.416  0.00  0.00    +0.000 OA
BRANCH   8  11
ATOM     11  C   UNL     1       1.905  12.626  19.422  0.00  0.00    +0.000 C 
ATOM     12  C   UNL     1       2.748  13.118  18.223  0.00  0.00    +0.000 C 
ATOM     13  C   UNL     1       2.809  14.615  18.032  0.00  0.00    +0.000 C 
ATOM     14  C   UNL     1       3.276  15.291  19.301  0.00  0.00    +0.000 C 
ATOM     15  C   UNL     1       2.350  14.973  20.468  0.00  0.00    +0.000 C 
ATOM     16  C   UNL     1       2.118  13.480  20.685  0.00  0.00    +0.000 C 
ENDBRANCH   8  11
ENDBRANCH   1   9
BRANCH   4  17
ATOM     17  O   UNL     1       2.751   6.153  20.337  0.00  0.00    +0.000 OA
BRANCH  17  18
ATOM     18  C   UNL     1       1.919   5.057  20.795  0.00  0.00    +0.000 C 
ATOM     19  C   UNL     1       2.760   3.866  21.263  0.00  0.00    +0.000 C 
ATOM     20  C   UNL     1       3.488   3.205  20.099  0.00  0.00    +0.000 C 
ATOM     21  N   UNL     1       2.592   2.809  19.002  0.00  0.00    +0.000 NA
ATOM     22  C   UNL     1       1.711   3.906  18.563  0.00  0.00    +0.000 C 
ATOM     23  C   UNL     1       0.972   4.590  19.698  0.00  0.00    +0.000 C 
BRANCH  21  24
ATOM     24  C   UNL     1       3.382   2.365  17.828  0.00  0.00    +0.000 C 
BRANCH  24  25
ATOM     25  C   UNL     1       3.385   3.350  16.649  0.00  0.00    +0.000 C 
BRANCH  25  26
ATOM     26  C   UNL     1       4.638   4.194  16.668  0.00  0.00    +0.000 A 
ATOM     27  C   UNL     1       4.652   5.436  17.317  0.00  0.00    +0.000 A 
ATOM     28  C   UNL     1       5.794   6.238  17.276  0.00  0.00    +0.000 A 
ATOM     29  C   UNL     1       6.923   5.811  16.579  0.00  0.00    +0.000 A 
ATOM     30  C   UNL     1       6.918   4.577  15.932  0.00  0.00    +0.000 A 
ATOM     31  C   UNL     1       5.783   3.769  15.980  0.00  0.00    +0.000 A 
ENDBRANCH  25  26
ENDBRANCH  24  25
ENDBRANCH  21  24
ENDBRANCH  17  18
ENDBRANCH   4  17
TORSDOF 7
ENDMDL
MODEL 6
REMARK VINA RESULT:      -8.3      1.036      1.509
REMARK  Name = 
REMARK  8 active torsions:
REMARK  status: ('A' for Active; 'I' for Inactive)
REMARK    1  A    between atoms: C_1  and  N_2
REMARK    2  A    between atoms: N_2  and  C_26
REMARK    3  A    between atoms: C_3  and  C_5
REMARK    4  A    between atoms: C_8  and  O_9
REMARK    5  A    between atoms: O_9  and  C_10
REMARK    6  A    between atoms: N_13  and  C_14
REMARK    7  A    between atoms: C_14  and  C_15
REMARK    8  A    between atoms: C_15  and  C_16
REMARK                            x       y       z     vdW  Elec       q    Type
REMARK                         _______ _______ _______ _____ _____    ______ ____
ROOT
ATOM      1  C   UNL     1       1.100   9.795  19.370  0.00  0.00    +0.000 A 
ATOM      2  C   UNL     1       0.848   9.226  20.631  0.00  0.00    +0.000 A 
ATOM      3  C   UNL     1       1.330   7.933  20.962  0.00  0.00    +0.000 A 
ATOM      4  C   UNL     1       2.083   7.192  20.044  0.00  0.00    +0.000 A 
ATOM      5  C   UNL     1       2.302   7.752  18.805  0.00  0.00    +0.000 A 
ATOM      6  C   UNL     1       1.740   8.967  18.469  0.00  0.00    +0.000 A 
ENDROOT
BRANCH   1   9
ATOM      7  C   UNL     1      -0.958  12.883  18.194  0.00  0.00    +0.000 C 
ATOM      8  N   UNL     1      -0.625  11.477  18.414  0.00  0.00    +0.000 N 
ATOM      9  C   UNL     1       0.642  11.200  19.018  0.00  0.00    +0.000 C 
ATOM     10  O   UNL     1       1.459  12.099  19.242  0.00  0.00    +0.000 OA
BRANCH   8  11
ATOM     11  C   UNL     1      -1.711  10.488  18.198  0.00  0.00    +0.000 C 
ATOM     12  C   UNL     1      -3.088  11.069  18.593  0.00  0.00    +0.000 C 
ATOM     13  C   UNL     1      -3.886  11.690  17.471  0.00  0.00    +0.000 C 
ATOM     14  C   UNL     1      -4.050  10.708  16.333  0.00  0.00    +0.000 C 
ATOM     15  C   UNL     1      -2.697  10.258  15.795  0.00  0.00    +0.000 C 
ATOM     16  C   UNL     1      -1.753   9.718  16.867  0.00  0.00    +0.000 C 
ENDBRANCH   8  11
ENDBRANCH   1   9
BRANCH   4  17
ATOM     17  O   UNL     1       2.526   5.934  20.380  0.00  0.00    +0.000 OA
BRANCH  17  18
ATOM     18  C   UNL     1       1.492   4.957  20.666  0.00  0.00    +0.000 C 
ATOM     19  C   UNL     1       2.052   3.744  21.415  0.00  0.00    +0.000 C 
ATOM     20  C   UNL     1       2.983   2.924  20.532  0.00  0.00    +0.000 C 
ATOM     21  N   UNL     1       2.366   2.510  19.262  0.00  0.00    +0.000 NA
ATOM     22  C   UNL     1       1.750   3.636  18.536  0.00  0.00    +0.000 C 
ATOM     23  C   UNL     1       0.819   4.478  19.388  0.00  0.00    +0.000 C 
BRANCH  21  24
ATOM     24  C   UNL     1       3.382   1.899  18.373  0.00  0.00    +0.000 C 
BRANCH  24  25
ATOM     25  C   UNL     1       4.805   2.450  18.551  0.00  0.00    +0.000 C 
BRANCH  25  26
ATOM     26  C   UNL     1       4.967   3.751  17.801  0.00  0.00    +0.000 A 
ATOM     27  C   UNL     1       4.867   3.787  16.403  0.00  0.00    +0.000 A 
ATOM     28  C   UNL     1       5.081   4.981  15.713  0.00  0.00    +0.000 A 
ATOM     29  C   UNL     1       5.405   6.143  16.411  0.00  0.00    +0.000 A 
ATOM     30  C   UNL     1       5.504   6.116  17.801  0.00  0.00    +0.000 A 
ATOM     31  C   UNL     1       5.281   4.928  18.493  0.00  0.00    +0.000 A 
ENDBRANCH  25  26
ENDBRANCH  24  25
ENDBRANCH  21  24
ENDBRANCH  17  18
ENDBRANCH   4  17
TORSDOF 7
ENDMDL
MODEL 7
REMARK VINA RESULT:      -8.3      1.931      2.684
REMARK  Name = 
REMARK  8 active torsions:
REMARK  status: ('A' for Active; 'I' for Inactive)
REMARK    1  A    between atoms: C_1  and  N_2
REMARK    2  A    between atoms: N_2  and  C_26
REMARK    3  A    between atoms: C_3  and  C_5
REMARK    4  A    between atoms: C_8  and  O_9
REMARK    5  A    between atoms: O_9  and  C_10
REMARK    6  A    between atoms: N_13  and  C_14
REMARK    7  A    between atoms: C_14  and  C_15
REMARK    8  A    between atoms: C_15  and  C_16
REMARK                            x       y       z     vdW  Elec       q    Type
REMARK                         _______ _______ _______ _____ _____    ______ ____
ROOT
ATOM      1  C   UNL     1       0.216  10.149  19.560  0.00  0.00    +0.000 A 
ATOM      2  C   UNL     1       0.892  10.026  18.333  0.00  0.00    +0.000 A 
ATOM      3  C   UNL     1       1.812   8.970  18.105  0.00  0.00    +0.000 A 
ATOM      4  C   UNL     1       2.063   8.012  19.094  0.00  0.00    +0.000 A 
ATOM      5  C   UNL     1       1.410   8.159  20.299  0.00  0.00    +0.000 A 
ATOM      6  C   UNL     1       0.597   9.249  20.535  0.00  0.00    +0.000 A 
ENDROOT
BRANCH   1   9
ATOM      7  C   UNL     1      -2.977  12.375  19.474  0.00  0.00    +0.000 C 
ATOM      8  N   UNL     1      -2.053  11.310  19.088  0.00  0.00    +0.000 N 
ATOM      9  C   UNL     1      -0.815  11.238  19.802  0.00  0.00    +0.000 C 
ATOM     10  O   UNL     1      -0.497  12.099  20.629  0.00  0.00    +0.000 OA
BRANCH   8  11
ATOM     11  C   UNL     1      -2.571  10.279  18.155  0.00  0.00    +0.000 C 
ATOM     12  C   UNL     1      -4.112  10.335  18.052  0.00  0.00    +0.000 C 
ATOM     13  C   UNL     1      -4.665  11.161  16.914  0.00  0.00    +0.000 C 
ATOM     14  C   UNL     1      -4.078  10.707  15.597  0.00  0.00    +0.000 C 
ATOM     15  C   UNL     1      -2.559  10.819  15.604  0.00  0.00    +0.000 C 
ATOM     16  C   UNL     1      -1.892  10.117  16.784  0.00  0.00    +0.000 C 
ENDBRANCH   8  11
ENDBRANCH   1   9
BRANCH   4  17
ATOM     17  O   UNL     1       2.971   7.006  18.859  0.00  0.00    +0.000 OA
BRANCH  17  18
ATOM     18  C   UNL     1       2.580   5.685  19.313  0.00  0.00    +0.000 C 
ATOM     19  C   UNL     1       3.767   4.915  19.899  0.00  0.00    +0.000 C 
ATOM     20  C   UNL     1       4.785   4.558  18.824  0.00  0.00    +0.000 C 
ATOM     21  N   UNL     1       4.202   3.827  17.690  0.00  0.00    +0.000 NA
ATOM     22  C   UNL     1       3.011   4.496  17.135  0.00  0.00    +0.000 C 
ATOM     23  C   UNL     1       1.976   4.870  18.179  0.00  0.00    +0.000 C 
BRANCH  21  24
ATOM     24  C   UNL     1       5.196   3.693  16.598  0.00  0.00    +0.000 C 
BRANCH  24  25
ATOM     25  C   UNL     1       5.420   4.971  15.775  0.00  0.00    +0.000 C 
BRANCH  25  26
ATOM     26  C   UNL     1       5.953   4.630  14.403  0.00  0.00    +0.000 A 
ATOM     27  C   UNL     1       5.263   3.739  13.570  0.00  0.00    +0.000 A 
ATOM     28  C   UNL     1       5.793   3.380  12.330  0.00  0.00    +0.000 A 
ATOM     29  C   UNL     1       7.019   3.900  11.919  0.00  0.00    +0.000 A 
ATOM     30  C   UNL     1       7.711   4.788  12.740  0.00  0.00    +0.000 A 
ATOM     31  C   UNL     1       7.179   5.156  13.974  0.00  0.00    +0.000 A 
ENDBRANCH  25  26
ENDBRANCH  24  25
ENDBRANCH  21  24
ENDBRANCH  17  18
ENDBRANCH   4  17
TORSDOF 7
ENDMDL
MODEL 8
REMARK VINA RESULT:      -8.2      1.928      3.301
REMARK  Name = 
REMARK  8 active torsions:
REMARK  status: ('A' for Active; 'I' for Inactive)
REMARK    1  A    between atoms: C_1  and  N_2
REMARK    2  A    between atoms: N_2  and  C_26
REMARK    3  A    between atoms: C_3  and  C_5
REMARK    4  A    between atoms: C_8  and  O_9
REMARK    5  A    between atoms: O_9  and  C_10
REMARK    6  A    between atoms: N_13  and  C_14
REMARK    7  A    between atoms: C_14  and  C_15
REMARK    8  A    between atoms: C_15  and  C_16
REMARK                            x       y       z     vdW  Elec       q    Type
REMARK                         _______ _______ _______ _____ _____    ______ ____
ROOT
ATOM      1  C   UNL     1       0.572  10.021  19.764  0.00  0.00    +0.000 A 
ATOM      2  C   UNL     1       0.604   9.194  20.901  0.00  0.00    +0.000 A 
ATOM      3  C   UNL     1       1.351   7.987  20.909  0.00  0.00    +0.000 A 
ATOM      4  C   UNL     1       2.087   7.592  19.786  0.00  0.00    +0.000 A 
ATOM      5  C   UNL     1       2.027   8.400  18.672  0.00  0.00    +0.000 A 
ATOM      6  C   UNL     1       1.216   9.516  18.651  0.00  0.00    +0.000 A 
ENDROOT
BRANCH   1   9
ATOM      7  C   UNL     1      -0.357  13.801  19.825  0.00  0.00    +0.000 C 
ATOM      8  N   UNL     1       0.480  12.606  19.922  0.00  0.00    +0.000 N 
ATOM      9  C   UNL     1      -0.173  11.344  19.755  0.00  0.00    +0.000 C 
ATOM     10  O   UNL     1      -1.401  11.265  19.643  0.00  0.00    +0.000 OA
BRANCH   8  11
ATOM     11  C   UNL     1       1.948  12.817  19.964  0.00  0.00    +0.000 C 
ATOM     12  C   UNL     1       2.539  12.950  18.541  0.00  0.00    +0.000 C 
ATOM     13  C   UNL     1       2.689  14.360  18.020  0.00  0.00    +0.000 C 
ATOM     14  C   UNL     1       3.490  15.199  18.990  0.00  0.00    +0.000 C 
ATOM     15  C   UNL     1       2.826  15.241  20.361  0.00  0.00    +0.000 C 
ATOM     16  C   UNL     1       2.516  13.862  20.940  0.00  0.00    +0.000 C 
ENDBRANCH   8  11
ENDBRANCH   1   9
BRANCH   4  17
ATOM     17  O   UNL     1       2.790   6.410  19.810  0.00  0.00    +0.000 OA
BRANCH  17  18
ATOM     18  C   UNL     1       1.989   5.202  19.864  0.00  0.00    +0.000 C 
ATOM     19  C   UNL     1       2.772   4.031  20.464  0.00  0.00    +0.000 C 
ATOM     20  C   UNL     1       3.901   3.584  19.543  0.00  0.00    +0.000 C 
ATOM     21  N   UNL     1       3.448   3.262  18.182  0.00  0.00    +0.000 NA
ATOM     22  C   UNL     1       2.629   4.334  17.587  0.00  0.00    +0.000 C 
ATOM     23  C   UNL     1       1.496   4.806  18.479  0.00  0.00    +0.000 C 
BRANCH  21  24
ATOM     24  C   UNL     1       4.612   3.036  17.293  0.00  0.00    +0.000 C 
BRANCH  24  25
ATOM     25  C   UNL     1       4.933   4.203  16.346  0.00  0.00    +0.000 C 
BRANCH  25  26
ATOM     26  C   UNL     1       5.954   5.126  16.970  0.00  0.00    +0.000 A 
ATOM     27  C   UNL     1       6.908   4.631  17.870  0.00  0.00    +0.000 A 
ATOM     28  C   UNL     1       7.807   5.499  18.490  0.00  0.00    +0.000 A 
ATOM     29  C   UNL     1       7.753   6.866  18.225  0.00  0.00    +0.000 A 
ATOM     30  C   UNL     1       6.809   7.366  17.330  0.00  0.00    +0.000 A 
ATOM     31  C   UNL     1       5.916   6.500  16.701  0.00  0.00    +0.000 A 
ENDBRANCH  25  26
ENDBRANCH  24  25
ENDBRANCH  21  24
ENDBRANCH  17  18
ENDBRANCH   4  17
TORSDOF 7
ENDMDL
MODEL 9
REMARK VINA RESULT:      -8.2      1.663      2.301
REMARK  Name = 
REMARK  8 active torsions:
REMARK  status: ('A' for Active; 'I' for Inactive)
REMARK    1  A    between atoms: C_1  and  N_2
REMARK    2  A    between atoms: N_2  and  C_26
REMARK    3  A    between atoms: C_3  and  C_5
REMARK    4  A    between atoms: C_8  and  O_9
REMARK    5  A    between atoms: O_9  and  C_10
REMARK    6  A    between atoms: N_13  and  C_14
REMARK    7  A    between atoms: C_14  and  C_15
REMARK    8  A    between atoms: C_15  and  C_16
REMARK                            x       y       z     vdW  Elec       q    Type
REMARK                         _______ _______ _______ _____ _____    ______ ____
ROOT
ATOM      1  C   UNL     1       0.798   9.804  19.445  0.00  0.00    +0.000 A 
ATOM      2  C   UNL     1       0.814   8.986  20.588  0.00  0.00    +0.000 A 
ATOM      3  C   UNL     1       1.575   7.789  20.624  0.00  0.00    +0.000 A 
ATOM      4  C   UNL     1       2.343   7.395  19.522  0.00  0.00    +0.000 A 
ATOM      5  C   UNL     1       2.300   8.194  18.401  0.00  0.00    +0.000 A 
ATOM      6  C   UNL     1       1.475   9.300  18.352  0.00  0.00    +0.000 A 
ENDROOT
BRANCH   1   9
ATOM      7  C   UNL     1      -1.867  12.577  18.840  0.00  0.00    +0.000 C 
ATOM      8  N   UNL     1      -1.216  11.273  18.734  0.00  0.00    +0.000 N 
ATOM      9  C   UNL     1       0.036  11.117  19.408  0.00  0.00    +0.000 C 
ATOM     10  O   UNL     1       0.591  12.072  19.962  0.00  0.00    +0.000 OA
BRANCH   8  11
ATOM     11  C   UNL     1      -2.010  10.174  18.128  0.00  0.00    +0.000 C 
ATOM     12  C   UNL     1      -3.526  10.388  18.346  0.00  0.00    +0.000 C 
ATOM     13  C   UNL     1      -4.259  11.085  17.224  0.00  0.00    +0.000 C 
ATOM     14  C   UNL     1      -4.024  10.368  15.914  0.00  0.00    +0.000 C 
ATOM     15  C   UNL     1      -2.539  10.307  15.578  0.00  0.00    +0.000 C 
ATOM     16  C   UNL     1      -1.676   9.725  16.695  0.00  0.00    +0.000 C 
ENDBRANCH   8  11
ENDBRANCH   1   9
BRANCH   4  17
ATOM     17  O   UNL     1       3.060   6.223  19.572  0.00  0.00    +0.000 OA
BRANCH  17  18
ATOM     18  C   UNL     1       2.291   5.006  19.391  0.00  0.00    +0.000 C 
ATOM     19  C   UNL     1       3.076   3.770  19.839  0.00  0.00    +0.000 C 
ATOM     20  C   UNL     1       4.261   3.498  18.920  0.00  0.00    +0.000 C 
ATOM     21  N   UNL     1       3.884   3.388  17.503  0.00  0.00    +0.000 NA
ATOM     22  C   UNL     1       3.066   4.525  17.043  0.00  0.00    +0.000 C 
ATOM     23  C   UNL     1       1.879   4.827  17.938  0.00  0.00    +0.000 C 
BRANCH  21  24
ATOM     24  C   UNL     1       5.097   3.330  16.652  0.00  0.00    +0.000 C 
BRANCH  24  25
ATOM     25  C   UNL     1       5.508   4.673  16.028  0.00  0.00    +0.000 C 
BRANCH  25  26
ATOM     26  C   UNL     1       6.086   4.460  14.648  0.00  0.00    +0.000 A 
ATOM     27  C   UNL     1       7.251   5.131  14.252  0.00  0.00    +0.000 A 
ATOM     28  C   UNL     1       7.744   4.978  12.955  0.00  0.00    +0.000 A 
ATOM     29  C   UNL     1       7.071   4.165  12.044  0.00  0.00    +0.000 A 
ATOM     30  C   UNL     1       5.913   3.494  12.431  0.00  0.00    +0.000 A 
ATOM     31  C   UNL     1       5.425   3.636  13.728  0.00  0.00    +0.000 A 
ENDBRANCH  25  26
ENDBRANCH  24  25
ENDBRANCH  21  24
ENDBRANCH  17  18
ENDBRANCH   4  17
TORSDOF 7
ENDMDL
