MODEL 1
REMARK VINA RESULT:      -7.6      0.000      0.000
REMARK  Name = 
REMARK  8 active torsions:
REMARK  status: ('A' for Active; 'I' for Inactive)
REMARK    1  A    between atoms: C_1  and  C_2
REMARK    2  A    between atoms: N_4  and  C_5
REMARK    3  A    between atoms: C_5  and  C_6
REMARK    4  A    between atoms: C_6  and  C_7
REMARK    5  A    between atoms: N_9  and  C_10
REMARK    6  A    between atoms: C_10  and  C_11
REMARK    7  A    between atoms: C_19  and  O_20
REMARK    8  A    between atoms: C_19  and  C_21
REMARK                            x       y       z     vdW  Elec       q    Type
REMARK                         _______ _______ _______ _____ _____    ______ ____
ROOT
ATOM      1  C   UNL     1       3.308   3.903  18.696  0.00  0.00    +0.000 C 
ENDROOT
BRANCH   1   2
ATOM      2  C   UNL     1       2.296   4.679  19.520  0.00  0.00    +0.000 C 
ATOM      3  O   UNL     1       1.174   4.240  19.757  0.00  0.00    +0.000 OA
ATOM      4  N   UNL     1       2.745   5.890  19.979  0.00  0.00    +0.000 N 
ATOM      5  H   UNL     1       3.549   6.302  19.521  0.00  0.00    +0.000 HD
BRANCH   4   6
ATOM      6  C   UNL     1       1.882   6.791  20.711  0.00  0.00    +0.000 C 
BRANCH   6   7
ATOM      7  C   UNL     1       1.611   8.070  19.954  0.00  0.00    +0.000 A 
ATOM      8  C   UNL     1       2.126   8.211  18.652  0.00  0.00    +0.000 A 
ATOM      9  C   UNL     1       1.927   9.383  17.921  0.00  0.00    +0.000 A 
ATOM     10  C   UNL     1       1.203  10.436  18.474  0.00  0.00    +0.000 A 
ATOM     11  C   UNL     1       0.684  10.315  19.763  0.00  0.00    +0.000 A 
ATOM     12  C   UNL     1       0.888   9.144  20.500  0.00  0.00    +0.000 A 
ATOM     13 CL   UNL     1       0.223   9.079  22.094  0.00  0.00    +0.000 Cl
ENDBRANCH   6   7
ENDBRANCH   4   6
ENDBRANCH   1   2
BRANCH   1  14
ATOM     14  C   UNL     1       4.578   3.670  19.517  0.00  0.00    +0.000 C 
BRANCH  14  18
ATOM     15  C   UNL     1       7.587   7.139  17.775  0.00  0.00    +0.000 C 
ATOM     16  C   UNL     1       6.459   6.116  17.752  0.00  0.00    +0.000 C 
ATOM     17  C   UNL     1       6.249   5.438  19.106  0.00  0.00    +0.000 C 
ATOM     18  N   UNL     1       5.825   4.053  18.835  0.00  0.00    +0.000 NA
ATOM     19  C   UNL     1       5.670   3.921  17.364  0.00  0.00    +0.000 C 
ATOM     20  C   UNL     1       6.646   4.951  16.775  0.00  0.00    +0.000 C 
BRANCH  20  21
ATOM     21  C   UNL     1       6.296   5.340  15.357  0.00  0.00    +0.000 C 
ATOM     22  C   UNL     1       5.491   4.431  14.460  0.00  0.00    +0.000 C 
ATOM     23  C   UNL     1       6.943   4.679  14.161  0.00  0.00    +0.000 C 
ENDBRANCH  20  21
BRANCH  20  24
ATOM     24  O   UNL     1       7.979   4.437  16.843  0.00  0.00    +0.000 OA
ATOM     25  H   UNL     1       8.407   4.693  16.005  0.00  0.00    +0.000 HD
ENDBRANCH  20  24
ENDBRANCH  14  18
ENDBRANCH   1  14
TORSDOF 7
ENDMDL
MODEL 2
REMARK VINA RESULT:      -7.6      1.154      2.276
REMARK  Name = 
REMARK  8 active torsions:
REMARK  status: ('A' for Active; 'I' for Inactive)
REMARK    1  A    between atoms: C_1  and  C_2
REMARK    2  A    between atoms: N_4  and  C_5
REMARK    3  A    between atoms: C_5  and  C_6
REMARK    4  A    between atoms: C_6  and  C_7
REMARK    5  A    between atoms: N_9  and  C_10
REMARK    6  A    between atoms: C_10  and  C_11
REMARK    7  A    between atoms: C_19  and  O_20
REMARK    8  A    between atoms: C_19  and  C_21
REMARK                            x       y       z     vdW  Elec       q    Type
REMARK                         _______ _______ _______ _____ _____    ______ ____
ROOT
ATOM      1  C   UNL     1       2.775   2.982  18.913  0.00  0.00    +0.000 C 
ENDROOT
BRANCH   1   2
ATOM      2  C   UNL     1       1.978   3.999  19.711  0.00  0.00    +0.000 C 
ATOM      3  O   UNL     1       0.824   3.786  20.069  0.00  0.00    +0.000 OA
ATOM      4  N   UNL     1       2.659   5.152  20.001  0.00  0.00    +0.000 N 
ATOM      5  H   UNL     1       3.479   5.371  19.448  0.00  0.00    +0.000 HD
BRANCH   4   6
ATOM      6  C   UNL     1       2.023   6.257  20.684  0.00  0.00    +0.000 C 
BRANCH   6   7
ATOM      7  C   UNL     1       1.877   7.473  19.800  0.00  0.00    +0.000 A 
ATOM      8  C   UNL     1       2.465   7.458  18.521  0.00  0.00    +0.000 A 
ATOM      9  C   UNL     1       2.382   8.565  17.676  0.00  0.00    +0.000 A 
ATOM     10  C   UNL     1       1.703   9.709  18.089  0.00  0.00    +0.000 A 
ATOM     11  C   UNL     1       1.113   9.743  19.352  0.00  0.00    +0.000 A 
ATOM     12  C   UNL     1       1.201   8.636  20.203  0.00  0.00    +0.000 A 
ATOM     13 CL   UNL     1       0.454   8.764  21.756  0.00  0.00    +0.000 Cl
ENDBRANCH   6   7
ENDBRANCH   4   6
ENDBRANCH   1   2
BRANCH   1  14
ATOM     14  C   UNL     1       4.235   3.428  18.809  0.00  0.00    +0.000 C 
BRANCH  14  18
ATOM     15  C   UNL     1       6.527   4.684  14.652  0.00  0.00    +0.000 C 
ATOM     16  C   UNL     1       6.311   4.558  16.153  0.00  0.00    +0.000 C 
ATOM     17  C   UNL     1       5.023   3.810  16.503  0.00  0.00    +0.000 C 
ATOM     18  N   UNL     1       4.499   4.408  17.743  0.00  0.00    +0.000 NA
ATOM     19  C   UNL     1       5.492   5.412  18.201  0.00  0.00    +0.000 C 
ATOM     20  C   UNL     1       6.194   5.881  16.916  0.00  0.00    +0.000 C 
BRANCH  20  21
ATOM     21  C   UNL     1       7.545   6.501  17.183  0.00  0.00    +0.000 C 
ATOM     22  C   UNL     1       7.963   6.928  18.570  0.00  0.00    +0.000 C 
ATOM     23  C   UNL     1       7.704   7.967  17.516  0.00  0.00    +0.000 C 
ENDBRANCH  20  21
BRANCH  20  24
ATOM     24  O   UNL     1       5.346   6.798  16.218  0.00  0.00    +0.000 OA
ATOM     25  H   UNL     1       5.128   7.500  16.860  0.00  0.00    +0.000 HD
ENDBRANCH  20  24
ENDBRANCH  14  18
ENDBRANCH   1  14
TORSDOF 7
ENDMDL
MODEL 3
REMARK VINA RESULT:      -7.5      0.928      1.072
REMARK  Name = 
REMARK  8 active torsions:
REMARK  status: ('A' for Active; 'I' for Inactive)
REMARK    1  A    between atoms: C_1  and  C_2
REMARK    2  A    between atoms: N_4  and  C_5
REMARK    3  A    between atoms: C_5  and  C_6
REMARK    4  A    between atoms: C_6  and  C_7
REMARK    5  A    between atoms: N_9  and  C_10
REMARK    6  A    between atoms: C_10  and  C_11
REMARK    7  A    between atoms: C_19  and  O_20
REMARK    8  A    between atoms: C_19  and  C_21
REMARK                            x       y       z     vdW  Elec       q    Type
REMARK                         _______ _______ _______ _____ _____    ______ ____
ROOT
ATOM      1  C   UNL     1       3.188   4.972  18.883  0.00  0.00    +0.000 C 
ENDROOT
BRANCH   1   2
ATOM      2  C   UNL     1       2.485   5.601  20.072  0.00  0.00    +0.000 C 
ATOM      3  O   UNL     1       2.111   4.937  21.035  0.00  0.00    +0.000 OA
ATOM      4  N   UNL     1       2.319   6.959  19.982  0.00  0.00    +0.000 N 
ATOM      5  H   UNL     1       2.390   7.385  19.065  0.00  0.00    +0.000 HD
BRANCH   4   6
ATOM      6  C   UNL     1       1.599   7.704  20.990  0.00  0.00    +0.000 C 
BRANCH   6   7
ATOM      7  C   UNL     1       0.919   8.928  20.424  0.00  0.00    +0.000 A 
ATOM      8  C   UNL     1       1.241   9.342  19.118  0.00  0.00    +0.000 A 
ATOM      9  C   UNL     1       0.661  10.482  18.559  0.00  0.00    +0.000 A 
ATOM     10  C   UNL     1      -0.259  11.227  19.292  0.00  0.00    +0.000 A 
ATOM     11  C   UNL     1      -0.592  10.833  20.587  0.00  0.00    +0.000 A 
ATOM     12  C   UNL     1      -0.007   9.695  21.152  0.00  0.00    +0.000 A 
ATOM     13 CL   UNL     1      -0.464   9.281  22.766  0.00  0.00    +0.000 Cl
ENDBRANCH   6   7
ENDBRANCH   4   6
ENDBRANCH   1   2
BRANCH   1  14
ATOM     14  C   UNL     1       4.156   3.888  19.363  0.00  0.00    +0.000 C 
BRANCH  14  18
ATOM     15  C   UNL     1       7.902   6.870  18.269  0.00  0.00    +0.000 C 
ATOM     16  C   UNL     1       6.664   6.019  18.019  0.00  0.00    +0.000 C 
ATOM     17  C   UNL     1       6.109   5.394  19.300  0.00  0.00    +0.000 C 
ATOM     18  N   UNL     1       5.550   4.081  18.933  0.00  0.00    +0.000 NA
ATOM     19  C   UNL     1       5.656   3.955  17.457  0.00  0.00    +0.000 C 
ATOM     20  C   UNL     1       6.863   4.828  17.077  0.00  0.00    +0.000 C 
BRANCH  20  21
ATOM     21  C   UNL     1       6.845   5.246  15.625  0.00  0.00    +0.000 C 
ATOM     22  C   UNL     1       5.557   5.336  14.840  0.00  0.00    +0.000 C 
ATOM     23  C   UNL     1       6.559   4.265  14.511  0.00  0.00    +0.000 C 
ENDBRANCH  20  21
BRANCH  20  24
ATOM     24  O   UNL     1       8.073   4.130  17.386  0.00  0.00    +0.000 OA
ATOM     25  H   UNL     1       8.184   4.205  18.352  0.00  0.00    +0.000 HD
ENDBRANCH  20  24
ENDBRANCH  14  18
ENDBRANCH   1  14
TORSDOF 7
ENDMDL
MODEL 4
REMARK VINA RESULT:      -7.3      4.083      6.824
REMARK  Name = 
REMARK  8 active torsions:
REMARK  status: ('A' for Active; 'I' for Inactive)
REMARK    1  A    between atoms: C_1  and  C_2
REMARK    2  A    between atoms: N_4  and  C_5
REMARK    3  A    between atoms: C_5  and  C_6
REMARK    4  A    between atoms: C_6  and  C_7
REMARK    5  A    between atoms: N_9  and  C_10
REMARK    6  A    between atoms: C_10  and  C_11
REMARK    7  A    between atoms: C_19  and  O_20
REMARK    8  A    between atoms: C_19  and  C_21
REMARK                            x       y       z     vdW  Elec       q    Type
REMARK                         _______ _______ _______ _____ _____    ______ ____
ROOT
ATOM      1  C   UNL     1       8.359   6.366  18.639  0.00  0.00    +0.000 C 
ENDROOT
BRANCH   1   2
ATOM      2  C   UNL     1       8.017   7.766  18.161  0.00  0.00    +0.000 C 
ATOM      3  O   UNL     1       7.180   7.970  17.286  0.00  0.00    +0.000 OA
ATOM      4  N   UNL     1       8.706   8.767  18.794  0.00  0.00    +0.000 N 
ATOM      5  H   UNL     1       9.558   8.520  19.285  0.00  0.00    +0.000 HD
BRANCH   4   6
ATOM      6  C   UNL     1       8.561  10.153  18.405  0.00  0.00    +0.000 C 
BRANCH   6   7
ATOM      7  C   UNL     1       9.767  10.984  18.774  0.00  0.00    +0.000 A 
ATOM      8  C   UNL     1      10.694  11.318  17.770  0.00  0.00    +0.000 A 
ATOM      9  C   UNL     1      11.840  12.060  18.065  0.00  0.00    +0.000 A 
ATOM     10  C   UNL     1      12.077  12.489  19.368  0.00  0.00    +0.000 A 
ATOM     11  C   UNL     1      11.169  12.169  20.376  0.00  0.00    +0.000 A 
ATOM     12  C   UNL     1      10.024  11.419  20.085  0.00  0.00    +0.000 A 
ATOM     13 CL   UNL     1       8.956  11.054  21.393  0.00  0.00    +0.000 Cl
ENDBRANCH   6   7
ENDBRANCH   4   6
ENDBRANCH   1   2
BRANCH   1  14
ATOM     14  C   UNL     1       7.217   5.815  19.496  0.00  0.00    +0.000 C 
BRANCH  14  18
ATOM     15  C   UNL     1       5.195   3.746  15.528  0.00  0.00    +0.000 C 
ATOM     16  C   UNL     1       5.266   4.609  16.780  0.00  0.00    +0.000 C 
ATOM     17  C   UNL     1       6.656   4.611  17.418  0.00  0.00    +0.000 C 
ATOM     18  N   UNL     1       6.463   4.715  18.875  0.00  0.00    +0.000 NA
ATOM     19  C   UNL     1       5.008   4.887  19.115  0.00  0.00    +0.000 C 
ATOM     20  C   UNL     1       4.331   4.194  17.920  0.00  0.00    +0.000 C 
BRANCH  20  21
ATOM     21  C   UNL     1       2.916   4.674  17.694  0.00  0.00    +0.000 C 
ATOM     22  C   UNL     1       1.868   4.595  18.779  0.00  0.00    +0.000 C 
ATOM     23  C   UNL     1       1.755   3.714  17.567  0.00  0.00    +0.000 C 
ENDBRANCH  20  21
BRANCH  20  24
ATOM     24  O   UNL     1       4.360   2.777  18.113  0.00  0.00    +0.000 OA
ATOM     25  H   UNL     1       5.246   2.487  17.826  0.00  0.00    +0.000 HD
ENDBRANCH  20  24
ENDBRANCH  14  18
ENDBRANCH   1  14
TORSDOF 7
ENDMDL
MODEL 5
REMARK VINA RESULT:      -7.1      1.337      2.374
REMARK  Name = 
REMARK  8 active torsions:
REMARK  status: ('A' for Active; 'I' for Inactive)
REMARK    1  A    between atoms: C_1  and  C_2
REMARK    2  A    between atoms: N_4  and  C_5
REMARK    3  A    between atoms: C_5  and  C_6
REMARK    4  A    between atoms: C_6  and  C_7
REMARK    5  A    between atoms: N_9  and  C_10
REMARK    6  A    between atoms: C_10  and  C_11
REMARK    7  A    between atoms: C_19  and  O_20
REMARK    8  A    between atoms: C_19  and  C_21
REMARK                            x       y       z     vdW  Elec       q    Type
REMARK                         _______ _______ _______ _____ _____    ______ ____
ROOT
ATOM      1  C   UNL     1       2.155   4.030  19.023  0.00  0.00    +0.000 C 
ENDROOT
BRANCH   1   2
ATOM      2  C   UNL     1       2.116   5.049  20.147  0.00  0.00    +0.000 C 
ATOM      3  O   UNL     1       2.183   4.720  21.328  0.00  0.00    +0.000 OA
ATOM      4  N   UNL     1       2.016   6.351  19.731  0.00  0.00    +0.000 N 
ATOM      5  H   UNL     1       1.687   6.524  18.788  0.00  0.00    +0.000 HD
BRANCH   4   6
ATOM      6  C   UNL     1       1.886   7.442  20.673  0.00  0.00    +0.000 C 
BRANCH   6   7
ATOM      7  C   UNL     1       1.191   8.641  20.072  0.00  0.00    +0.000 A 
ATOM      8  C   UNL     1       1.604   9.103  18.809  0.00  0.00    +0.000 A 
ATOM      9  C   UNL     1       1.013  10.224  18.223  0.00  0.00    +0.000 A 
ATOM     10  C   UNL     1      -0.008  10.900  18.885  0.00  0.00    +0.000 A 
ATOM     11  C   UNL     1      -0.432  10.457  20.137  0.00  0.00    +0.000 A 
ATOM     12  C   UNL     1       0.164   9.338  20.729  0.00  0.00    +0.000 A 
ATOM     13 CL   UNL     1      -0.410   8.861  22.288  0.00  0.00    +0.000 Cl
ENDBRANCH   6   7
ENDBRANCH   4   6
ENDBRANCH   1   2
BRANCH   1  14
ATOM     14  C   UNL     1       3.604   3.777  18.599  0.00  0.00    +0.000 C 
BRANCH  14  18
ATOM     15  C   UNL     1       6.393   4.455  14.614  0.00  0.00    +0.000 C 
ATOM     16  C   UNL     1       6.030   4.463  16.092  0.00  0.00    +0.000 C 
ATOM     17  C   UNL     1       4.635   3.897  16.361  0.00  0.00    +0.000 C 
ATOM     18  N   UNL     1       4.080   4.640  17.506  0.00  0.00    +0.000 NA
ATOM     19  C   UNL     1       5.144   5.553  17.996  0.00  0.00    +0.000 C 
ATOM     20  C   UNL     1       6.009   5.843  16.758  0.00  0.00    +0.000 C 
BRANCH  20  21
ATOM     21  C   UNL     1       7.397   6.319  17.117  0.00  0.00    +0.000 C 
ATOM     22  C   UNL     1       7.787   6.629  18.543  0.00  0.00    +0.000 C 
ATOM     23  C   UNL     1       7.672   7.744  17.541  0.00  0.00    +0.000 C 
ENDBRANCH  20  21
BRANCH  20  24
ATOM     24  O   UNL     1       5.345   6.799  15.927  0.00  0.00    +0.000 OA
ATOM     25  H   UNL     1       4.391   6.631  16.037  0.00  0.00    +0.000 HD
ENDBRANCH  20  24
ENDBRANCH  14  18
ENDBRANCH   1  14
TORSDOF 7
ENDMDL
MODEL 6
REMARK VINA RESULT:      -7.0      3.759      8.196
REMARK  Name = 
REMARK  8 active torsions:
REMARK  status: ('A' for Active; 'I' for Inactive)
REMARK    1  A    between atoms: C_1  and  C_2
REMARK    2  A    between atoms: N_4  and  C_5
REMARK    3  A    between atoms: C_5  and  C_6
REMARK    4  A    between atoms: C_6  and  C_7
REMARK    5  A    between atoms: N_9  and  C_10
REMARK    6  A    between atoms: C_10  and  C_11
REMARK    7  A    between atoms: C_19  and  O_20
REMARK    8  A    between atoms: C_19  and  C_21
REMARK                            x       y       z     vdW  Elec       q    Type
REMARK                         _______ _______ _______ _____ _____    ______ ____
ROOT
ATOM      1  C   UNL     1       2.028   8.860  17.640  0.00  0.00    +0.000 C 
ENDROOT
BRANCH   1   2
ATOM      2  C   UNL     1       2.911   7.688  18.028  0.00  0.00    +0.000 C 
ATOM      3  O   UNL     1       3.887   7.358  17.359  0.00  0.00    +0.000 OA
ATOM      4  N   UNL     1       2.536   7.050  19.181  0.00  0.00    +0.000 N 
ATOM      5  H   UNL     1       1.588   7.190  19.514  0.00  0.00    +0.000 HD
BRANCH   4   6
ATOM      6  C   UNL     1       3.220   5.866  19.651  0.00  0.00    +0.000 C 
BRANCH   6   7
ATOM      7  C   UNL     1       2.467   4.598  19.323  0.00  0.00    +0.000 A 
ATOM      8  C   UNL     1       1.403   4.205  20.155  0.00  0.00    +0.000 A 
ATOM      9  C   UNL     1       0.693   3.028  19.911  0.00  0.00    +0.000 A 
ATOM     10  C   UNL     1       1.029   2.223  18.825  0.00  0.00    +0.000 A 
ATOM     11  C   UNL     1       2.080   2.596  17.989  0.00  0.00    +0.000 A 
ATOM     12  C   UNL     1       2.797   3.772  18.235  0.00  0.00    +0.000 A 
ATOM     13 CL   UNL     1       4.094   4.156  17.159  0.00  0.00    +0.000 Cl
ENDBRANCH   6   7
ENDBRANCH   4   6
ENDBRANCH   1   2
BRANCH   1  14
ATOM     14  C   UNL     1       1.327   9.418  18.881  0.00  0.00    +0.000 C 
BRANCH  14  18
ATOM     15  C   UNL     1      -1.794  12.859  20.471  0.00  0.00    +0.000 C 
ATOM     16  C   UNL     1      -1.352  11.565  19.802  0.00  0.00    +0.000 C 
ATOM     17  C   UNL     1       0.159  11.344  19.885  0.00  0.00    +0.000 C 
ATOM     18  N   UNL     1       0.564  10.654  18.648  0.00  0.00    +0.000 NA
ATOM     19  C   UNL     1      -0.674  10.359  17.884  0.00  0.00    +0.000 C 
ATOM     20  C   UNL     1      -1.664  11.457  18.306  0.00  0.00    +0.000 C 
BRANCH  20  21
ATOM     21  C   UNL     1      -3.103  11.070  18.056  0.00  0.00    +0.000 C 
ATOM     22  C   UNL     1      -3.478   9.717  17.501  0.00  0.00    +0.000 C 
ATOM     23  C   UNL     1      -3.670  10.947  16.659  0.00  0.00    +0.000 C 
ENDBRANCH  20  21
BRANCH  20  24
ATOM     24  O   UNL     1      -1.342  12.675  17.629  0.00  0.00    +0.000 OA
ATOM     25  H   UNL     1      -1.123  12.420  16.713  0.00  0.00    +0.000 HD
ENDBRANCH  20  24
ENDBRANCH  14  18
ENDBRANCH   1  14
TORSDOF 7
ENDMDL
MODEL 7
REMARK VINA RESULT:      -6.9      1.677      2.339
REMARK  Name = 
REMARK  8 active torsions:
REMARK  status: ('A' for Active; 'I' for Inactive)
REMARK    1  A    between atoms: C_1  and  C_2
REMARK    2  A    between atoms: N_4  and  C_5
REMARK    3  A    between atoms: C_5  and  C_6
REMARK    4  A    between atoms: C_6  and  C_7
REMARK    5  A    between atoms: N_9  and  C_10
REMARK    6  A    between atoms: C_10  and  C_11
REMARK    7  A    between atoms: C_19  and  O_20
REMARK    8  A    between atoms: C_19  and  C_21
REMARK                            x       y       z     vdW  Elec       q    Type
REMARK                         _______ _______ _______ _____ _____    ______ ____
ROOT
ATOM      1  C   UNL     1       3.222   5.386  20.162  0.00  0.00    +0.000 C 
ENDROOT
BRANCH   1   2
ATOM      2  C   UNL     1       2.454   6.478  19.439  0.00  0.00    +0.000 C 
ATOM      3  O   UNL     1       2.216   6.421  18.236  0.00  0.00    +0.000 OA
ATOM      4  N   UNL     1       2.044   7.511  20.241  0.00  0.00    +0.000 N 
ATOM      5  H   UNL     1       2.506   7.629  21.136  0.00  0.00    +0.000 HD
BRANCH   4   6
ATOM      6  C   UNL     1       1.370   8.670  19.701  0.00  0.00    +0.000 C 
BRANCH   6   7
ATOM      7  C   UNL     1       0.666   9.476  20.767  0.00  0.00    +0.000 A 
ATOM      8  C   UNL     1       0.088   8.801  21.858  0.00  0.00    +0.000 A 
ATOM      9  C   UNL     1      -0.597   9.497  22.856  0.00  0.00    +0.000 A 
ATOM     10  C   UNL     1      -0.711  10.883  22.787  0.00  0.00    +0.000 A 
ATOM     11  C   UNL     1      -0.143  11.570  21.715  0.00  0.00    +0.000 A 
ATOM     12  C   UNL     1       0.537  10.874  20.710  0.00  0.00    +0.000 A 
ATOM     13 CL   UNL     1       1.201  11.798  19.409  0.00  0.00    +0.000 Cl
ENDBRANCH   6   7
ENDBRANCH   4   6
ENDBRANCH   1   2
BRANCH   1  14
ATOM     14  C   UNL     1       3.528   4.238  19.197  0.00  0.00    +0.000 C 
BRANCH  14  18
ATOM     15  C   UNL     1       7.448   6.756  17.645  0.00  0.00    +0.000 C 
ATOM     16  C   UNL     1       6.106   6.044  17.545  0.00  0.00    +0.000 C 
ATOM     17  C   UNL     1       5.617   5.514  18.894  0.00  0.00    +0.000 C 
ATOM     18  N   UNL     1       4.884   4.263  18.627  0.00  0.00    +0.000 NA
ATOM     19  C   UNL     1       4.827   4.093  17.153  0.00  0.00    +0.000 C 
ATOM     20  C   UNL     1       6.078   4.817  16.628  0.00  0.00    +0.000 C 
BRANCH  20  21
ATOM     21  C   UNL     1       5.959   5.202  15.172  0.00  0.00    +0.000 C 
ATOM     22  C   UNL     1       5.792   4.165  14.087  0.00  0.00    +0.000 C 
ATOM     23  C   UNL     1       7.072   4.947  14.181  0.00  0.00    +0.000 C 
ENDBRANCH  20  21
BRANCH  20  24
ATOM     24  O   UNL     1       7.228   3.995  16.841  0.00  0.00    +0.000 OA
ATOM     25  H   UNL     1       7.439   3.601  15.975  0.00  0.00    +0.000 HD
ENDBRANCH  20  24
ENDBRANCH  14  18
ENDBRANCH   1  14
TORSDOF 7
ENDMDL
MODEL 8
REMARK VINA RESULT:      -6.9      3.046      5.026
REMARK  Name = 
REMARK  8 active torsions:
REMARK  status: ('A' for Active; 'I' for Inactive)
REMARK    1  A    between atoms: C_1  and  C_2
REMARK    2  A    between atoms: N_4  and  C_5
REMARK    3  A    between atoms: C_5  and  C_6
REMARK    4  A    between atoms: C_6  and  C_7
REMARK    5  A    between atoms: N_9  and  C_10
REMARK    6  A    between atoms: C_10  and  C_11
REMARK    7  A    between atoms: C_19  and  O_20
REMARK    8  A    between atoms: C_19  and  C_21
REMARK                            x       y       z     vdW  Elec       q    Type
REMARK                         _______ _______ _______ _____ _____    ______ ____
ROOT
ATOM      1  C   UNL     1       2.334   7.683  18.836  0.00  0.00    +0.000 C 
ENDROOT
BRANCH   1   2
ATOM      2  C   UNL     1       1.814   9.016  18.327  0.00  0.00    +0.000 C 
ATOM      3  O   UNL     1       2.249   9.539  17.305  0.00  0.00    +0.000 OA
ATOM      4  N   UNL     1       0.820   9.568  19.093  0.00  0.00    +0.000 N 
ATOM      5  H   UNL     1       0.715   9.235  20.045  0.00  0.00    +0.000 HD
BRANCH   4   6
ATOM      6  C   UNL     1       0.268  10.871  18.796  0.00  0.00    +0.000 C 
BRANCH   6   7
ATOM      7  C   UNL     1      -1.173  10.798  18.350  0.00  0.00    +0.000 A 
ATOM      8  C   UNL     1      -1.526   9.881  17.342  0.00  0.00    +0.000 A 
ATOM      9  C   UNL     1      -2.839   9.794  16.875  0.00  0.00    +0.000 A 
ATOM     10  C   UNL     1      -3.826  10.616  17.411  0.00  0.00    +0.000 A 
ATOM     11  C   UNL     1      -3.497  11.529  18.411  0.00  0.00    +0.000 A 
ATOM     12  C   UNL     1      -2.180  11.624  18.876  0.00  0.00    +0.000 A 
ATOM     13 CL   UNL     1      -1.851  12.790  20.108  0.00  0.00    +0.000 Cl
ENDBRANCH   6   7
ENDBRANCH   4   6
ENDBRANCH   1   2
BRANCH   1  14
ATOM     14  C   UNL     1       3.397   7.139  17.878  0.00  0.00    +0.000 C 
BRANCH  14  18
ATOM     15  C   UNL     1       3.733   2.265  17.382  0.00  0.00    +0.000 C 
ATOM     16  C   UNL     1       3.220   3.589  17.931  0.00  0.00    +0.000 C 
ATOM     17  C   UNL     1       3.873   4.799  17.261  0.00  0.00    +0.000 C 
ATOM     18  N   UNL     1       3.984   5.853  18.285  0.00  0.00    +0.000 NA
ATOM     19  C   UNL     1       3.317   5.346  19.511  0.00  0.00    +0.000 C 
ATOM     20  C   UNL     1       3.456   3.818  19.428  0.00  0.00    +0.000 C 
BRANCH  20  21
ATOM     21  C   UNL     1       2.437   3.094  20.277  0.00  0.00    +0.000 C 
ATOM     22  C   UNL     1       1.113   3.723  20.638  0.00  0.00    +0.000 C 
ATOM     23  C   UNL     1       2.148   3.500  21.704  0.00  0.00    +0.000 C 
ENDBRANCH  20  21
BRANCH  20  24
ATOM     24  O   UNL     1       4.784   3.439  19.798  0.00  0.00    +0.000 OA
ATOM     25  H   UNL     1       4.962   2.601  19.332  0.00  0.00    +0.000 HD
ENDBRANCH  20  24
ENDBRANCH  14  18
ENDBRANCH   1  14
TORSDOF 7
ENDMDL
MODEL 9
REMARK VINA RESULT:      -6.9      1.315      1.784
REMARK  Name = 
REMARK  8 active torsions:
REMARK  status: ('A' for Active; 'I' for Inactive)
REMARK    1  A    between atoms: C_1  and  C_2
REMARK    2  A    between atoms: N_4  and  C_5
REMARK    3  A    between atoms: C_5  and  C_6
REMARK    4  A    between atoms: C_6  and  C_7
REMARK    5  A    between atoms: N_9  and  C_10
REMARK    6  A    between atoms: C_10  and  C_11
REMARK    7  A    between atoms: C_19  and  O_20
REMARK    8  A    between atoms: C_19  and  C_21
REMARK                            x       y       z     vdW  Elec       q    Type
REMARK                         _______ _______ _______ _____ _____    ______ ____
ROOT
ATOM      1  C   UNL     1       3.195   3.634  18.877  0.00  0.00    +0.000 C 
ENDROOT
BRANCH   1   2
ATOM      2  C   UNL     1       2.492   4.863  18.328  0.00  0.00    +0.000 C 
ATOM      3  O   UNL     1       1.566   4.781  17.527  0.00  0.00    +0.000 OA
ATOM      4  N   UNL     1       2.969   6.054  18.811  0.00  0.00    +0.000 N 
ATOM      5  H   UNL     1       3.891   6.059  19.233  0.00  0.00    +0.000 HD
BRANCH   4   6
ATOM      6  C   UNL     1       2.466   7.323  18.333  0.00  0.00    +0.000 C 
BRANCH   6   7
ATOM      7  C   UNL     1       1.807   8.129  19.427  0.00  0.00    +0.000 A 
ATOM      8  C   UNL     1       1.681   7.561  20.708  0.00  0.00    +0.000 A 
ATOM      9  C   UNL     1       1.055   8.254  21.746  0.00  0.00    +0.000 A 
ATOM     10  C   UNL     1       0.548   9.532  21.525  0.00  0.00    +0.000 A 
ATOM     11  C   UNL     1       0.664  10.112  20.263  0.00  0.00    +0.000 A 
ATOM     12  C   UNL     1       1.285   9.417  19.219  0.00  0.00    +0.000 A 
ATOM     13 CL   UNL     1       1.377  10.201  17.682  0.00  0.00    +0.000 Cl
ENDBRANCH   6   7
ENDBRANCH   4   6
ENDBRANCH   1   2
BRANCH   1  14
ATOM     14  C   UNL     1       4.392   4.056  19.731  0.00  0.00    +0.000 C 
BRANCH  14  18
ATOM     15  C   UNL     1       7.634   6.979  17.481  0.00  0.00    +0.000 C 
ATOM     16  C   UNL     1       6.422   6.067  17.616  0.00  0.00    +0.000 C 
ATOM     17  C   UNL     1       6.195   5.597  19.054  0.00  0.00    +0.000 C 
ATOM     18  N   UNL     1       5.645   4.232  18.981  0.00  0.00    +0.000 NA
ATOM     19  C   UNL     1       5.435   3.919  17.544  0.00  0.00    +0.000 C 
ATOM     20  C   UNL     1       6.478   4.770  16.803  0.00  0.00    +0.000 C 
BRANCH  20  21
ATOM     21  C   UNL     1       6.120   4.997  15.352  0.00  0.00    +0.000 C 
ATOM     22  C   UNL     1       6.150   3.875  14.342  0.00  0.00    +0.000 C 
ATOM     23  C   UNL     1       7.162   4.983  14.257  0.00  0.00    +0.000 C 
ENDBRANCH  20  21
BRANCH  20  24
ATOM     24  O   UNL     1       7.763   4.153  16.915  0.00  0.00    +0.000 OA
ATOM     25  H   UNL     1       7.905   3.678  16.076  0.00  0.00    +0.000 HD
ENDBRANCH  20  24
ENDBRANCH  14  18
ENDBRANCH   1  14
TORSDOF 7
ENDMDL
