MODEL 1
REMARK VINA RESULT:      -8.4      0.000      0.000
REMARK  Name = 
REMARK  8 active torsions:
REMARK  status: ('A' for Active; 'I' for Inactive)
REMARK    1  A    between atoms: C_1  and  C_2
REMARK    2  A    between atoms: C_7  and  C_8
REMARK    3  A    between atoms: C_8  and  N_9
REMARK    4  A    between atoms: C_10  and  C_12
REMARK    5  A    between atoms: C_12  and  N_13
REMARK    6  A    between atoms: N_19  and  C_20
REMARK    7  A    between atoms: C_20  and  C_21
REMARK    8  A    between atoms: C_21  and  C_24
REMARK                            x       y       z     vdW  Elec       q    Type
REMARK                         _______ _______ _______ _____ _____    ______ ____
ROOT
ATOM      1  N   UNL     1       1.055   9.168  19.451  0.00  0.00    +0.000 N 
ATOM      2  C   UNL     1       1.005   8.318  20.538  0.00  0.00    +0.000 A 
ATOM      3 CL   UNL     1      -0.087   8.657  21.821  0.00  0.00    +0.000 Cl
ATOM      4  C   UNL     1       1.801   7.239  20.604  0.00  0.00    +0.000 A 
ATOM      5  N   UNL     1       2.691   6.845  19.642  0.00  0.00    +0.000 NA
ATOM      6  C   UNL     1       2.749   7.555  18.550  0.00  0.00    +0.000 A 
ATOM      7  N   UNL     1       3.589   7.202  17.506  0.00  0.00    +0.000 N 
ATOM      8  C   UNL     1       1.888   8.842  18.381  0.00  0.00    +0.000 A 
ATOM      9  O   UNL     1       2.029   9.503  17.357  0.00  0.00    +0.000 OA
ATOM     10  H   UNL     1       3.633   7.892  16.755  0.00  0.00    +0.000 HD
ENDROOT
BRANCH   1  11
ATOM     11  C   UNL     1       0.359  10.453  19.391  0.00  0.00    +0.000 C 
BRANCH  11  13
ATOM     12  N   UNL     1       1.757  12.450  19.030  0.00  0.00    +0.000 N 
ATOM     13  C   UNL     1       1.149  11.636  19.970  0.00  0.00    +0.000 C 
ATOM     14  O   UNL     1       1.270  11.822  21.179  0.00  0.00    +0.000 OA
ATOM     15  H   UNL     1       1.690  12.235  18.042  0.00  0.00    +0.000 HD
BRANCH  12  16
ATOM     16  C   UNL     1       2.662  13.508  19.438  0.00  0.00    +0.000 C 
BRANCH  16  23
ATOM     17  C   UNL     1       4.742  14.943  17.737  0.00  0.00    +0.000 C 
ATOM     18  C   UNL     1       3.370  15.510  17.981  0.00  0.00    +0.000 A 
ATOM     19  C   UNL     1       3.071  16.779  17.449  0.00  0.00    +0.000 A 
ATOM     20  C   UNL     1       1.834  17.377  17.669  0.00  0.00    +0.000 A 
ATOM     21  C   UNL     1       0.869  16.713  18.417  0.00  0.00    +0.000 A 
ATOM     22  C   UNL     1       1.146  15.450  18.948  0.00  0.00    +0.000 A 
ATOM     23  C   UNL     1       2.395  14.829  18.747  0.00  0.00    +0.000 A 
ENDBRANCH  16  23
ENDBRANCH  12  16
ENDBRANCH  11  13
ENDBRANCH   1  11
BRANCH   7  24
ATOM     24  C   UNL     1       4.854   6.483  17.753  0.00  0.00    +0.000 C 
BRANCH  24  25
ATOM     25  C   UNL     1       4.880   5.060  17.150  0.00  0.00    +0.000 C 
ATOM     26  F   UNL     1       4.516   5.205  15.825  0.00  0.00    +0.000 F 
ATOM     27  F   UNL     1       6.180   4.638  17.074  0.00  0.00    +0.000 F 
BRANCH  25  28
ATOM     28  C   UNL     1       3.998   4.066  17.839  0.00  0.00    +0.000 A 
ATOM     29  C   UNL     1       2.736   3.696  17.335  0.00  0.00    +0.000 A 
ATOM     30  C   UNL     1       1.959   2.751  17.997  0.00  0.00    +0.000 A 
ATOM     31  C   UNL     1       2.431   2.169  19.163  0.00  0.00    +0.000 A 
ATOM     32  C   UNL     1       3.685   2.535  19.644  0.00  0.00    +0.000 A 
ATOM     33  N   UNL     1       4.483   3.467  18.990  0.00  0.00    +0.000 N 
ATOM     34  O   UNL     1       5.633   3.733  19.452  0.00  0.00    +0.000 OA
ENDBRANCH  25  28
ENDBRANCH  24  25
ENDBRANCH   7  24
TORSDOF 7
ENDMDL
MODEL 2
REMARK VINA RESULT:      -8.3      3.326      4.632
REMARK  Name = 
REMARK  8 active torsions:
REMARK  status: ('A' for Active; 'I' for Inactive)
REMARK    1  A    between atoms: C_1  and  C_2
REMARK    2  A    between atoms: C_7  and  C_8
REMARK    3  A    between atoms: C_8  and  N_9
REMARK    4  A    between atoms: C_10  and  C_12
REMARK    5  A    between atoms: C_12  and  N_13
REMARK    6  A    between atoms: N_19  and  C_20
REMARK    7  A    between atoms: C_20  and  C_21
REMARK    8  A    between atoms: C_21  and  C_24
REMARK                            x       y       z     vdW  Elec       q    Type
REMARK                         _______ _______ _______ _____ _____    ______ ____
ROOT
ATOM      1  N   UNL     1       0.993   9.860  19.712  0.00  0.00    +0.000 N 
ATOM      2  C   UNL     1       0.857   9.240  20.939  0.00  0.00    +0.000 A 
ATOM      3 CL   UNL     1       0.023  10.053  22.203  0.00  0.00    +0.000 Cl
ATOM      4  C   UNL     1       1.374   8.020  21.154  0.00  0.00    +0.000 A 
ATOM      5  N   UNL     1       2.036   7.261  20.228  0.00  0.00    +0.000 NA
ATOM      6  C   UNL     1       2.145   7.743  19.021  0.00  0.00    +0.000 A 
ATOM      7  N   UNL     1       2.759   7.021  18.011  0.00  0.00    +0.000 N 
ATOM      8  C   UNL     1       1.603   9.161  18.671  0.00  0.00    +0.000 A 
ATOM      9  O   UNL     1       1.788   9.587  17.536  0.00  0.00    +0.000 OA
ATOM     10  H   UNL     1       2.886   7.544  17.143  0.00  0.00    +0.000 HD
ENDROOT
BRANCH   1  11
ATOM     11  C   UNL     1       0.622  11.252  19.458  0.00  0.00    +0.000 C 
BRANCH  11  13
ATOM     12  N   UNL     1      -1.445  12.489  19.974  0.00  0.00    +0.000 N 
ATOM     13  C   UNL     1      -0.876  11.480  19.216  0.00  0.00    +0.000 C 
ATOM     14  O   UNL     1      -1.534  10.790  18.440  0.00  0.00    +0.000 OA
ATOM     15  H   UNL     1      -0.890  13.000  20.651  0.00  0.00    +0.000 HD
BRANCH  12  16
ATOM     16  C   UNL     1      -2.880  12.708  19.963  0.00  0.00    +0.000 C 
BRANCH  16  23
ATOM     17  C   UNL     1      -5.826  13.295  20.471  0.00  0.00    +0.000 C 
ATOM     18  C   UNL     1      -4.864  12.973  21.582  0.00  0.00    +0.000 A 
ATOM     19  C   UNL     1      -5.344  13.009  22.906  0.00  0.00    +0.000 A 
ATOM     20  C   UNL     1      -4.499  12.758  23.983  0.00  0.00    +0.000 A 
ATOM     21  C   UNL     1      -3.162  12.457  23.756  0.00  0.00    +0.000 A 
ATOM     22  C   UNL     1      -2.669  12.411  22.449  0.00  0.00    +0.000 A 
ATOM     23  C   UNL     1      -3.504  12.672  21.343  0.00  0.00    +0.000 A 
ENDBRANCH  16  23
ENDBRANCH  12  16
ENDBRANCH  11  13
ENDBRANCH   1  11
BRANCH   7  24
ATOM     24  C   UNL     1       3.834   6.055  18.306  0.00  0.00    +0.000 C 
BRANCH  24  25
ATOM     25  C   UNL     1       3.421   4.584  18.069  0.00  0.00    +0.000 C 
ATOM     26  F   UNL     1       2.530   4.608  17.014  0.00  0.00    +0.000 F 
ATOM     27  F   UNL     1       4.493   3.902  17.561  0.00  0.00    +0.000 F 
BRANCH  25  28
ATOM     28  C   UNL     1       2.821   3.898  19.258  0.00  0.00    +0.000 A 
ATOM     29  C   UNL     1       1.442   3.946  19.543  0.00  0.00    +0.000 A 
ATOM     30  C   UNL     1       0.924   3.275  20.646  0.00  0.00    +0.000 A 
ATOM     31  C   UNL     1       1.773   2.554  21.472  0.00  0.00    +0.000 A 
ATOM     32  C   UNL     1       3.132   2.504  21.171  0.00  0.00    +0.000 A 
ATOM     33  N   UNL     1       3.667   3.157  20.066  0.00  0.00    +0.000 N 
ATOM     34  O   UNL     1       4.905   3.045  19.818  0.00  0.00    +0.000 OA
ENDBRANCH  25  28
ENDBRANCH  24  25
ENDBRANCH   7  24
TORSDOF 7
ENDMDL
MODEL 3
REMARK VINA RESULT:      -8.2      3.348      4.618
REMARK  Name = 
REMARK  8 active torsions:
REMARK  status: ('A' for Active; 'I' for Inactive)
REMARK    1  A    between atoms: C_1  and  C_2
REMARK    2  A    between atoms: C_7  and  C_8
REMARK    3  A    between atoms: C_8  and  N_9
REMARK    4  A    between atoms: C_10  and  C_12
REMARK    5  A    between atoms: C_12  and  N_13
REMARK    6  A    between atoms: N_19  and  C_20
REMARK    7  A    between atoms: C_20  and  C_21
REMARK    8  A    between atoms: C_21  and  C_24
REMARK                            x       y       z     vdW  Elec       q    Type
REMARK                         _______ _______ _______ _____ _____    ______ ____
ROOT
ATOM      1  N   UNL     1       1.084   9.505  19.362  0.00  0.00    +0.000 N 
ATOM      2  C   UNL     1       0.916   8.915  20.599  0.00  0.00    +0.000 A 
ATOM      3 CL   UNL     1      -0.061   9.695  21.778  0.00  0.00    +0.000 Cl
ATOM      4  C   UNL     1       1.512   7.748  20.889  0.00  0.00    +0.000 A 
ATOM      5  N   UNL     1       2.291   7.016  20.035  0.00  0.00    +0.000 NA
ATOM      6  C   UNL     1       2.441   7.468  18.821  0.00  0.00    +0.000 A 
ATOM      7  N   UNL     1       3.175   6.767  17.878  0.00  0.00    +0.000 N 
ATOM      8  C   UNL     1       1.814   8.826  18.386  0.00  0.00    +0.000 A 
ATOM      9  O   UNL     1       2.039   9.230  17.251  0.00  0.00    +0.000 OA
ATOM     10  H   UNL     1       3.317   7.271  17.002  0.00  0.00    +0.000 HD
ENDROOT
BRANCH   1  11
ATOM     11  C   UNL     1       0.622  10.854  19.035  0.00  0.00    +0.000 C 
BRANCH  11  13
ATOM     12  N   UNL     1      -1.670  11.733  19.250  0.00  0.00    +0.000 N 
ATOM     13  C   UNL     1      -0.819  10.927  18.512  0.00  0.00    +0.000 C 
ATOM     14  O   UNL     1      -1.203  10.285  17.536  0.00  0.00    +0.000 OA
ATOM     15  H   UNL     1      -1.340  12.201  20.086  0.00  0.00    +0.000 HD
BRANCH  12  16
ATOM     16  C   UNL     1      -3.092  11.769  18.964  0.00  0.00    +0.000 C 
BRANCH  16  23
ATOM     17  C   UNL     1      -6.111  11.465  19.238  0.00  0.00    +0.000 C 
ATOM     18  C   UNL     1      -5.306  12.365  20.136  0.00  0.00    +0.000 A 
ATOM     19  C   UNL     1      -5.995  13.134  21.093  0.00  0.00    +0.000 A 
ATOM     20  C   UNL     1      -5.315  14.015  21.931  0.00  0.00    +0.000 A 
ATOM     21  C   UNL     1      -3.934  14.133  21.832  0.00  0.00    +0.000 A 
ATOM     22  C   UNL     1      -3.234  13.373  20.893  0.00  0.00    +0.000 A 
ATOM     23  C   UNL     1      -3.902  12.482  20.027  0.00  0.00    +0.000 A 
ENDBRANCH  16  23
ENDBRANCH  12  16
ENDBRANCH  11  13
ENDBRANCH   1  11
BRANCH   7  24
ATOM     24  C   UNL     1       4.300   5.900  18.275  0.00  0.00    +0.000 C 
BRANCH  24  25
ATOM     25  C   UNL     1       4.013   4.393  18.085  0.00  0.00    +0.000 C 
ATOM     26  F   UNL     1       3.548   4.258  16.791  0.00  0.00    +0.000 F 
ATOM     27  F   UNL     1       5.203   3.718  18.064  0.00  0.00    +0.000 F 
BRANCH  25  28
ATOM     28  C   UNL     1       3.043   3.807  19.064  0.00  0.00    +0.000 A 
ATOM     29  C   UNL     1       3.439   3.330  20.328  0.00  0.00    +0.000 A 
ATOM     30  C   UNL     1       2.499   2.814  21.215  0.00  0.00    +0.000 A 
ATOM     31  C   UNL     1       1.163   2.767  20.850  0.00  0.00    +0.000 A 
ATOM     32  C   UNL     1       0.783   3.253  19.601  0.00  0.00    +0.000 A 
ATOM     33  N   UNL     1       1.705   3.786  18.706  0.00  0.00    +0.000 N 
ATOM     34  O   UNL     1       1.298   4.250  17.599  0.00  0.00    +0.000 OA
ENDBRANCH  25  28
ENDBRANCH  24  25
ENDBRANCH   7  24
TORSDOF 7
ENDMDL
MODEL 4
REMARK VINA RESULT:      -8.1      3.211      4.483
REMARK  Name = 
REMARK  8 active torsions:
REMARK  status: ('A' for Active; 'I' for Inactive)
REMARK    1  A    between atoms: C_1  and  C_2
REMARK    2  A    between atoms: C_7  and  C_8
REMARK    3  A    between atoms: C_8  and  N_9
REMARK    4  A    between atoms: C_10  and  C_12
REMARK    5  A    between atoms: C_12  and  N_13
REMARK    6  A    between atoms: N_19  and  C_20
REMARK    7  A    between atoms: C_20  and  C_21
REMARK    8  A    between atoms: C_21  and  C_24
REMARK                            x       y       z     vdW  Elec       q    Type
REMARK                         _______ _______ _______ _____ _____    ______ ____
ROOT
ATOM      1  N   UNL     1       1.119  10.134  19.678  0.00  0.00    +0.000 N 
ATOM      2  C   UNL     1       0.873   9.498  20.879  0.00  0.00    +0.000 A 
ATOM      3 CL   UNL     1       0.116  10.370  22.153  0.00  0.00    +0.000 Cl
ATOM      4  C   UNL     1       1.225   8.216  21.062  0.00  0.00    +0.000 A 
ATOM      5  N   UNL     1       1.808   7.408  20.125  0.00  0.00    +0.000 NA
ATOM      6  C   UNL     1       2.010   7.910  18.939  0.00  0.00    +0.000 A 
ATOM      7  N   UNL     1       2.553   7.149  17.917  0.00  0.00    +0.000 N 
ATOM      8  C   UNL     1       1.663   9.397  18.627  0.00  0.00    +0.000 A 
ATOM      9  O   UNL     1       1.931   9.832  17.512  0.00  0.00    +0.000 OA
ATOM     10  H   UNL     1       2.769   7.679  17.071  0.00  0.00    +0.000 HD
ENDROOT
BRANCH   1  11
ATOM     11  C   UNL     1       0.936  11.570  19.466  0.00  0.00    +0.000 C 
BRANCH  11  13
ATOM     12  N   UNL     1      -1.450  11.100  19.070  0.00  0.00    +0.000 N 
ATOM     13  C   UNL     1      -0.393  11.953  18.801  0.00  0.00    +0.000 C 
ATOM     14  O   UNL     1      -0.504  12.920  18.050  0.00  0.00    +0.000 OA
ATOM     15  H   UNL     1      -1.313  10.275  19.643  0.00  0.00    +0.000 HD
BRANCH  12  16
ATOM     16  C   UNL     1      -2.720  11.251  18.383  0.00  0.00    +0.000 C 
BRANCH  16  23
ATOM     17  C   UNL     1      -5.671  11.328  17.633  0.00  0.00    +0.000 C 
ATOM     18  C   UNL     1      -5.126  12.049  18.835  0.00  0.00    +0.000 A 
ATOM     19  C   UNL     1      -6.013  12.833  19.597  0.00  0.00    +0.000 A 
ATOM     20  C   UNL     1      -5.566  13.556  20.700  0.00  0.00    +0.000 A 
ATOM     21  C   UNL     1      -4.227  13.498  21.067  0.00  0.00    +0.000 A 
ATOM     22  C   UNL     1      -3.334  12.720  20.326  0.00  0.00    +0.000 A 
ATOM     23  C   UNL     1      -3.761  11.988  19.199  0.00  0.00    +0.000 A 
ENDBRANCH  16  23
ENDBRANCH  12  16
ENDBRANCH  11  13
ENDBRANCH   1  11
BRANCH   7  24
ATOM     24  C   UNL     1       3.488   6.044  18.201  0.00  0.00    +0.000 C 
BRANCH  24  25
ATOM     25  C   UNL     1       2.856   4.644  18.029  0.00  0.00    +0.000 C 
ATOM     26  F   UNL     1       1.690   4.842  17.315  0.00  0.00    +0.000 F 
ATOM     27  F   UNL     1       3.630   3.914  17.169  0.00  0.00    +0.000 F 
BRANCH  25  28
ATOM     28  C   UNL     1       2.580   3.913  19.307  0.00  0.00    +0.000 A 
ATOM     29  C   UNL     1       1.283   3.788  19.842  0.00  0.00    +0.000 A 
ATOM     30  C   UNL     1       1.070   3.082  21.021  0.00  0.00    +0.000 A 
ATOM     31  C   UNL     1       2.143   2.497  21.675  0.00  0.00    +0.000 A 
ATOM     32  C   UNL     1       3.418   2.618  21.129  0.00  0.00    +0.000 A 
ATOM     33  N   UNL     1       3.650   3.309  19.944  0.00  0.00    +0.000 N 
ATOM     34  O   UNL     1       4.826   3.353  19.472  0.00  0.00    +0.000 OA
ENDBRANCH  25  28
ENDBRANCH  24  25
ENDBRANCH   7  24
TORSDOF 7
ENDMDL
MODEL 5
REMARK VINA RESULT:      -8.1      1.693      2.351
REMARK  Name = 
REMARK  8 active torsions:
REMARK  status: ('A' for Active; 'I' for Inactive)
REMARK    1  A    between atoms: C_1  and  C_2
REMARK    2  A    between atoms: C_7  and  C_8
REMARK    3  A    between atoms: C_8  and  N_9
REMARK    4  A    between atoms: C_10  and  C_12
REMARK    5  A    between atoms: C_12  and  N_13
REMARK    6  A    between atoms: N_19  and  C_20
REMARK    7  A    between atoms: C_20  and  C_21
REMARK    8  A    between atoms: C_21  and  C_24
REMARK                            x       y       z     vdW  Elec       q    Type
REMARK                         _______ _______ _______ _____ _____    ______ ____
ROOT
ATOM      1  N   UNL     1       0.955   9.761  19.137  0.00  0.00    +0.000 N 
ATOM      2  C   UNL     1       0.561   9.462  20.426  0.00  0.00    +0.000 A 
ATOM      3 CL   UNL     1      -0.484  10.543  21.259  0.00  0.00    +0.000 Cl
ATOM      4  C   UNL     1       0.989   8.344  21.033  0.00  0.00    +0.000 A 
ATOM      5  N   UNL     1       1.799   7.393  20.474  0.00  0.00    +0.000 NA
ATOM      6  C   UNL     1       2.158   7.564  19.232  0.00  0.00    +0.000 A 
ATOM      7  N   UNL     1       2.939   6.628  18.573  0.00  0.00    +0.000 N 
ATOM      8  C   UNL     1       1.738   8.840  18.442  0.00  0.00    +0.000 A 
ATOM      9  O   UNL     1       2.157   8.976  17.298  0.00  0.00    +0.000 OA
ATOM     10  H   UNL     1       3.250   6.923  17.647  0.00  0.00    +0.000 HD
ENDROOT
BRANCH   1  11
ATOM     11  C   UNL     1       0.683  11.040  18.479  0.00  0.00    +0.000 C 
BRANCH  11  13
ATOM     12  N   UNL     1       1.542  12.994  19.709  0.00  0.00    +0.000 N 
ATOM     13  C   UNL     1       1.772  12.103  18.675  0.00  0.00    +0.000 C 
ATOM     14  O   UNL     1       2.755  12.186  17.940  0.00  0.00    +0.000 OA
ATOM     15  H   UNL     1       0.692  12.938  20.258  0.00  0.00    +0.000 HD
BRANCH  12  16
ATOM     16  C   UNL     1       2.408  14.143  19.906  0.00  0.00    +0.000 C 
BRANCH  16  23
ATOM     17  C   UNL     1       4.277  15.306  17.800  0.00  0.00    +0.000 C 
ATOM     18  C   UNL     1       2.918  15.887  18.081  0.00  0.00    +0.000 A 
ATOM     19  C   UNL     1       2.534  17.047  17.381  0.00  0.00    +0.000 A 
ATOM     20  C   UNL     1       1.306  17.657  17.621  0.00  0.00    +0.000 A 
ATOM     21  C   UNL     1       0.436  17.112  18.557  0.00  0.00    +0.000 A 
ATOM     22  C   UNL     1       0.797  15.958  19.256  0.00  0.00    +0.000 A 
ATOM     23  C   UNL     1       2.039  15.328  19.038  0.00  0.00    +0.000 A 
ENDBRANCH  16  23
ENDBRANCH  12  16
ENDBRANCH  11  13
ENDBRANCH   1  11
BRANCH   7  24
ATOM     24  C   UNL     1       3.905   5.788  19.305  0.00  0.00    +0.000 C 
BRANCH  24  25
ATOM     25  C   UNL     1       4.132   4.403  18.656  0.00  0.00    +0.000 C 
ATOM     26  F   UNL     1       4.505   3.561  19.685  0.00  0.00    +0.000 F 
ATOM     27  F   UNL     1       2.923   3.900  18.259  0.00  0.00    +0.000 F 
BRANCH  25  28
ATOM     28  C   UNL     1       5.148   4.381  17.556  0.00  0.00    +0.000 A 
ATOM     29  C   UNL     1       4.791   4.237  16.201  0.00  0.00    +0.000 A 
ATOM     30  C   UNL     1       5.767   4.244  15.208  0.00  0.00    +0.000 A 
ATOM     31  C   UNL     1       7.101   4.391  15.558  0.00  0.00    +0.000 A 
ATOM     32  C   UNL     1       7.437   4.545  16.900  0.00  0.00    +0.000 A 
ATOM     33  N   UNL     1       6.476   4.555  17.905  0.00  0.00    +0.000 N 
ATOM     34  O   UNL     1       6.837   4.737  19.107  0.00  0.00    +0.000 OA
ENDBRANCH  25  28
ENDBRANCH  24  25
ENDBRANCH   7  24
TORSDOF 7
ENDMDL
MODEL 6
REMARK VINA RESULT:      -8.0      1.939      2.944
REMARK  Name = 
REMARK  8 active torsions:
REMARK  status: ('A' for Active; 'I' for Inactive)
REMARK    1  A    between atoms: C_1  and  C_2
REMARK    2  A    between atoms: C_7  and  C_8
REMARK    3  A    between atoms: C_8  and  N_9
REMARK    4  A    between atoms: C_10  and  C_12
REMARK    5  A    between atoms: C_12  and  N_13
REMARK    6  A    between atoms: N_19  and  C_20
REMARK    7  A    between atoms: C_20  and  C_21
REMARK    8  A    between atoms: C_21  and  C_24
REMARK                            x       y       z     vdW  Elec       q    Type
REMARK                         _______ _______ _______ _____ _____    ______ ____
ROOT
ATOM      1  N   UNL     1       0.807   9.986  19.586  0.00  0.00    +0.000 N 
ATOM      2  C   UNL     1       0.540   9.857  20.935  0.00  0.00    +0.000 A 
ATOM      3 CL   UNL     1      -0.268  11.130  21.759  0.00  0.00    +0.000 Cl
ATOM      4  C   UNL     1       0.911   8.754  21.605  0.00  0.00    +0.000 A 
ATOM      5  N   UNL     1       1.535   7.664  21.064  0.00  0.00    +0.000 NA
ATOM      6  C   UNL     1       1.759   7.675  19.779  0.00  0.00    +0.000 A 
ATOM      7  N   UNL     1       2.344   6.594  19.141  0.00  0.00    +0.000 N 
ATOM      8  C   UNL     1       1.393   8.916  18.911  0.00  0.00    +0.000 A 
ATOM      9  O   UNL     1       1.682   8.894  17.719  0.00  0.00    +0.000 OA
ATOM     10  H   UNL     1       2.573   6.762  18.160  0.00  0.00    +0.000 HD
ENDROOT
BRANCH   1  11
ATOM     11  C   UNL     1       0.602  11.223  18.832  0.00  0.00    +0.000 C 
BRANCH  11  13
ATOM     12  N   UNL     1       1.739  13.160  19.845  0.00  0.00    +0.000 N 
ATOM     13  C   UNL     1       1.793  12.191  18.857  0.00  0.00    +0.000 C 
ATOM     14  O   UNL     1       2.706  12.139  18.036  0.00  0.00    +0.000 OA
ATOM     15  H   UNL     1       0.943  13.216  20.469  0.00  0.00    +0.000 HD
BRANCH  12  16
ATOM     16  C   UNL     1       2.715  14.234  19.885  0.00  0.00    +0.000 C 
BRANCH  16  23
ATOM     17  C   UNL     1       4.669  15.155  17.738  0.00  0.00    +0.000 C 
ATOM     18  C   UNL     1       3.329  15.808  17.942  0.00  0.00    +0.000 A 
ATOM     19  C   UNL     1       3.005  16.923  17.145  0.00  0.00    +0.000 A 
ATOM     20  C   UNL     1       1.797  17.596  17.308  0.00  0.00    +0.000 A 
ATOM     21  C   UNL     1       0.888  17.159  18.264  0.00  0.00    +0.000 A 
ATOM     22  C   UNL     1       1.190  16.051  19.059  0.00  0.00    +0.000 A 
ATOM     23  C   UNL     1       2.411  15.360  18.919  0.00  0.00    +0.000 A 
ENDBRANCH  16  23
ENDBRANCH  12  16
ENDBRANCH  11  13
ENDBRANCH   1  11
BRANCH   7  24
ATOM     24  C   UNL     1       3.292   5.711  19.848  0.00  0.00    +0.000 C 
BRANCH  24  25
ATOM     25  C   UNL     1       4.259   4.963  18.901  0.00  0.00    +0.000 C 
ATOM     26  F   UNL     1       4.541   3.762  19.522  0.00  0.00    +0.000 F 
ATOM     27  F   UNL     1       3.572   4.584  17.780  0.00  0.00    +0.000 F 
BRANCH  25  28
ATOM     28  C   UNL     1       5.520   5.702  18.574  0.00  0.00    +0.000 A 
ATOM     29  C   UNL     1       6.738   5.449  19.235  0.00  0.00    +0.000 A 
ATOM     30  C   UNL     1       7.891   6.144  18.883  0.00  0.00    +0.000 A 
ATOM     31  C   UNL     1       7.839   7.095  17.876  0.00  0.00    +0.000 A 
ATOM     32  C   UNL     1       6.631   7.327  17.224  0.00  0.00    +0.000 A 
ATOM     33  N   UNL     1       5.471   6.633  17.550  0.00  0.00    +0.000 N 
ATOM     34  O   UNL     1       4.409   6.857  16.896  0.00  0.00    +0.000 OA
ENDBRANCH  25  28
ENDBRANCH  24  25
ENDBRANCH   7  24
TORSDOF 7
ENDMDL
MODEL 7
REMARK VINA RESULT:      -7.9      3.062      4.169
REMARK  Name = 
REMARK  8 active torsions:
REMARK  status: ('A' for Active; 'I' for Inactive)
REMARK    1  A    between atoms: C_1  and  C_2
REMARK    2  A    between atoms: C_7  and  C_8
REMARK    3  A    between atoms: C_8  and  N_9
REMARK    4  A    between atoms: C_10  and  C_12
REMARK    5  A    between atoms: C_12  and  N_13
REMARK    6  A    between atoms: N_19  and  C_20
REMARK    7  A    between atoms: C_20  and  C_21
REMARK    8  A    between atoms: C_21  and  C_24
REMARK                            x       y       z     vdW  Elec       q    Type
REMARK                         _______ _______ _______ _____ _____    ______ ____
ROOT
ATOM      1  N   UNL     1       1.413   9.040  19.335  0.00  0.00    +0.000 N 
ATOM      2  C   UNL     1       1.328   8.213  20.438  0.00  0.00    +0.000 A 
ATOM      3 CL   UNL     1       0.295   8.650  21.739  0.00  0.00    +0.000 Cl
ATOM      4  C   UNL     1       2.047   7.081  20.504  0.00  0.00    +0.000 A 
ATOM      5  N   UNL     1       2.884   6.609  19.530  0.00  0.00    +0.000 NA
ATOM      6  C   UNL     1       2.966   7.295  18.424  0.00  0.00    +0.000 A 
ATOM      7  N   UNL     1       3.753   6.866  17.368  0.00  0.00    +0.000 N 
ATOM      8  C   UNL     1       2.194   8.638  18.252  0.00  0.00    +0.000 A 
ATOM      9  O   UNL     1       2.358   9.270  17.214  0.00  0.00    +0.000 OA
ATOM     10  H   UNL     1       3.828   7.539  16.603  0.00  0.00    +0.000 HD
ENDROOT
BRANCH   1  11
ATOM     11  C   UNL     1       0.809  10.371  19.268  0.00  0.00    +0.000 C 
BRANCH  11  13
ATOM     12  N   UNL     1      -1.009  11.630  18.181  0.00  0.00    +0.000 N 
ATOM     13  C   UNL     1      -0.606  10.400  18.674  0.00  0.00    +0.000 C 
ATOM     14  O   UNL     1      -1.345   9.418  18.674  0.00  0.00    +0.000 OA
ATOM     15  H   UNL     1      -0.400  12.437  18.252  0.00  0.00    +0.000 HD
BRANCH  12  16
ATOM     16  C   UNL     1      -2.375  11.841  17.737  0.00  0.00    +0.000 C 
BRANCH  16  23
ATOM     17  C   UNL     1      -5.365  11.322  17.482  0.00  0.00    +0.000 C 
ATOM     18  C   UNL     1      -4.743  11.845  18.748  0.00  0.00    +0.000 A 
ATOM     19  C   UNL     1      -5.593  12.158  19.825  0.00  0.00    +0.000 A 
ATOM     20  C   UNL     1      -5.086  12.681  21.012  0.00  0.00    +0.000 A 
ATOM     21  C   UNL     1      -3.719  12.889  21.146  0.00  0.00    +0.000 A 
ATOM     22  C   UNL     1      -2.859  12.577  20.090  0.00  0.00    +0.000 A 
ATOM     23  C   UNL     1      -3.351  12.057  18.875  0.00  0.00    +0.000 A 
ENDBRANCH  16  23
ENDBRANCH  12  16
ENDBRANCH  11  13
ENDBRANCH   1  11
BRANCH   7  24
ATOM     24  C   UNL     1       4.969   6.063  17.598  0.00  0.00    +0.000 C 
BRANCH  24  25
ATOM     25  C   UNL     1       4.848   4.606  17.094  0.00  0.00    +0.000 C 
ATOM     26  F   UNL     1       4.481   4.696  15.766  0.00  0.00    +0.000 F 
ATOM     27  F   UNL     1       6.100   4.055  17.038  0.00  0.00    +0.000 F 
BRANCH  25  28
ATOM     28  C   UNL     1       3.884   3.752  17.857  0.00  0.00    +0.000 A 
ATOM     29  C   UNL     1       2.628   3.382  17.338  0.00  0.00    +0.000 A 
ATOM     30  C   UNL     1       1.771   2.567  18.073  0.00  0.00    +0.000 A 
ATOM     31  C   UNL     1       2.158   2.119  19.327  0.00  0.00    +0.000 A 
ATOM     32  C   UNL     1       3.407   2.483  19.822  0.00  0.00    +0.000 A 
ATOM     33  N   UNL     1       4.283   3.285  19.098  0.00  0.00    +0.000 N 
ATOM     34  O   UNL     1       5.423   3.552  19.582  0.00  0.00    +0.000 OA
ENDBRANCH  25  28
ENDBRANCH  24  25
ENDBRANCH   7  24
TORSDOF 7
ENDMDL
MODEL 8
REMARK VINA RESULT:      -7.9      1.976      2.488
REMARK  Name = 
REMARK  8 active torsions:
REMARK  status: ('A' for Active; 'I' for Inactive)
REMARK    1  A    between atoms: C_1  and  C_2
REMARK    2  A    between atoms: C_7  and  C_8
REMARK    3  A    between atoms: C_8  and  N_9
REMARK    4  A    between atoms: C_10  and  C_12
REMARK    5  A    between atoms: C_12  and  N_13
REMARK    6  A    between atoms: N_19  and  C_20
REMARK    7  A    between atoms: C_20  and  C_21
REMARK    8  A    between atoms: C_21  and  C_24
REMARK                            x       y       z     vdW  Elec       q    Type
REMARK                         _______ _______ _______ _____ _____    ______ ____
ROOT
ATOM      1  N   UNL     1       1.099   9.714  19.248  0.00  0.00    +0.000 N 
ATOM      2  C   UNL     1       0.913   9.287  20.548  0.00  0.00    +0.000 A 
ATOM      3 CL   UNL     1       0.032  10.278  21.641  0.00  0.00    +0.000 Cl
ATOM      4  C   UNL     1       1.418   8.115  20.964  0.00  0.00    +0.000 A 
ATOM      5  N   UNL     1       2.114   7.226  20.191  0.00  0.00    +0.000 NA
ATOM      6  C   UNL     1       2.271   7.521  18.930  0.00  0.00    +0.000 A 
ATOM      7  N   UNL     1       2.922   6.657  18.065  0.00  0.00    +0.000 N 
ATOM      8  C   UNL     1       1.747   8.868  18.349  0.00  0.00    +0.000 A 
ATOM      9  O   UNL     1       1.978   9.118  17.170  0.00  0.00    +0.000 OA
ATOM     10  H   UNL     1       3.085   7.043  17.134  0.00  0.00    +0.000 HD
ENDROOT
BRANCH   1  11
ATOM     11  C   UNL     1       0.742  11.051  18.772  0.00  0.00    +0.000 C 
BRANCH  11  13
ATOM     12  N   UNL     1       1.828  12.970  19.871  0.00  0.00    +0.000 N 
ATOM     13  C   UNL     1       1.887  12.072  18.819  0.00  0.00    +0.000 C 
ATOM     14  O   UNL     1       2.768  12.119  17.963  0.00  0.00    +0.000 OA
ATOM     15  H   UNL     1       1.055  12.946  20.526  0.00  0.00    +0.000 HD
BRANCH  12  16
ATOM     16  C   UNL     1       2.754  14.085  19.949  0.00  0.00    +0.000 C 
BRANCH  16  23
ATOM     17  C   UNL     1       4.639  15.128  17.795  0.00  0.00    +0.000 C 
ATOM     18  C   UNL     1       3.284  15.732  18.042  0.00  0.00    +0.000 A 
ATOM     19  C   UNL     1       2.911  16.859  17.283  0.00  0.00    +0.000 A 
ATOM     20  C   UNL     1       1.687  17.489  17.487  0.00  0.00    +0.000 A 
ATOM     21  C   UNL     1       0.809  16.997  18.445  0.00  0.00    +0.000 A 
ATOM     22  C   UNL     1       1.159  15.877  19.203  0.00  0.00    +0.000 A 
ATOM     23  C   UNL     1       2.397  15.228  19.021  0.00  0.00    +0.000 A 
ENDBRANCH  16  23
ENDBRANCH  12  16
ENDBRANCH  11  13
ENDBRANCH   1  11
BRANCH   7  24
ATOM     24  C   UNL     1       3.982   5.750  18.545  0.00  0.00    +0.000 C 
BRANCH  24  25
ATOM     25  C   UNL     1       5.372   6.052  17.939  0.00  0.00    +0.000 C 
ATOM     26  F   UNL     1       5.389   7.413  17.699  0.00  0.00    +0.000 F 
ATOM     27  F   UNL     1       6.320   5.893  18.913  0.00  0.00    +0.000 F 
BRANCH  25  28
ATOM     28  C   UNL     1       5.699   5.287  16.695  0.00  0.00    +0.000 A 
ATOM     29  C   UNL     1       4.848   4.293  16.173  0.00  0.00    +0.000 A 
ATOM     30  C   UNL     1       5.181   3.622  15.000  0.00  0.00    +0.000 A 
ATOM     31  C   UNL     1       6.361   3.934  14.341  0.00  0.00    +0.000 A 
ATOM     32  C   UNL     1       7.186   4.927  14.862  0.00  0.00    +0.000 A 
ATOM     33  N   UNL     1       6.864   5.619  16.025  0.00  0.00    +0.000 N 
ATOM     34  O   UNL     1       7.634   6.541  16.431  0.00  0.00    +0.000 OA
ENDBRANCH  25  28
ENDBRANCH  24  25
ENDBRANCH   7  24
TORSDOF 7
ENDMDL
MODEL 9
REMARK VINA RESULT:      -7.9      3.390      4.456
REMARK  Name = 
REMARK  8 active torsions:
REMARK  status: ('A' for Active; 'I' for Inactive)
REMARK    1  A    between atoms: C_1  and  C_2
REMARK    2  A    between atoms: C_7  and  C_8
REMARK    3  A    between atoms: C_8  and  N_9
REMARK    4  A    between atoms: C_10  and  C_12
REMARK    5  A    between atoms: C_12  and  N_13
REMARK    6  A    between atoms: N_19  and  C_20
REMARK    7  A    between atoms: C_20  and  C_21
REMARK    8  A    between atoms: C_21  and  C_24
REMARK                            x       y       z     vdW  Elec       q    Type
REMARK                         _______ _______ _______ _____ _____    ______ ____
ROOT
ATOM      1  N   UNL     1       0.521   9.240  20.057  0.00  0.00    +0.000 N 
ATOM      2  C   UNL     1       0.491   9.904  18.847  0.00  0.00    +0.000 A 
ATOM      3 CL   UNL     1      -0.531  11.274  18.664  0.00  0.00    +0.000 Cl
ATOM      4  C   UNL     1       1.243   9.487  17.816  0.00  0.00    +0.000 A 
ATOM      5  N   UNL     1       2.112   8.431  17.839  0.00  0.00    +0.000 NA
ATOM      6  C   UNL     1       2.254   7.793  18.967  0.00  0.00    +0.000 A 
ATOM      7  N   UNL     1       3.147   6.742  19.092  0.00  0.00    +0.000 N 
ATOM      8  C   UNL     1       1.411   8.178  20.219  0.00  0.00    +0.000 A 
ATOM      9  O   UNL     1       1.542   7.504  21.236  0.00  0.00    +0.000 OA
ATOM     10  H   UNL     1       3.089   6.249  19.985  0.00  0.00    +0.000 HD
ENDROOT
BRANCH   1  11
ATOM     11  C   UNL     1      -0.398   9.518  21.161  0.00  0.00    +0.000 C 
BRANCH  11  13
ATOM     12  N   UNL     1      -1.243  11.319  22.615  0.00  0.00    +0.000 N 
ATOM     13  C   UNL     1      -0.180  10.874  21.848  0.00  0.00    +0.000 C 
ATOM     14  O   UNL     1       0.843  11.537  21.694  0.00  0.00    +0.000 OA
ATOM     15  H   UNL     1      -2.098  10.779  22.673  0.00  0.00    +0.000 HD
BRANCH  12  16
ATOM     16  C   UNL     1      -1.236  12.651  23.191  0.00  0.00    +0.000 C 
BRANCH  16  23
ATOM     17  C   UNL     1      -4.037  12.718  24.388  0.00  0.00    +0.000 C 
ATOM     18  C   UNL     1      -3.649  13.550  23.196  0.00  0.00    +0.000 A 
ATOM     19  C   UNL     1      -4.644  14.338  22.585  0.00  0.00    +0.000 A 
ATOM     20  C   UNL     1      -4.362  15.102  21.456  0.00  0.00    +0.000 A 
ATOM     21  C   UNL     1      -3.078  15.101  20.926  0.00  0.00    +0.000 A 
ATOM     22  C   UNL     1      -2.077  14.331  21.523  0.00  0.00    +0.000 A 
ATOM     23  C   UNL     1      -2.341  13.541  22.660  0.00  0.00    +0.000 A 
ENDBRANCH  16  23
ENDBRANCH  12  16
ENDBRANCH  11  13
ENDBRANCH   1  11
BRANCH   7  24
ATOM     24  C   UNL     1       3.483   5.883  17.941  0.00  0.00    +0.000 C 
BRANCH  24  25
ATOM     25  C   UNL     1       2.652   4.582  17.880  0.00  0.00    +0.000 C 
ATOM     26  F   UNL     1       1.434   4.938  17.334  0.00  0.00    +0.000 F 
ATOM     27  F   UNL     1       3.193   3.757  16.931  0.00  0.00    +0.000 F 
BRANCH  25  28
ATOM     28  C   UNL     1       2.464   3.890  19.195  0.00  0.00    +0.000 A 
ATOM     29  C   UNL     1       1.216   3.828  19.845  0.00  0.00    +0.000 A 
ATOM     30  C   UNL     1       1.082   3.155  21.056  0.00  0.00    +0.000 A 
ATOM     31  C   UNL     1       2.187   2.543  21.627  0.00  0.00    +0.000 A 
ATOM     32  C   UNL     1       3.412   2.602  20.967  0.00  0.00    +0.000 A 
ATOM     33  N   UNL     1       3.563   3.257  19.750  0.00  0.00    +0.000 N 
ATOM     34  O   UNL     1       4.693   3.246  19.175  0.00  0.00    +0.000 OA
ENDBRANCH  25  28
ENDBRANCH  24  25
ENDBRANCH   7  24
TORSDOF 7
ENDMDL
