MODEL 1
REMARK VINA RESULT:      -8.9      0.000      0.000
REMARK  Name = 
REMARK  3 active torsions:
REMARK  status: ('A' for Active; 'I' for Inactive)
REMARK    1  A    between atoms: C_1  and  C_2
REMARK    2  A    between atoms: C_4  and  C_5
REMARK    3  A    between atoms: C_5  and  N_6
REMARK                            x       y       z     vdW  Elec       q    Type
REMARK                         _______ _______ _______ _____ _____    ______ ____
ROOT
ATOM      1  N   UNL     1       5.039   5.443  18.181  0.00  0.00    +0.000 N 
ATOM      2  C   UNL     1       5.792   4.427  18.741  0.00  0.00    +0.000 A 
ATOM      3  O   UNL     1       7.012   4.318  18.625  0.00  0.00    +0.000 OA
ATOM      4  N   UNL     1       5.115   3.481  19.457  0.00  0.00    +0.000 N 
ATOM      5  C   UNL     1       3.750   3.532  19.713  0.00  0.00    +0.000 A 
ATOM      6  C   UNL     1       3.155   2.566  20.523  0.00  0.00    +0.000 A 
ATOM      7  C   UNL     1       1.798   2.670  20.836  0.00  0.00    +0.000 A 
ATOM      8  C   UNL     1       1.037   3.723  20.325  0.00  0.00    +0.000 A 
ATOM      9  C   UNL     1       1.628   4.670  19.486  0.00  0.00    +0.000 A 
ATOM     10  C   UNL     1       2.991   4.571  19.187  0.00  0.00    +0.000 A 
ATOM     11  C   UNL     1       3.660   5.566  18.327  0.00  0.00    +0.000 A 
ATOM     12  O   UNL     1       2.990   6.448  17.797  0.00  0.00    +0.000 OA
ATOM     13  H   UNL     1       5.689   2.744  19.849  0.00  0.00    +0.000 HD
ENDROOT
BRANCH   1  14
ATOM     14  C   UNL     1       5.731   6.421  17.352  0.00  0.00    +0.000 C 
BRANCH  14  18
ATOM     15  C   UNL     1       6.345   3.738  13.043  0.00  0.00    +0.000 C 
ATOM     16  C   UNL     1       6.380   4.627  14.216  0.00  0.00    +0.000 A 
ATOM     17  C   UNL     1       5.453   5.023  15.146  0.00  0.00    +0.000 A 
ATOM     18  C   UNL     1       6.187   5.820  16.060  0.00  0.00    +0.000 A 
ATOM     19  N   UNL     1       7.467   5.928  15.677  0.00  0.00    +0.000 NA
ATOM     20  O   UNL     1       7.582   5.183  14.517  0.00  0.00    +0.000 OA
ENDBRANCH  14  18
ENDBRANCH   1  14
TORSDOF 2
ENDMDL
MODEL 2
REMARK VINA RESULT:      -8.5      0.937      2.205
REMARK  Name = 
REMARK  3 active torsions:
REMARK  status: ('A' for Active; 'I' for Inactive)
REMARK    1  A    between atoms: C_1  and  C_2
REMARK    2  A    between atoms: C_4  and  C_5
REMARK    3  A    between atoms: C_5  and  N_6
REMARK                            x       y       z     vdW  Elec       q    Type
REMARK                         _______ _______ _______ _____ _____    ______ ____
ROOT
ATOM      1  N   UNL     1       4.752   5.849  18.333  0.00  0.00    +0.000 N 
ATOM      2  C   UNL     1       3.586   6.563  18.129  0.00  0.00    +0.000 A 
ATOM      3  O   UNL     1       3.510   7.599  17.468  0.00  0.00    +0.000 OA
ATOM      4  N   UNL     1       2.455   6.079  18.722  0.00  0.00    +0.000 N 
ATOM      5  C   UNL     1       2.403   4.888  19.434  0.00  0.00    +0.000 A 
ATOM      6  C   UNL     1       1.186   4.428  19.936  0.00  0.00    +0.000 A 
ATOM      7  C   UNL     1       1.131   3.192  20.585  0.00  0.00    +0.000 A 
ATOM      8  C   UNL     1       2.291   2.432  20.748  0.00  0.00    +0.000 A 
ATOM      9  C   UNL     1       3.514   2.912  20.275  0.00  0.00    +0.000 A 
ATOM     10  C   UNL     1       3.562   4.142  19.612  0.00  0.00    +0.000 A 
ATOM     11  C   UNL     1       4.829   4.672  19.072  0.00  0.00    +0.000 A 
ATOM     12  O   UNL     1       5.872   4.060  19.283  0.00  0.00    +0.000 OA
ATOM     13  H   UNL     1       1.617   6.626  18.562  0.00  0.00    +0.000 HD
ENDROOT
BRANCH   1  14
ATOM     14  C   UNL     1       5.984   6.387  17.771  0.00  0.00    +0.000 C 
BRANCH  14  18
ATOM     15  C   UNL     1       6.047   3.761  13.385  0.00  0.00    +0.000 C 
ATOM     16  C   UNL     1       6.230   4.635  14.555  0.00  0.00    +0.000 A 
ATOM     17  C   UNL     1       5.430   5.015  15.602  0.00  0.00    +0.000 A 
ATOM     18  C   UNL     1       6.272   5.804  16.423  0.00  0.00    +0.000 A 
ATOM     19  N   UNL     1       7.492   5.924  15.880  0.00  0.00    +0.000 NA
ATOM     20  O   UNL     1       7.458   5.194  14.705  0.00  0.00    +0.000 OA
ENDBRANCH  14  18
ENDBRANCH   1  14
TORSDOF 2
ENDMDL
MODEL 3
REMARK VINA RESULT:      -7.9      2.123      3.295
REMARK  Name = 
REMARK  3 active torsions:
REMARK  status: ('A' for Active; 'I' for Inactive)
REMARK    1  A    between atoms: C_1  and  C_2
REMARK    2  A    between atoms: C_4  and  C_5
REMARK    3  A    between atoms: C_5  and  N_6
REMARK                            x       y       z     vdW  Elec       q    Type
REMARK                         _______ _______ _______ _____ _____    ______ ____
ROOT
ATOM      1  N   UNL     1       5.604   4.306  17.780  0.00  0.00    +0.000 N 
ATOM      2  C   UNL     1       4.837   3.970  16.679  0.00  0.00    +0.000 A 
ATOM      3  O   UNL     1       5.281   3.818  15.541  0.00  0.00    +0.000 OA
ATOM      4  N   UNL     1       3.496   3.816  16.885  0.00  0.00    +0.000 N 
ATOM      5  C   UNL     1       2.889   3.897  18.132  0.00  0.00    +0.000 A 
ATOM      6  C   UNL     1       1.524   3.644  18.262  0.00  0.00    +0.000 A 
ATOM      7  C   UNL     1       0.939   3.653  19.531  0.00  0.00    +0.000 A 
ATOM      8  C   UNL     1       1.712   3.933  20.659  0.00  0.00    +0.000 A 
ATOM      9  C   UNL     1       3.072   4.219  20.522  0.00  0.00    +0.000 A 
ATOM     10  C   UNL     1       3.657   4.195  19.252  0.00  0.00    +0.000 A 
ATOM     11  C   UNL     1       5.096   4.464  19.067  0.00  0.00    +0.000 A 
ATOM     12  O   UNL     1       5.773   4.798  20.035  0.00  0.00    +0.000 OA
ATOM     13  H   UNL     1       2.958   3.579  16.060  0.00  0.00    +0.000 HD
ENDROOT
BRANCH   1  14
ATOM     14  C   UNL     1       7.025   4.547  17.569  0.00  0.00    +0.000 C 
BRANCH  14  18
ATOM     15  C   UNL     1       8.395   9.409  18.358  0.00  0.00    +0.000 C 
ATOM     16  C   UNL     1       7.942   8.086  17.899  0.00  0.00    +0.000 A 
ATOM     17  C   UNL     1       8.118   6.804  18.351  0.00  0.00    +0.000 A 
ATOM     18  C   UNL     1       7.325   6.011  17.485  0.00  0.00    +0.000 A 
ATOM     19  N   UNL     1       6.742   6.769  16.546  0.00  0.00    +0.000 NA
ATOM     20  O   UNL     1       7.137   8.069  16.806  0.00  0.00    +0.000 OA
ENDBRANCH  14  18
ENDBRANCH   1  14
TORSDOF 2
ENDMDL
MODEL 4
REMARK VINA RESULT:      -7.8      1.489      2.468
REMARK  Name = 
REMARK  3 active torsions:
REMARK  status: ('A' for Active; 'I' for Inactive)
REMARK    1  A    between atoms: C_1  and  C_2
REMARK    2  A    between atoms: C_4  and  C_5
REMARK    3  A    between atoms: C_5  and  N_6
REMARK                            x       y       z     vdW  Elec       q    Type
REMARK                         _______ _______ _______ _____ _____    ______ ____
ROOT
ATOM      1  N   UNL     1       5.810   5.295  17.717  0.00  0.00    +0.000 N 
ATOM      2  C   UNL     1       5.305   6.529  17.349  0.00  0.00    +0.000 A 
ATOM      3  O   UNL     1       5.795   7.252  16.482  0.00  0.00    +0.000 OA
ATOM      4  N   UNL     1       4.195   6.964  18.016  0.00  0.00    +0.000 N 
ATOM      5  C   UNL     1       3.516   6.211  18.965  0.00  0.00    +0.000 A 
ATOM      6  C   UNL     1       2.342   6.702  19.536  0.00  0.00    +0.000 A 
ATOM      7  C   UNL     1       1.626   5.905  20.432  0.00  0.00    +0.000 A 
ATOM      8  C   UNL     1       2.093   4.633  20.770  0.00  0.00    +0.000 A 
ATOM      9  C   UNL     1       3.286   4.158  20.222  0.00  0.00    +0.000 A 
ATOM     10  C   UNL     1       3.993   4.953  19.313  0.00  0.00    +0.000 A 
ATOM     11  C   UNL     1       5.243   4.477  18.690  0.00  0.00    +0.000 A 
ATOM     12  O   UNL     1       5.715   3.399  19.041  0.00  0.00    +0.000 OA
ATOM     13  H   UNL     1       3.852   7.874  17.732  0.00  0.00    +0.000 HD
ENDROOT
BRANCH   1  14
ATOM     14  C   UNL     1       7.035   4.844  17.071  0.00  0.00    +0.000 C 
BRANCH  14  18
ATOM     15  C   UNL     1       5.832   3.286  12.352  0.00  0.00    +0.000 C 
ATOM     16  C   UNL     1       6.284   3.931  13.596  0.00  0.00    +0.000 A 
ATOM     17  C   UNL     1       5.951   3.799  14.919  0.00  0.00    +0.000 A 
ATOM     18  C   UNL     1       6.844   4.665  15.597  0.00  0.00    +0.000 A 
ATOM     19  N   UNL     1       7.636   5.308  14.728  0.00  0.00    +0.000 NA
ATOM     20  O   UNL     1       7.277   4.849  13.474  0.00  0.00    +0.000 OA
ENDBRANCH  14  18
ENDBRANCH   1  14
TORSDOF 2
ENDMDL
MODEL 5
REMARK VINA RESULT:      -7.5      2.472      5.943
REMARK  Name = 
REMARK  3 active torsions:
REMARK  status: ('A' for Active; 'I' for Inactive)
REMARK    1  A    between atoms: C_1  and  C_2
REMARK    2  A    between atoms: C_4  and  C_5
REMARK    3  A    between atoms: C_5  and  N_6
REMARK                            x       y       z     vdW  Elec       q    Type
REMARK                         _______ _______ _______ _____ _____    ______ ____
ROOT
ATOM      1  N   UNL     1       5.900   5.072  17.012  0.00  0.00    +0.000 N 
ATOM      2  C   UNL     1       7.044   5.820  16.798  0.00  0.00    +0.000 A 
ATOM      3  O   UNL     1       7.620   6.476  17.666  0.00  0.00    +0.000 OA
ATOM      4  N   UNL     1       7.544   5.831  15.527  0.00  0.00    +0.000 N 
ATOM      5  C   UNL     1       7.021   5.081  14.482  0.00  0.00    +0.000 A 
ATOM      6  C   UNL     1       7.646   5.089  13.235  0.00  0.00    +0.000 A 
ATOM      7  C   UNL     1       7.156   4.273  12.213  0.00  0.00    +0.000 A 
ATOM      8  C   UNL     1       6.036   3.468  12.432  0.00  0.00    +0.000 A 
ATOM      9  C   UNL     1       5.393   3.488  13.671  0.00  0.00    +0.000 A 
ATOM     10  C   UNL     1       5.895   4.295  14.696  0.00  0.00    +0.000 A 
ATOM     11  C   UNL     1       5.260   4.323  16.029  0.00  0.00    +0.000 A 
ATOM     12  O   UNL     1       4.224   3.691  16.212  0.00  0.00    +0.000 OA
ATOM     13  H   UNL     1       8.376   6.393  15.397  0.00  0.00    +0.000 HD
ENDROOT
BRANCH   1  14
ATOM     14  C   UNL     1       5.308   5.105  18.343  0.00  0.00    +0.000 C 
BRANCH  14  18
ATOM     15  C   UNL     1       1.936   8.912  17.817  0.00  0.00    +0.000 C 
ATOM     16  C   UNL     1       2.733   7.712  18.117  0.00  0.00    +0.000 A 
ATOM     17  C   UNL     1       3.824   7.118  17.537  0.00  0.00    +0.000 A 
ATOM     18  C   UNL     1       4.137   6.036  18.398  0.00  0.00    +0.000 A 
ATOM     19  N   UNL     1       3.260   5.963  19.409  0.00  0.00    +0.000 NA
ATOM     20  O   UNL     1       2.378   7.013  19.225  0.00  0.00    +0.000 OA
ENDBRANCH  14  18
ENDBRANCH   1  14
TORSDOF 2
ENDMDL
MODEL 6
REMARK VINA RESULT:      -7.5      1.776      2.598
REMARK  Name = 
REMARK  3 active torsions:
REMARK  status: ('A' for Active; 'I' for Inactive)
REMARK    1  A    between atoms: C_1  and  C_2
REMARK    2  A    between atoms: C_4  and  C_5
REMARK    3  A    between atoms: C_5  and  N_6
REMARK                            x       y       z     vdW  Elec       q    Type
REMARK                         _______ _______ _______ _____ _____    ______ ____
ROOT
ATOM      1  N   UNL     1       4.209   4.977  17.015  0.00  0.00    +0.000 N 
ATOM      2  C   UNL     1       4.657   3.669  16.988  0.00  0.00    +0.000 A 
ATOM      3  O   UNL     1       5.529   3.247  16.228  0.00  0.00    +0.000 OA
ATOM      4  N   UNL     1       4.069   2.797  17.860  0.00  0.00    +0.000 N 
ATOM      5  C   UNL     1       3.124   3.169  18.808  0.00  0.00    +0.000 A 
ATOM      6  C   UNL     1       2.637   2.228  19.714  0.00  0.00    +0.000 A 
ATOM      7  C   UNL     1       1.745   2.628  20.712  0.00  0.00    +0.000 A 
ATOM      8  C   UNL     1       1.328   3.959  20.788  0.00  0.00    +0.000 A 
ATOM      9  C   UNL     1       1.791   4.891  19.858  0.00  0.00    +0.000 A 
ATOM     10  C   UNL     1       2.696   4.490  18.870  0.00  0.00    +0.000 A 
ATOM     11  C   UNL     1       3.231   5.450  17.886  0.00  0.00    +0.000 A 
ATOM     12  O   UNL     1       2.808   6.603  17.882  0.00  0.00    +0.000 OA
ATOM     13  H   UNL     1       4.411   1.845  17.812  0.00  0.00    +0.000 HD
ENDROOT
BRANCH   1  14
ATOM     14  C   UNL     1       4.769   5.906  16.043  0.00  0.00    +0.000 C 
BRANCH  14  18
ATOM     15  C   UNL     1       8.337   8.894  18.162  0.00  0.00    +0.000 C 
ATOM     16  C   UNL     1       7.501   7.882  17.495  0.00  0.00    +0.000 A 
ATOM     17  C   UNL     1       6.161   7.595  17.497  0.00  0.00    +0.000 A 
ATOM     18  C   UNL     1       6.023   6.545  16.555  0.00  0.00    +0.000 A 
ATOM     19  N   UNL     1       7.215   6.197  16.051  0.00  0.00    +0.000 NA
ATOM     20  O   UNL     1       8.140   7.034  16.648  0.00  0.00    +0.000 OA
ENDBRANCH  14  18
ENDBRANCH   1  14
TORSDOF 2
ENDMDL
MODEL 7
REMARK VINA RESULT:      -7.5      2.124      3.390
REMARK  Name = 
REMARK  3 active torsions:
REMARK  status: ('A' for Active; 'I' for Inactive)
REMARK    1  A    between atoms: C_1  and  C_2
REMARK    2  A    between atoms: C_4  and  C_5
REMARK    3  A    between atoms: C_5  and  N_6
REMARK                            x       y       z     vdW  Elec       q    Type
REMARK                         _______ _______ _______ _____ _____    ______ ____
ROOT
ATOM      1  N   UNL     1       5.507   4.236  17.724  0.00  0.00    +0.000 N 
ATOM      2  C   UNL     1       4.688   4.238  16.610  0.00  0.00    +0.000 A 
ATOM      3  O   UNL     1       5.088   4.345  15.451  0.00  0.00    +0.000 OA
ATOM      4  N   UNL     1       3.345   4.127  16.832  0.00  0.00    +0.000 N 
ATOM      5  C   UNL     1       2.780   3.934  18.087  0.00  0.00    +0.000 A 
ATOM      6  C   UNL     1       1.404   3.748  18.211  0.00  0.00    +0.000 A 
ATOM      7  C   UNL     1       0.856   3.479  19.468  0.00  0.00    +0.000 A 
ATOM      8  C   UNL     1       1.678   3.417  20.594  0.00  0.00    +0.000 A 
ATOM      9  C   UNL     1       3.051   3.638  20.471  0.00  0.00    +0.000 A 
ATOM     10  C   UNL     1       3.599   3.892  19.209  0.00  0.00    +0.000 A 
ATOM     11  C   UNL     1       5.048   4.102  19.032  0.00  0.00    +0.000 A 
ATOM     12  O   UNL     1       5.774   4.139  20.021  0.00  0.00    +0.000 OA
ATOM     13  H   UNL     1       2.768   4.140  15.999  0.00  0.00    +0.000 HD
ENDROOT
BRANCH   1  14
ATOM     14  C   UNL     1       6.936   4.428  17.515  0.00  0.00    +0.000 C 
BRANCH  14  18
ATOM     15  C   UNL     1       8.117   9.399  17.711  0.00  0.00    +0.000 C 
ATOM     16  C   UNL     1       7.845   7.964  17.896  0.00  0.00    +0.000 A 
ATOM     17  C   UNL     1       7.119   7.030  17.204  0.00  0.00    +0.000 A 
ATOM     18  C   UNL     1       7.363   5.813  17.888  0.00  0.00    +0.000 A 
ATOM     19  N   UNL     1       8.156   6.015  18.950  0.00  0.00    +0.000 NA
ATOM     20  O   UNL     1       8.450   7.366  18.955  0.00  0.00    +0.000 OA
ENDBRANCH  14  18
ENDBRANCH   1  14
TORSDOF 2
ENDMDL
MODEL 8
REMARK VINA RESULT:      -7.4      2.023      2.795
REMARK  Name = 
REMARK  3 active torsions:
REMARK  status: ('A' for Active; 'I' for Inactive)
REMARK    1  A    between atoms: C_1  and  C_2
REMARK    2  A    between atoms: C_4  and  C_5
REMARK    3  A    between atoms: C_5  and  N_6
REMARK                            x       y       z     vdW  Elec       q    Type
REMARK                         _______ _______ _______ _____ _____    ______ ____
ROOT
ATOM      1  N   UNL     1       5.742   5.369  17.723  0.00  0.00    +0.000 N 
ATOM      2  C   UNL     1       5.227   4.655  18.789  0.00  0.00    +0.000 A 
ATOM      3  O   UNL     1       5.750   3.651  19.273  0.00  0.00    +0.000 OA
ATOM      4  N   UNL     1       4.050   5.100  19.319  0.00  0.00    +0.000 N 
ATOM      5  C   UNL     1       3.401   6.256  18.902  0.00  0.00    +0.000 A 
ATOM      6  C   UNL     1       2.244   6.681  19.556  0.00  0.00    +0.000 A 
ATOM      7  C   UNL     1       1.643   7.884  19.179  0.00  0.00    +0.000 A 
ATOM      8  C   UNL     1       2.184   8.646  18.142  0.00  0.00    +0.000 A 
ATOM      9  C   UNL     1       3.323   8.201  17.468  0.00  0.00    +0.000 A 
ATOM     10  C   UNL     1       3.931   7.003  17.858  0.00  0.00    +0.000 A 
ATOM     11  C   UNL     1       5.152   6.512  17.189  0.00  0.00    +0.000 A 
ATOM     12  O   UNL     1       5.591   7.122  16.219  0.00  0.00    +0.000 OA
ATOM     13  H   UNL     1       3.691   4.553  20.092  0.00  0.00    +0.000 HD
ENDROOT
BRANCH   1  14
ATOM     14  C   UNL     1       6.959   4.870  17.096  0.00  0.00    +0.000 C 
BRANCH  14  18
ATOM     15  C   UNL     1       5.759   3.275  12.389  0.00  0.00    +0.000 C 
ATOM     16  C   UNL     1       6.215   3.927  13.627  0.00  0.00    +0.000 A 
ATOM     17  C   UNL     1       5.868   3.820  14.949  0.00  0.00    +0.000 A 
ATOM     18  C   UNL     1       6.775   4.675  15.623  0.00  0.00    +0.000 A 
ATOM     19  N   UNL     1       7.588   5.289  14.752  0.00  0.00    +0.000 NA
ATOM     20  O   UNL     1       7.229   4.821  13.501  0.00  0.00    +0.000 OA
ENDBRANCH  14  18
ENDBRANCH   1  14
TORSDOF 2
ENDMDL
MODEL 9
REMARK VINA RESULT:      -7.3      2.096      3.628
REMARK  Name = 
REMARK  3 active torsions:
REMARK  status: ('A' for Active; 'I' for Inactive)
REMARK    1  A    between atoms: C_1  and  C_2
REMARK    2  A    between atoms: C_4  and  C_5
REMARK    3  A    between atoms: C_5  and  N_6
REMARK                            x       y       z     vdW  Elec       q    Type
REMARK                         _______ _______ _______ _____ _____    ______ ____
ROOT
ATOM      1  N   UNL     1       4.821   5.533  17.899  0.00  0.00    +0.000 N 
ATOM      2  C   UNL     1       3.766   6.428  17.903  0.00  0.00    +0.000 A 
ATOM      3  O   UNL     1       3.698   7.427  17.188  0.00  0.00    +0.000 OA
ATOM      4  N   UNL     1       2.747   6.175  18.777  0.00  0.00    +0.000 N 
ATOM      5  C   UNL     1       2.681   5.047  19.584  0.00  0.00    +0.000 A 
ATOM      6  C   UNL     1       1.562   4.829  20.387  0.00  0.00    +0.000 A 
ATOM      7  C   UNL     1       1.470   3.654  21.137  0.00  0.00    +0.000 A 
ATOM      8  C   UNL     1       2.501   2.714  21.099  0.00  0.00    +0.000 A 
ATOM      9  C   UNL     1       3.636   2.951  20.321  0.00  0.00    +0.000 A 
ATOM     10  C   UNL     1       3.717   4.122  19.559  0.00  0.00    +0.000 A 
ATOM     11  C   UNL     1       4.886   4.397  18.702  0.00  0.00    +0.000 A 
ATOM     12  O   UNL     1       5.840   3.626  18.723  0.00  0.00    +0.000 OA
ATOM     13  H   UNL     1       1.993   6.851  18.764  0.00  0.00    +0.000 HD
ENDROOT
BRANCH   1  14
ATOM     14  C   UNL     1       5.953   5.822  17.028  0.00  0.00    +0.000 C 
BRANCH  14  18
ATOM     15  C   UNL     1       8.872   9.835  18.260  0.00  0.00    +0.000 C 
ATOM     16  C   UNL     1       8.115   8.580  18.119  0.00  0.00    +0.000 A 
ATOM     17  C   UNL     1       7.038   8.190  17.366  0.00  0.00    +0.000 A 
ATOM     18  C   UNL     1       6.887   6.811  17.654  0.00  0.00    +0.000 A 
ATOM     19  N   UNL     1       7.792   6.410  18.556  0.00  0.00    +0.000 NA
ATOM     20  O   UNL     1       8.557   7.524  18.850  0.00  0.00    +0.000 OA
ENDBRANCH  14  18
ENDBRANCH   1  14
TORSDOF 2
ENDMDL
