MODEL 1
REMARK VINA RESULT:      -7.6      0.000      0.000
REMARK  Name = 
REMARK  7 active torsions:
REMARK  status: ('A' for Active; 'I' for Inactive)
REMARK    1  A    between atoms: C_1  and  N_2
REMARK    2  A    between atoms: C_7  and  C_9
REMARK    3  A    between atoms: N_11  and  C_12
REMARK    4  A    between atoms: N_16  and  C_17
REMARK    5  A    between atoms: C_17  and  C_18
REMARK    6  A    between atoms: C_21  and  O_22
REMARK    7  A    between atoms: O_22  and  C_23
REMARK                            x       y       z     vdW  Elec       q    Type
REMARK                         _______ _______ _______ _____ _____    ______ ____
ROOT
ATOM      1  C   UNL     1      -0.258  11.485  20.570  0.00  0.00    +0.000 A 
ATOM      2  N   UNL     1      -0.487  11.055  21.841  0.00  0.00    +0.000 NA
ATOM      3  N   UNL     1       0.220   9.906  21.967  0.00  0.00    +0.000 N 
ATOM      4  C   UNL     1       0.289   9.237  23.239  0.00  0.00    +0.000 C 
ATOM      5  C   UNL     1       0.818   9.570  20.812  0.00  0.00    +0.000 A 
ATOM      6  C   UNL     1       0.536  10.540  19.909  0.00  0.00    +0.000 A 
ATOM      7  C   UNL     1       1.159  10.246  18.614  0.00  0.00    +0.000 C 
ATOM      8  N   UNL     1       1.536   8.798  18.804  0.00  0.00    +0.000 NA
ATOM      9  C   UNL     1       1.637   8.496  20.267  0.00  0.00    +0.000 C 
ENDROOT
BRANCH   1  16
ATOM     10  C   UNL     1       3.485  16.188  19.765  0.00  0.00    +0.000 C 
ATOM     11  N   UNL     1       2.384  15.586  19.010  0.00  0.00    +0.000 NA
ATOM     12  C   UNL     1       1.214  16.479  19.003  0.00  0.00    +0.000 C 
ATOM     13  C   UNL     1      -0.120  15.847  18.580  0.00  0.00    +0.000 C 
ATOM     14  C   UNL     1      -0.857  15.170  19.742  0.00  0.00    +0.000 C 
ATOM     15  N   UNL     1      -0.219  13.958  20.246  0.00  0.00    +0.000 N 
ATOM     16  C   UNL     1      -0.831  12.717  19.985  0.00  0.00    +0.000 C 
ATOM     17  O   UNL     1      -1.827  12.638  19.262  0.00  0.00    +0.000 OA
ATOM     18  C   UNL     1       1.175  14.100  20.682  0.00  0.00    +0.000 C 
ATOM     19  C   UNL     1       2.121  14.217  19.474  0.00  0.00    +0.000 C 
ENDBRANCH   1  16
BRANCH   8  20
ATOM     20  C   UNL     1       2.729   8.405  18.062  0.00  0.00    +0.000 C 
BRANCH  20  21
ATOM     21  C   UNL     1       2.869   6.905  17.907  0.00  0.00    +0.000 A 
ATOM     22  C   UNL     1       4.105   6.339  17.577  0.00  0.00    +0.000 A 
ATOM     23  C   UNL     1       4.235   4.954  17.451  0.00  0.00    +0.000 A 
ATOM     24  C   UNL     1       3.141   4.109  17.663  0.00  0.00    +0.000 A 
ATOM     25  C   UNL     1       1.896   4.669  17.941  0.00  0.00    +0.000 A 
ATOM     26  C   UNL     1       1.767   6.055  18.083  0.00  0.00    +0.000 A 
BRANCH  24  27
ATOM     27  O   UNL     1       3.413   2.784  17.518  0.00  0.00    +0.000 OA
BRANCH  27  28
ATOM     28  C   UNL     1       3.302   1.921  18.640  0.00  0.00    +0.000 C 
ATOM     29  F   UNL     1       3.919   0.731  18.494  0.00  0.00    +0.000 F 
ATOM     30  F   UNL     1       3.799   2.541  19.733  0.00  0.00    +0.000 F 
ATOM     31  F   UNL     1       1.989   1.677  18.860  0.00  0.00    +0.000 F 
ENDBRANCH  27  28
ENDBRANCH  24  27
ENDBRANCH  20  21
ENDBRANCH   8  20
TORSDOF 5
ENDMDL
MODEL 2
REMARK VINA RESULT:      -7.6      3.464      4.795
REMARK  Name = 
REMARK  7 active torsions:
REMARK  status: ('A' for Active; 'I' for Inactive)
REMARK    1  A    between atoms: C_1  and  N_2
REMARK    2  A    between atoms: C_7  and  C_9
REMARK    3  A    between atoms: N_11  and  C_12
REMARK    4  A    between atoms: N_16  and  C_17
REMARK    5  A    between atoms: C_17  and  C_18
REMARK    6  A    between atoms: C_21  and  O_22
REMARK    7  A    between atoms: O_22  and  C_23
REMARK                            x       y       z     vdW  Elec       q    Type
REMARK                         _______ _______ _______ _____ _____    ______ ____
ROOT
ATOM      1  C   UNL     1      -2.322  11.944  18.953  0.00  0.00    +0.000 A 
ATOM      2  N   UNL     1      -2.240  12.949  19.867  0.00  0.00    +0.000 NA
ATOM      3  N   UNL     1      -0.995  12.860  20.394  0.00  0.00    +0.000 N 
ATOM      4  C   UNL     1      -0.531  13.853  21.325  0.00  0.00    +0.000 C 
ATOM      5  C   UNL     1      -0.329  11.802  19.899  0.00  0.00    +0.000 A 
ATOM      6  C   UNL     1      -1.136  11.200  18.992  0.00  0.00    +0.000 A 
ATOM      7  C   UNL     1      -0.477  10.031  18.400  0.00  0.00    +0.000 C 
ATOM      8  N   UNL     1       0.675   9.842  19.356  0.00  0.00    +0.000 NA
ATOM      9  C   UNL     1       0.953  11.133  20.063  0.00  0.00    +0.000 C 
ENDROOT
BRANCH   1  16
ATOM     10  C   UNL     1      -7.676  13.950  20.977  0.00  0.00    +0.000 C 
ATOM     11  N   UNL     1      -7.019  13.855  19.671  0.00  0.00    +0.000 NA
ATOM     12  C   UNL     1      -7.683  12.845  18.833  0.00  0.00    +0.000 C 
ATOM     13  C   UNL     1      -6.903  12.369  17.598  0.00  0.00    +0.000 C 
ATOM     14  C   UNL     1      -5.930  11.225  17.908  0.00  0.00    +0.000 C 
ATOM     15  N   UNL     1      -4.784  11.605  18.728  0.00  0.00    +0.000 N 
ATOM     16  C   UNL     1      -3.513  11.660  18.123  0.00  0.00    +0.000 C 
ATOM     17  O   UNL     1      -3.377  11.490  16.909  0.00  0.00    +0.000 OA
ATOM     18  C   UNL     1      -5.095  12.230  20.018  0.00  0.00    +0.000 C 
ATOM     19  C   UNL     1      -5.568  13.681  19.828  0.00  0.00    +0.000 C 
ENDBRANCH   1  16
BRANCH   8  20
ATOM     20  C   UNL     1       1.862   9.272  18.730  0.00  0.00    +0.000 C 
BRANCH  20  21
ATOM     21  C   UNL     1       2.041   7.796  19.022  0.00  0.00    +0.000 A 
ATOM     22  C   UNL     1       2.542   6.935  18.040  0.00  0.00    +0.000 A 
ATOM     23  C   UNL     1       2.720   5.578  18.317  0.00  0.00    +0.000 A 
ATOM     24  C   UNL     1       2.417   5.058  19.578  0.00  0.00    +0.000 A 
ATOM     25  C   UNL     1       1.870   5.899  20.545  0.00  0.00    +0.000 A 
ATOM     26  C   UNL     1       1.704   7.262  20.275  0.00  0.00    +0.000 A 
BRANCH  24  27
ATOM     27  O   UNL     1       2.649   3.724  19.712  0.00  0.00    +0.000 OA
BRANCH  27  28
ATOM     28  C   UNL     1       1.553   2.821  19.708  0.00  0.00    +0.000 C 
ATOM     29  F   UNL     1       1.887   1.538  19.461  0.00  0.00    +0.000 F 
ATOM     30  F   UNL     1       0.914   2.887  20.897  0.00  0.00    +0.000 F 
ATOM     31  F   UNL     1       0.685   3.210  18.746  0.00  0.00    +0.000 F 
ENDBRANCH  27  28
ENDBRANCH  24  27
ENDBRANCH  20  21
ENDBRANCH   8  20
TORSDOF 5
ENDMDL
MODEL 3
REMARK VINA RESULT:      -7.5      3.380      5.185
REMARK  Name = 
REMARK  7 active torsions:
REMARK  status: ('A' for Active; 'I' for Inactive)
REMARK    1  A    between atoms: C_1  and  N_2
REMARK    2  A    between atoms: C_7  and  C_9
REMARK    3  A    between atoms: N_11  and  C_12
REMARK    4  A    between atoms: N_16  and  C_17
REMARK    5  A    between atoms: C_17  and  C_18
REMARK    6  A    between atoms: C_21  and  O_22
REMARK    7  A    between atoms: O_22  and  C_23
REMARK                            x       y       z     vdW  Elec       q    Type
REMARK                         _______ _______ _______ _____ _____    ______ ____
ROOT
ATOM      1  C   UNL     1      -2.438  13.285  22.115  0.00  0.00    +0.000 A 
ATOM      2  N   UNL     1      -1.872  14.377  22.698  0.00  0.00    +0.000 NA
ATOM      3  N   UNL     1      -0.627  14.465  22.172  0.00  0.00    +0.000 N 
ATOM      4  C   UNL     1       0.216  15.586  22.494  0.00  0.00    +0.000 C 
ATOM      5  C   UNL     1      -0.372  13.437  21.345  0.00  0.00    +0.000 A 
ATOM      6  C   UNL     1      -1.489  12.672  21.288  0.00  0.00    +0.000 A 
ATOM      7  C   UNL     1      -1.292  11.523  20.397  0.00  0.00    +0.000 C 
ATOM      8  N   UNL     1       0.208  11.545  20.236  0.00  0.00    +0.000 NA
ATOM      9  C   UNL     1       0.723  12.919  20.536  0.00  0.00    +0.000 C 
ENDROOT
BRANCH   1  16
ATOM     10  C   UNL     1      -6.146  12.590  17.367  0.00  0.00    +0.000 C 
ATOM     11  N   UNL     1      -5.881  11.853  18.604  0.00  0.00    +0.000 NA
ATOM     12  C   UNL     1      -7.027  11.955  19.521  0.00  0.00    +0.000 C 
ATOM     13  C   UNL     1      -6.767  11.559  20.981  0.00  0.00    +0.000 C 
ATOM     14  C   UNL     1      -6.207  12.712  21.825  0.00  0.00    +0.000 C 
ATOM     15  N   UNL     1      -4.845  13.111  21.485  0.00  0.00    +0.000 N 
ATOM     16  C   UNL     1      -3.810  12.804  22.388  0.00  0.00    +0.000 C 
ATOM     17  O   UNL     1      -4.023  12.126  23.396  0.00  0.00    +0.000 OA
ATOM     18  C   UNL     1      -4.616  13.487  20.085  0.00  0.00    +0.000 C 
ATOM     19  C   UNL     1      -4.586  12.246  19.178  0.00  0.00    +0.000 C 
ENDBRANCH   1  16
BRANCH   8  20
ATOM     20  C   UNL     1       0.662  11.039  18.946  0.00  0.00    +0.000 C 
BRANCH  20  21
ATOM     21  C   UNL     1       1.259   9.649  19.025  0.00  0.00    +0.000 A 
ATOM     22  C   UNL     1       1.851   9.067  17.900  0.00  0.00    +0.000 A 
ATOM     23  C   UNL     1       2.414   7.791  17.980  0.00  0.00    +0.000 A 
ATOM     24  C   UNL     1       2.409   7.080  19.183  0.00  0.00    +0.000 A 
ATOM     25  C   UNL     1       1.776   7.632  20.295  0.00  0.00    +0.000 A 
ATOM     26  C   UNL     1       1.224   8.916  20.221  0.00  0.00    +0.000 A 
BRANCH  24  27
ATOM     27  O   UNL     1       3.000   5.857  19.120  0.00  0.00    +0.000 OA
BRANCH  27  28
ATOM     28  C   UNL     1       2.214   4.717  18.802  0.00  0.00    +0.000 C 
ATOM     29  F   UNL     1       1.508   4.826  17.658  0.00  0.00    +0.000 F 
ATOM     30  F   UNL     1       3.012   3.630  18.723  0.00  0.00    +0.000 F 
ATOM     31  F   UNL     1       1.332   4.514  19.809  0.00  0.00    +0.000 F 
ENDBRANCH  27  28
ENDBRANCH  24  27
ENDBRANCH  20  21
ENDBRANCH   8  20
TORSDOF 5
ENDMDL
MODEL 4
REMARK VINA RESULT:      -7.5      3.446      4.748
REMARK  Name = 
REMARK  7 active torsions:
REMARK  status: ('A' for Active; 'I' for Inactive)
REMARK    1  A    between atoms: C_1  and  N_2
REMARK    2  A    between atoms: C_7  and  C_9
REMARK    3  A    between atoms: N_11  and  C_12
REMARK    4  A    between atoms: N_16  and  C_17
REMARK    5  A    between atoms: C_17  and  C_18
REMARK    6  A    between atoms: C_21  and  O_22
REMARK    7  A    between atoms: O_22  and  C_23
REMARK                            x       y       z     vdW  Elec       q    Type
REMARK                         _______ _______ _______ _____ _____    ______ ____
ROOT
ATOM      1  C   UNL     1      -2.409  11.743  19.212  0.00  0.00    +0.000 A 
ATOM      2  N   UNL     1      -2.460  12.499  20.343  0.00  0.00    +0.000 NA
ATOM      3  N   UNL     1      -1.266  12.316  20.955  0.00  0.00    +0.000 N 
ATOM      4  C   UNL     1      -0.939  13.066  22.138  0.00  0.00    +0.000 C 
ATOM      5  C   UNL     1      -0.507  11.427  20.292  0.00  0.00    +0.000 A 
ATOM      6  C   UNL     1      -1.197  11.042  19.191  0.00  0.00    +0.000 A 
ATOM      7  C   UNL     1      -0.431  10.068  18.407  0.00  0.00    +0.000 C 
ATOM      8  N   UNL     1       0.637   9.683  19.401  0.00  0.00    +0.000 NA
ATOM      9  C   UNL     1       0.786  10.770  20.420  0.00  0.00    +0.000 C 
ENDROOT
BRANCH   1  16
ATOM     10  C   UNL     1      -7.845  13.890  20.829  0.00  0.00    +0.000 C 
ATOM     11  N   UNL     1      -7.041  13.894  19.605  0.00  0.00    +0.000 NA
ATOM     12  C   UNL     1      -7.654  13.033  18.582  0.00  0.00    +0.000 C 
ATOM     13  C   UNL     1      -6.757  12.642  17.398  0.00  0.00    +0.000 C 
ATOM     14  C   UNL     1      -5.897  11.404  17.681  0.00  0.00    +0.000 C 
ATOM     15  N   UNL     1      -4.840  11.608  18.666  0.00  0.00    +0.000 N 
ATOM     16  C   UNL     1      -3.503  11.638  18.222  0.00  0.00    +0.000 C 
ATOM     17  O   UNL     1      -3.230  11.595  17.020  0.00  0.00    +0.000 OA
ATOM     18  C   UNL     1      -5.271  12.107  19.977  0.00  0.00    +0.000 C 
ATOM     19  C   UNL     1      -5.632  13.600  19.907  0.00  0.00    +0.000 C 
ENDBRANCH   1  16
BRANCH   8  20
ATOM     20  C   UNL     1       1.903   9.311  18.780  0.00  0.00    +0.000 C 
BRANCH  20  21
ATOM     21  C   UNL     1       2.210   7.831  18.888  0.00  0.00    +0.000 A 
ATOM     22  C   UNL     1       1.882   7.122  20.048  0.00  0.00    +0.000 A 
ATOM     23  C   UNL     1       2.152   5.754  20.139  0.00  0.00    +0.000 A 
ATOM     24  C   UNL     1       2.740   5.068  19.072  0.00  0.00    +0.000 A 
ATOM     25  C   UNL     1       3.116   5.778  17.934  0.00  0.00    +0.000 A 
ATOM     26  C   UNL     1       2.833   7.145  17.835  0.00  0.00    +0.000 A 
BRANCH  24  27
ATOM     27  O   UNL     1       2.935   3.740  19.293  0.00  0.00    +0.000 OA
BRANCH  27  28
ATOM     28  C   UNL     1       1.968   2.807  18.833  0.00  0.00    +0.000 C 
ATOM     29  F   UNL     1       1.440   2.028  19.799  0.00  0.00    +0.000 F 
ATOM     30  F   UNL     1       0.970   3.467  18.207  0.00  0.00    +0.000 F 
ATOM     31  F   UNL     1       2.561   1.992  17.929  0.00  0.00    +0.000 F 
ENDBRANCH  27  28
ENDBRANCH  24  27
ENDBRANCH  20  21
ENDBRANCH   8  20
TORSDOF 5
ENDMDL
MODEL 5
REMARK VINA RESULT:      -7.4      5.202     10.074
REMARK  Name = 
REMARK  7 active torsions:
REMARK  status: ('A' for Active; 'I' for Inactive)
REMARK    1  A    between atoms: C_1  and  N_2
REMARK    2  A    between atoms: C_7  and  C_9
REMARK    3  A    between atoms: N_11  and  C_12
REMARK    4  A    between atoms: N_16  and  C_17
REMARK    5  A    between atoms: C_17  and  C_18
REMARK    6  A    between atoms: C_21  and  O_22
REMARK    7  A    between atoms: O_22  and  C_23
REMARK                            x       y       z     vdW  Elec       q    Type
REMARK                         _______ _______ _______ _____ _____    ______ ____
ROOT
ATOM      1  C   UNL     1       5.793   5.187  17.239  0.00  0.00    +0.000 A 
ATOM      2  N   UNL     1       5.846   4.067  18.011  0.00  0.00    +0.000 NA
ATOM      3  N   UNL     1       4.739   4.110  18.789  0.00  0.00    +0.000 N 
ATOM      4  C   UNL     1       4.423   3.007  19.658  0.00  0.00    +0.000 C 
ATOM      5  C   UNL     1       4.040   5.240  18.585  0.00  0.00    +0.000 A 
ATOM      6  C   UNL     1       4.677   5.944  17.618  0.00  0.00    +0.000 A 
ATOM      7  C   UNL     1       3.971   7.198  17.333  0.00  0.00    +0.000 C 
ATOM      8  N   UNL     1       3.045   7.278  18.522  0.00  0.00    +0.000 NA
ATOM      9  C   UNL     1       2.851   5.908  19.097  0.00  0.00    +0.000 C 
ENDROOT
BRANCH   1  16
ATOM     10  C   UNL     1       5.406   2.517  11.808  0.00  0.00    +0.000 C 
ATOM     11  N   UNL     1       5.724   3.861  12.292  0.00  0.00    +0.000 NA
ATOM     12  C   UNL     1       7.148   4.165  12.074  0.00  0.00    +0.000 C 
ATOM     13  C   UNL     1       7.713   5.365  12.848  0.00  0.00    +0.000 C 
ATOM     14  C   UNL     1       8.183   4.998  14.261  0.00  0.00    +0.000 C 
ATOM     15  N   UNL     1       7.112   4.654  15.190  0.00  0.00    +0.000 N 
ATOM     16  C   UNL     1       6.804   5.558  16.226  0.00  0.00    +0.000 C 
ATOM     17  O   UNL     1       7.352   6.661  16.293  0.00  0.00    +0.000 OA
ATOM     18  C   UNL     1       6.220   3.569  14.769  0.00  0.00    +0.000 C 
ATOM     19  C   UNL     1       5.252   4.044  13.672  0.00  0.00    +0.000 C 
ENDBRANCH   1  16
BRANCH   8  20
ATOM     20  C   UNL     1       1.786   7.954  18.235  0.00  0.00    +0.000 C 
BRANCH  20  21
ATOM     21  C   UNL     1       1.381   8.943  19.309  0.00  0.00    +0.000 A 
ATOM     22  C   UNL     1       1.120  10.278  18.982  0.00  0.00    +0.000 A 
ATOM     23  C   UNL     1       0.732  11.183  19.972  0.00  0.00    +0.000 A 
ATOM     24  C   UNL     1       0.582  10.773  21.299  0.00  0.00    +0.000 A 
ATOM     25  C   UNL     1       0.889   9.458  21.641  0.00  0.00    +0.000 A 
ATOM     26  C   UNL     1       1.265   8.545  20.649  0.00  0.00    +0.000 A 
BRANCH  24  27
ATOM     27  O   UNL     1       0.189  11.755  22.154  0.00  0.00    +0.000 OA
BRANCH  27  28
ATOM     28  C   UNL     1      -1.114  11.709  22.719  0.00  0.00    +0.000 C 
ATOM     29  F   UNL     1      -1.372  10.597  23.438  0.00  0.00    +0.000 F 
ATOM     30  F   UNL     1      -1.301  12.792  23.503  0.00  0.00    +0.000 F 
ATOM     31  F   UNL     1      -2.016  11.762  21.711  0.00  0.00    +0.000 F 
ENDBRANCH  27  28
ENDBRANCH  24  27
ENDBRANCH  20  21
ENDBRANCH   8  20
TORSDOF 5
ENDMDL
MODEL 6
REMARK VINA RESULT:      -7.4      5.506      7.495
REMARK  Name = 
REMARK  7 active torsions:
REMARK  status: ('A' for Active; 'I' for Inactive)
REMARK    1  A    between atoms: C_1  and  N_2
REMARK    2  A    between atoms: C_7  and  C_9
REMARK    3  A    between atoms: N_11  and  C_12
REMARK    4  A    between atoms: N_16  and  C_17
REMARK    5  A    between atoms: C_17  and  C_18
REMARK    6  A    between atoms: C_21  and  O_22
REMARK    7  A    between atoms: O_22  and  C_23
REMARK                            x       y       z     vdW  Elec       q    Type
REMARK                         _______ _______ _______ _____ _____    ______ ____
ROOT
ATOM      1  C   UNL     1      -6.919  12.214  21.266  0.00  0.00    +0.000 A 
ATOM      2  N   UNL     1      -7.549  11.075  21.664  0.00  0.00    +0.000 NA
ATOM      3  N   UNL     1      -7.338  10.178  20.670  0.00  0.00    +0.000 N 
ATOM      4  C   UNL     1      -7.781   8.818  20.819  0.00  0.00    +0.000 C 
ATOM      5  C   UNL     1      -6.668  10.732  19.645  0.00  0.00    +0.000 A 
ATOM      6  C   UNL     1      -6.391  12.015  19.985  0.00  0.00    +0.000 A 
ATOM      7  C   UNL     1      -5.654  12.692  18.913  0.00  0.00    +0.000 C 
ATOM      8  N   UNL     1      -5.863  11.727  17.772  0.00  0.00    +0.000 NA
ATOM      9  C   UNL     1      -6.188  10.370  18.319  0.00  0.00    +0.000 C 
ENDROOT
BRANCH   1  16
ATOM     10  C   UNL     1      -1.564  13.910  23.552  0.00  0.00    +0.000 C 
ATOM     11  N   UNL     1      -2.701  14.594  22.933  0.00  0.00    +0.000 NA
ATOM     12  C   UNL     1      -3.416  15.410  23.927  0.00  0.00    +0.000 C 
ATOM     13  C   UNL     1      -4.822  15.884  23.531  0.00  0.00    +0.000 C 
ATOM     14  C   UNL     1      -5.913  14.853  23.844  0.00  0.00    +0.000 C 
ATOM     15  N   UNL     1      -5.873  13.653  23.015  0.00  0.00    +0.000 N 
ATOM     16  C   UNL     1      -6.881  13.469  22.049  0.00  0.00    +0.000 C 
ATOM     17  O   UNL     1      -7.723  14.343  21.831  0.00  0.00    +0.000 OA
ATOM     18  C   UNL     1      -4.606  12.912  23.018  0.00  0.00    +0.000 C 
ATOM     19  C   UNL     1      -3.538  13.643  22.187  0.00  0.00    +0.000 C 
ENDBRANCH   1  16
BRANCH   8  20
ATOM     20  C   UNL     1      -4.759  11.703  16.819  0.00  0.00    +0.000 C 
BRANCH  20  21
ATOM     21  C   UNL     1      -3.442  11.287  17.441  0.00  0.00    +0.000 A 
ATOM     22  C   UNL     1      -2.756  10.165  16.965  0.00  0.00    +0.000 A 
ATOM     23  C   UNL     1      -1.534   9.793  17.530  0.00  0.00    +0.000 A 
ATOM     24  C   UNL     1      -0.968  10.539  18.568  0.00  0.00    +0.000 A 
ATOM     25  C   UNL     1      -1.669  11.627  19.082  0.00  0.00    +0.000 A 
ATOM     26  C   UNL     1      -2.887  12.011  18.508  0.00  0.00    +0.000 A 
BRANCH  24  27
ATOM     27  O   UNL     1       0.228  10.070  19.015  0.00  0.00    +0.000 OA
BRANCH  27  28
ATOM     28  C   UNL     1       0.345   9.622  20.358  0.00  0.00    +0.000 C 
ATOM     29  F   UNL     1       0.707  10.579  21.236  0.00  0.00    +0.000 F 
ATOM     30  F   UNL     1      -0.829   9.083  20.754  0.00  0.00    +0.000 F 
ATOM     31  F   UNL     1       1.285   8.650  20.401  0.00  0.00    +0.000 F 
ENDBRANCH  27  28
ENDBRANCH  24  27
ENDBRANCH  20  21
ENDBRANCH   8  20
TORSDOF 5
ENDMDL
MODEL 7
REMARK VINA RESULT:      -7.3      1.742      2.391
REMARK  Name = 
REMARK  7 active torsions:
REMARK  status: ('A' for Active; 'I' for Inactive)
REMARK    1  A    between atoms: C_1  and  N_2
REMARK    2  A    between atoms: C_7  and  C_9
REMARK    3  A    between atoms: N_11  and  C_12
REMARK    4  A    between atoms: N_16  and  C_17
REMARK    5  A    between atoms: C_17  and  C_18
REMARK    6  A    between atoms: C_21  and  O_22
REMARK    7  A    between atoms: O_22  and  C_23
REMARK                            x       y       z     vdW  Elec       q    Type
REMARK                         _______ _______ _______ _____ _____    ______ ____
ROOT
ATOM      1  C   UNL     1      -0.432  12.702  20.466  0.00  0.00    +0.000 A 
ATOM      2  N   UNL     1      -1.484  12.967  21.288  0.00  0.00    +0.000 NA
ATOM      3  N   UNL     1      -1.587  11.890  22.102  0.00  0.00    +0.000 N 
ATOM      4  C   UNL     1      -2.541  11.887  23.179  0.00  0.00    +0.000 C 
ATOM      5  C   UNL     1      -0.693  10.941  21.776  0.00  0.00    +0.000 A 
ATOM      6  C   UNL     1       0.049  11.418  20.747  0.00  0.00    +0.000 A 
ATOM      7  C   UNL     1       1.057  10.437  20.330  0.00  0.00    +0.000 C 
ATOM      8  N   UNL     1       0.551   9.198  21.027  0.00  0.00    +0.000 NA
ATOM      9  C   UNL     1      -0.317   9.594  22.182  0.00  0.00    +0.000 C 
ENDROOT
BRANCH   1  16
ATOM     10  C   UNL     1       4.950  15.362  21.326  0.00  0.00    +0.000 C 
ATOM     11  N   UNL     1       4.245  14.773  20.186  0.00  0.00    +0.000 NA
ATOM     12  C   UNL     1       3.849  15.817  19.228  0.00  0.00    +0.000 C 
ATOM     13  C   UNL     1       2.797  15.418  18.184  0.00  0.00    +0.000 C 
ATOM     14  C   UNL     1       1.358  15.578  18.691  0.00  0.00    +0.000 C 
ATOM     15  N   UNL     1       0.970  14.631  19.732  0.00  0.00    +0.000 N 
ATOM     16  C   UNL     1       0.054  13.612  19.405  0.00  0.00    +0.000 C 
ATOM     17  O   UNL     1      -0.337  13.454  18.246  0.00  0.00    +0.000 OA
ATOM     18  C   UNL     1       1.818  14.607  20.928  0.00  0.00    +0.000 C 
ATOM     19  C   UNL     1       3.154  13.900  20.642  0.00  0.00    +0.000 C 
ENDBRANCH   1  16
BRANCH   8  20
ATOM     20  C   UNL     1       1.609   8.270  21.407  0.00  0.00    +0.000 C 
BRANCH  20  21
ATOM     21  C   UNL     1       1.828   7.165  20.393  0.00  0.00    +0.000 A 
ATOM     22  C   UNL     1       2.321   7.461  19.118  0.00  0.00    +0.000 A 
ATOM     23  C   UNL     1       2.535   6.438  18.191  0.00  0.00    +0.000 A 
ATOM     24  C   UNL     1       2.277   5.105  18.522  0.00  0.00    +0.000 A 
ATOM     25  C   UNL     1       1.738   4.809  19.771  0.00  0.00    +0.000 A 
ATOM     26  C   UNL     1       1.535   5.830  20.708  0.00  0.00    +0.000 A 
BRANCH  24  27
ATOM     27  O   UNL     1       2.541   4.214  17.528  0.00  0.00    +0.000 OA
BRANCH  27  28
ATOM     28  C   UNL     1       3.852   3.681  17.400  0.00  0.00    +0.000 C 
ATOM     29  F   UNL     1       4.518   4.094  16.302  0.00  0.00    +0.000 F 
ATOM     30  F   UNL     1       4.574   3.997  18.496  0.00  0.00    +0.000 F 
ATOM     31  F   UNL     1       3.757   2.332  17.337  0.00  0.00    +0.000 F 
ENDBRANCH  27  28
ENDBRANCH  24  27
ENDBRANCH  20  21
ENDBRANCH   8  20
TORSDOF 5
ENDMDL
MODEL 8
REMARK VINA RESULT:      -7.3      3.155      4.795
REMARK  Name = 
REMARK  7 active torsions:
REMARK  status: ('A' for Active; 'I' for Inactive)
REMARK    1  A    between atoms: C_1  and  N_2
REMARK    2  A    between atoms: C_7  and  C_9
REMARK    3  A    between atoms: N_11  and  C_12
REMARK    4  A    between atoms: N_16  and  C_17
REMARK    5  A    between atoms: C_17  and  C_18
REMARK    6  A    between atoms: C_21  and  O_22
REMARK    7  A    between atoms: O_22  and  C_23
REMARK                            x       y       z     vdW  Elec       q    Type
REMARK                         _______ _______ _______ _____ _____    ______ ____
ROOT
ATOM      1  C   UNL     1      -1.945  13.016  21.887  0.00  0.00    +0.000 A 
ATOM      2  N   UNL     1      -1.310  14.132  22.337  0.00  0.00    +0.000 NA
ATOM      3  N   UNL     1      -0.065  14.079  21.807  0.00  0.00    +0.000 N 
ATOM      4  C   UNL     1       0.848  15.176  21.995  0.00  0.00    +0.000 C 
ATOM      5  C   UNL     1       0.122  12.946  21.108  0.00  0.00    +0.000 A 
ATOM      6  C   UNL     1      -1.041  12.251  21.141  0.00  0.00    +0.000 A 
ATOM      7  C   UNL     1      -0.920  10.994  20.394  0.00  0.00    +0.000 C 
ATOM      8  N   UNL     1       0.578  10.903  20.234  0.00  0.00    +0.000 NA
ATOM      9  C   UNL     1       1.178  12.269  20.369  0.00  0.00    +0.000 C 
ENDROOT
BRANCH   1  16
ATOM     10  C   UNL     1      -5.860  12.582  17.276  0.00  0.00    +0.000 C 
ATOM     11  N   UNL     1      -5.616  11.840  18.515  0.00  0.00    +0.000 NA
ATOM     12  C   UNL     1      -6.718  12.051  19.468  0.00  0.00    +0.000 C 
ATOM     13  C   UNL     1      -6.441  11.651  20.924  0.00  0.00    +0.000 C 
ATOM     14  C   UNL     1      -5.758  12.762  21.731  0.00  0.00    +0.000 C 
ATOM     15  N   UNL     1      -4.379  13.039  21.340  0.00  0.00    +0.000 N 
ATOM     16  C   UNL     1      -3.343  12.656  22.213  0.00  0.00    +0.000 C 
ATOM     17  O   UNL     1      -3.578  12.011  23.238  0.00  0.00    +0.000 OA
ATOM     18  C   UNL     1      -4.167  13.378  19.929  0.00  0.00    +0.000 C 
ATOM     19  C   UNL     1      -4.274  12.128  19.040  0.00  0.00    +0.000 C 
ENDBRANCH   1  16
BRANCH   8  20
ATOM     20  C   UNL     1       0.993  10.221  19.014  0.00  0.00    +0.000 C 
BRANCH  20  21
ATOM     21  C   UNL     1       1.506   8.817  19.260  0.00  0.00    +0.000 A 
ATOM     22  C   UNL     1       2.083   8.081  18.220  0.00  0.00    +0.000 A 
ATOM     23  C   UNL     1       2.569   6.792  18.453  0.00  0.00    +0.000 A 
ATOM     24  C   UNL     1       2.501   6.221  19.727  0.00  0.00    +0.000 A 
ATOM     25  C   UNL     1       1.882   6.927  20.755  0.00  0.00    +0.000 A 
ATOM     26  C   UNL     1       1.407   8.224  20.528  0.00  0.00    +0.000 A 
BRANCH  24  27
ATOM     27  O   UNL     1       3.021   4.967  19.813  0.00  0.00    +0.000 OA
BRANCH  27  28
ATOM     28  C   UNL     1       2.180   3.887  20.194  0.00  0.00    +0.000 C 
ATOM     29  F   UNL     1       2.569   2.684  19.726  0.00  0.00    +0.000 F 
ATOM     30  F   UNL     1       2.108   3.831  21.542  0.00  0.00    +0.000 F 
ATOM     31  F   UNL     1       0.936   4.128  19.719  0.00  0.00    +0.000 F 
ENDBRANCH  27  28
ENDBRANCH  24  27
ENDBRANCH  20  21
ENDBRANCH   8  20
TORSDOF 5
ENDMDL
MODEL 9
REMARK VINA RESULT:      -7.3      2.415      4.112
REMARK  Name = 
REMARK  7 active torsions:
REMARK  status: ('A' for Active; 'I' for Inactive)
REMARK    1  A    between atoms: C_1  and  N_2
REMARK    2  A    between atoms: C_7  and  C_9
REMARK    3  A    between atoms: N_11  and  C_12
REMARK    4  A    between atoms: N_16  and  C_17
REMARK    5  A    between atoms: C_17  and  C_18
REMARK    6  A    between atoms: C_21  and  O_22
REMARK    7  A    between atoms: O_22  and  C_23
REMARK                            x       y       z     vdW  Elec       q    Type
REMARK                         _______ _______ _______ _____ _____    ______ ____
ROOT
ATOM      1  C   UNL     1       0.402  12.665  20.756  0.00  0.00    +0.000 A 
ATOM      2  N   UNL     1       0.921  13.841  20.307  0.00  0.00    +0.000 NA
ATOM      3  N   UNL     1       1.632  13.524  19.199  0.00  0.00    +0.000 N 
ATOM      4  C   UNL     1       2.229  14.563  18.402  0.00  0.00    +0.000 C 
ATOM      5  C   UNL     1       1.635  12.198  18.981  0.00  0.00    +0.000 A 
ATOM      6  C   UNL     1       0.873  11.625  19.945  0.00  0.00    +0.000 A 
ATOM      7  C   UNL     1       0.823  10.169  19.776  0.00  0.00    +0.000 C 
ATOM      8  N   UNL     1       1.952   9.959  18.797  0.00  0.00    +0.000 NA
ATOM      9  C   UNL     1       2.213  11.234  18.055  0.00  0.00    +0.000 C 
ENDROOT
BRANCH   1  16
ATOM     10  C   UNL     1      -5.493  13.943  20.123  0.00  0.00    +0.000 C 
ATOM     11  N   UNL     1      -4.712  12.935  20.842  0.00  0.00    +0.000 NA
ATOM     12  C   UNL     1      -4.790  13.161  22.294  0.00  0.00    +0.000 C 
ATOM     13  C   UNL     1      -3.746  12.430  23.152  0.00  0.00    +0.000 C 
ATOM     14  C   UNL     1      -2.425  13.200  23.274  0.00  0.00    +0.000 C 
ATOM     15  N   UNL     1      -1.647  13.275  22.042  0.00  0.00    +0.000 N 
ATOM     16  C   UNL     1      -0.456  12.529  21.953  0.00  0.00    +0.000 C 
ATOM     17  O   UNL     1      -0.123  11.749  22.850  0.00  0.00    +0.000 OA
ATOM     18  C   UNL     1      -2.337  13.842  20.879  0.00  0.00    +0.000 C 
ATOM     19  C   UNL     1      -3.350  12.842  20.297  0.00  0.00    +0.000 C 
ENDBRANCH   1  16
BRANCH   8  20
ATOM     20  C   UNL     1       1.749   8.820  17.910  0.00  0.00    +0.000 C 
BRANCH  20  21
ATOM     21  C   UNL     1       2.537   7.594  18.321  0.00  0.00    +0.000 A 
ATOM     22  C   UNL     1       2.215   6.905  19.496  0.00  0.00    +0.000 A 
ATOM     23  C   UNL     1       2.935   5.766  19.865  0.00  0.00    +0.000 A 
ATOM     24  C   UNL     1       3.976   5.286  19.065  0.00  0.00    +0.000 A 
ATOM     25  C   UNL     1       4.335   5.995  17.921  0.00  0.00    +0.000 A 
ATOM     26  C   UNL     1       3.607   7.129  17.542  0.00  0.00    +0.000 A 
BRANCH  24  27
ATOM     27  O   UNL     1       4.581   4.164  19.539  0.00  0.00    +0.000 OA
BRANCH  27  28
ATOM     28  C   UNL     1       3.877   2.930  19.522  0.00  0.00    +0.000 C 
ATOM     29  F   UNL     1       2.972   2.790  20.511  0.00  0.00    +0.000 F 
ATOM     30  F   UNL     1       3.253   2.787  18.332  0.00  0.00    +0.000 F 
ATOM     31  F   UNL     1       4.776   1.926  19.645  0.00  0.00    +0.000 F 
ENDBRANCH  27  28
ENDBRANCH  24  27
ENDBRANCH  20  21
ENDBRANCH   8  20
TORSDOF 5
ENDMDL
