MODEL 1
REMARK VINA RESULT:      -8.5      0.000      0.000
REMARK  Name = 
REMARK  4 active torsions:
REMARK  status: ('A' for Active; 'I' for Inactive)
REMARK    1  A    between atoms: C_4  and  C_5
REMARK    2  A    between atoms: N_9  and  C_10
REMARK    3  A    between atoms: C_10  and  C_11
REMARK    4  A    between atoms: N_14  and  C_15
REMARK                            x       y       z     vdW  Elec       q    Type
REMARK                         _______ _______ _______ _____ _____    ______ ____
ROOT
ATOM      1  C   UNL     1       5.167   5.321  19.236  0.00  0.00    +0.000 C 
ENDROOT
BRANCH   1   6
ATOM      2  C   UNL     1       2.689   5.003  19.359  0.00  0.00    +0.000 C 
ATOM      3  C   UNL     1       2.392   4.386  20.724  0.00  0.00    +0.000 C 
ATOM      4  C   UNL     1       2.920   2.980  20.563  0.00  0.00    +0.000 C 
ATOM      5  C   UNL     1       4.130   3.150  19.651  0.00  0.00    +0.000 C 
ATOM      6  N   UNL     1       4.006   4.458  18.956  0.00  0.00    +0.000 NA
BRANCH   2  10
ATOM      7  C   UNL     1       1.543   9.148  18.901  0.00  0.00    +0.000 A 
ATOM      8  C   UNL     1       1.465   8.552  20.154  0.00  0.00    +0.000 A 
ATOM      9  C   UNL     1       1.906   7.239  20.334  0.00  0.00    +0.000 A 
ATOM     10  C   UNL     1       2.413   6.492  19.258  0.00  0.00    +0.000 A 
ATOM     11  C   UNL     1       2.542   7.133  18.015  0.00  0.00    +0.000 A 
ATOM     12  C   UNL     1       2.104   8.446  17.836  0.00  0.00    +0.000 A 
ENDBRANCH   2  10
ENDBRANCH   1   6
BRANCH   1  13
ATOM     13  C   UNL     1       6.018   5.461  17.997  0.00  0.00    +0.000 A 
ATOM     14  C   UNL     1       6.972   6.450  17.698  0.00  0.00    +0.000 A 
ATOM     15  N   UNL     1       7.472   6.259  16.476  0.00  0.00    +0.000 NA
ATOM     16  N   UNL     1       6.729   5.210  16.025  0.00  0.00    +0.000 N 
ATOM     17  N   UNL     1       5.909   4.627  16.949  0.00  0.00    +0.000 NA
BRANCH  16  18
ATOM     18  C   UNL     1       6.673   4.875  14.645  0.00  0.00    +0.000 A 
ATOM     19  C   UNL     1       5.729   3.943  14.189  0.00  0.00    +0.000 A 
ATOM     20  C   UNL     1       5.797   3.461  12.880  0.00  0.00    +0.000 A 
ATOM     21  C   UNL     1       6.793   3.922  12.019  0.00  0.00    +0.000 A 
ATOM     22  C   UNL     1       7.694   4.898  12.449  0.00  0.00    +0.000 A 
ATOM     23  C   UNL     1       7.631   5.383  13.757  0.00  0.00    +0.000 A 
ENDBRANCH  16  18
ENDBRANCH   1  13
TORSDOF 4
ENDMDL
MODEL 2
REMARK VINA RESULT:      -8.5      0.743      1.249
REMARK  Name = 
REMARK  4 active torsions:
REMARK  status: ('A' for Active; 'I' for Inactive)
REMARK    1  A    between atoms: C_4  and  C_5
REMARK    2  A    between atoms: N_9  and  C_10
REMARK    3  A    between atoms: C_10  and  C_11
REMARK    4  A    between atoms: N_14  and  C_15
REMARK                            x       y       z     vdW  Elec       q    Type
REMARK                         _______ _______ _______ _____ _____    ______ ____
ROOT
ATOM      1  C   UNL     1       5.015   4.867  19.177  0.00  0.00    +0.000 C 
ENDROOT
BRANCH   1   6
ATOM      2  C   UNL     1       2.575   4.463  19.541  0.00  0.00    +0.000 C 
ATOM      3  C   UNL     1       2.419   3.982  20.982  0.00  0.00    +0.000 C 
ATOM      4  C   UNL     1       3.000   2.590  20.922  0.00  0.00    +0.000 C 
ATOM      5  C   UNL     1       4.124   2.712  19.898  0.00  0.00    +0.000 C 
ATOM      6  N   UNL     1       3.880   3.932  19.086  0.00  0.00    +0.000 NA
BRANCH   2  10
ATOM      7  C   UNL     1       1.922   8.709  19.049  0.00  0.00    +0.000 A 
ATOM      8  C   UNL     1       2.251   7.936  17.942  0.00  0.00    +0.000 A 
ATOM      9  C   UNL     1       2.387   6.551  18.070  0.00  0.00    +0.000 A 
ATOM     10  C   UNL     1       2.217   5.920  19.312  0.00  0.00    +0.000 A 
ATOM     11  C   UNL     1       1.823   6.710  20.405  0.00  0.00    +0.000 A 
ATOM     12  C   UNL     1       1.685   8.093  20.276  0.00  0.00    +0.000 A 
ENDBRANCH   2  10
ENDBRANCH   1   6
BRANCH   1  13
ATOM     13  C   UNL     1       5.971   4.633  18.032  0.00  0.00    +0.000 A 
ATOM     14  C   UNL     1       7.372   4.755  18.023  0.00  0.00    +0.000 A 
ATOM     15  N   UNL     1       7.851   4.517  16.800  0.00  0.00    +0.000 NA
ATOM     16  N   UNL     1       6.710   4.354  16.074  0.00  0.00    +0.000 N 
ATOM     17  N   UNL     1       5.552   4.311  16.796  0.00  0.00    +0.000 NA
BRANCH  16  18
ATOM     18  C   UNL     1       6.715   4.418  14.654  0.00  0.00    +0.000 A 
ATOM     19  C   UNL     1       5.901   3.548  13.912  0.00  0.00    +0.000 A 
ATOM     20  C   UNL     1       6.047   3.467  12.526  0.00  0.00    +0.000 A 
ATOM     21  C   UNL     1       6.989   4.264  11.876  0.00  0.00    +0.000 A 
ATOM     22  C   UNL     1       7.754   5.178  12.603  0.00  0.00    +0.000 A 
ATOM     23  C   UNL     1       7.614   5.264  13.990  0.00  0.00    +0.000 A 
ENDBRANCH  16  18
ENDBRANCH   1  13
TORSDOF 4
ENDMDL
MODEL 3
REMARK VINA RESULT:      -8.2      0.396      1.475
REMARK  Name = 
REMARK  4 active torsions:
REMARK  status: ('A' for Active; 'I' for Inactive)
REMARK    1  A    between atoms: C_4  and  C_5
REMARK    2  A    between atoms: N_9  and  C_10
REMARK    3  A    between atoms: C_10  and  C_11
REMARK    4  A    between atoms: N_14  and  C_15
REMARK                            x       y       z     vdW  Elec       q    Type
REMARK                         _______ _______ _______ _____ _____    ______ ____
ROOT
ATOM      1  C   UNL     1       5.223   5.118  19.253  0.00  0.00    +0.000 C 
ENDROOT
BRANCH   1   6
ATOM      2  C   UNL     1       2.796   4.515  19.295  0.00  0.00    +0.000 C 
ATOM      3  C   UNL     1       2.521   3.897  20.665  0.00  0.00    +0.000 C 
ATOM      4  C   UNL     1       3.213   2.560  20.560  0.00  0.00    +0.000 C 
ATOM      5  C   UNL     1       4.430   2.850  19.688  0.00  0.00    +0.000 C 
ATOM      6  N   UNL     1       4.182   4.118  18.955  0.00  0.00    +0.000 NA
BRANCH   2  10
ATOM      7  C   UNL     1       1.893   8.736  19.034  0.00  0.00    +0.000 A 
ATOM      8  C   UNL     1       2.262   8.044  17.887  0.00  0.00    +0.000 A 
ATOM      9  C   UNL     1       2.479   6.665  17.940  0.00  0.00    +0.000 A 
ATOM     10  C   UNL     1       2.353   5.959  19.146  0.00  0.00    +0.000 A 
ATOM     11  C   UNL     1       1.918   6.665  20.280  0.00  0.00    +0.000 A 
ATOM     12  C   UNL     1       1.698   8.042  20.227  0.00  0.00    +0.000 A 
ENDBRANCH   2  10
ENDBRANCH   1   6
BRANCH   1  13
ATOM     13  C   UNL     1       6.042   5.396  18.017  0.00  0.00    +0.000 A 
ATOM     14  C   UNL     1       6.698   6.585  17.651  0.00  0.00    +0.000 A 
ATOM     15  N   UNL     1       7.271   6.451  16.453  0.00  0.00    +0.000 NA
ATOM     16  N   UNL     1       6.858   5.208  16.078  0.00  0.00    +0.000 N 
ATOM     17  N   UNL     1       6.200   4.490  17.036  0.00  0.00    +0.000 NA
BRANCH  16  18
ATOM     18  C   UNL     1       6.940   4.771  14.728  0.00  0.00    +0.000 A 
ATOM     19  C   UNL     1       7.794   5.430  13.830  0.00  0.00    +0.000 A 
ATOM     20  C   UNL     1       7.733   5.138  12.466  0.00  0.00    +0.000 A 
ATOM     21  C   UNL     1       6.836   4.178  11.998  0.00  0.00    +0.000 A 
ATOM     22  C   UNL     1       6.032   3.474  12.896  0.00  0.00    +0.000 A 
ATOM     23  C   UNL     1       6.088   3.761  14.261  0.00  0.00    +0.000 A 
ENDBRANCH  16  18
ENDBRANCH   1  13
TORSDOF 4
ENDMDL
MODEL 4
REMARK VINA RESULT:      -8.2      2.673      7.636
REMARK  Name = 
REMARK  4 active torsions:
REMARK  status: ('A' for Active; 'I' for Inactive)
REMARK    1  A    between atoms: C_4  and  C_5
REMARK    2  A    between atoms: N_9  and  C_10
REMARK    3  A    between atoms: C_10  and  C_11
REMARK    4  A    between atoms: N_14  and  C_15
REMARK                            x       y       z     vdW  Elec       q    Type
REMARK                         _______ _______ _______ _____ _____    ______ ____
ROOT
ATOM      1  C   UNL     1       3.811   6.365  18.694  0.00  0.00    +0.000 C 
ENDROOT
BRANCH   1   6
ATOM      2  C   UNL     1       3.380   4.157  17.602  0.00  0.00    +0.000 C 
ATOM      3  C   UNL     1       4.745   3.533  17.319  0.00  0.00    +0.000 C 
ATOM      4  C   UNL     1       5.261   4.388  16.188  0.00  0.00    +0.000 C 
ATOM      5  C   UNL     1       4.709   5.775  16.501  0.00  0.00    +0.000 C 
ATOM      6  N   UNL     1       3.573   5.617  17.447  0.00  0.00    +0.000 NA
BRANCH   2  10
ATOM      7  C   UNL     1       1.478   2.910  21.281  0.00  0.00    +0.000 A 
ATOM      8  C   UNL     1       0.704   3.450  20.261  0.00  0.00    +0.000 A 
ATOM      9  C   UNL     1       1.291   3.784  19.037  0.00  0.00    +0.000 A 
ATOM     10  C   UNL     1       2.666   3.603  18.822  0.00  0.00    +0.000 A 
ATOM     11  C   UNL     1       3.419   2.998  19.843  0.00  0.00    +0.000 A 
ATOM     12  C   UNL     1       2.832   2.662  21.064  0.00  0.00    +0.000 A 
ENDBRANCH   2  10
ENDBRANCH   1   6
BRANCH   1  13
ATOM     13  C   UNL     1       2.749   7.422  18.874  0.00  0.00    +0.000 A 
ATOM     14  C   UNL     1       2.355   8.429  17.975  0.00  0.00    +0.000 A 
ATOM     15  N   UNL     1       1.418   9.204  18.526  0.00  0.00    +0.000 NA
ATOM     16  N   UNL     1       1.341   8.702  19.790  0.00  0.00    +0.000 N 
ATOM     17  N   UNL     1       2.051   7.557  20.015  0.00  0.00    +0.000 NA
BRANCH  16  18
ATOM     18  C   UNL     1       0.721   9.427  20.844  0.00  0.00    +0.000 A 
ATOM     19  C   UNL     1       0.769   8.933  22.156  0.00  0.00    +0.000 A 
ATOM     20  C   UNL     1      -0.002   9.530  23.156  0.00  0.00    +0.000 A 
ATOM     21  C   UNL     1      -0.804  10.630  22.855  0.00  0.00    +0.000 A 
ATOM     22  C   UNL     1      -0.803  11.165  21.565  0.00  0.00    +0.000 A 
ATOM     23  C   UNL     1      -0.035  10.573  20.560  0.00  0.00    +0.000 A 
ENDBRANCH  16  18
ENDBRANCH   1  13
TORSDOF 4
ENDMDL
MODEL 5
REMARK VINA RESULT:      -8.1      0.623      1.181
REMARK  Name = 
REMARK  4 active torsions:
REMARK  status: ('A' for Active; 'I' for Inactive)
REMARK    1  A    between atoms: C_4  and  C_5
REMARK    2  A    between atoms: N_9  and  C_10
REMARK    3  A    between atoms: C_10  and  C_11
REMARK    4  A    between atoms: N_14  and  C_15
REMARK                            x       y       z     vdW  Elec       q    Type
REMARK                         _______ _______ _______ _____ _____    ______ ____
ROOT
ATOM      1  C   UNL     1       4.811   4.549  19.069  0.00  0.00    +0.000 C 
ENDROOT
BRANCH   1   6
ATOM      2  C   UNL     1       2.310   4.567  19.038  0.00  0.00    +0.000 C 
ATOM      3  C   UNL     1       1.850   3.810  20.282  0.00  0.00    +0.000 C 
ATOM      4  C   UNL     1       2.195   2.382  19.935  0.00  0.00    +0.000 C 
ATOM      5  C   UNL     1       3.472   2.508  19.111  0.00  0.00    +0.000 C 
ATOM      6  N   UNL     1       3.566   3.905  18.615  0.00  0.00    +0.000 NA
BRANCH   2  10
ATOM      7  C   UNL     1       1.735   8.850  19.198  0.00  0.00    +0.000 A 
ATOM      8  C   UNL     1       1.637   8.104  20.366  0.00  0.00    +0.000 A 
ATOM      9  C   UNL     1       1.898   6.731  20.345  0.00  0.00    +0.000 A 
ATOM     10  C   UNL     1       2.241   6.079  19.150  0.00  0.00    +0.000 A 
ATOM     11  C   UNL     1       2.397   6.862  17.994  0.00  0.00    +0.000 A 
ATOM     12  C   UNL     1       2.139   8.233  18.016  0.00  0.00    +0.000 A 
ENDBRANCH   2  10
ENDBRANCH   1   6
BRANCH   1  13
ATOM     13  C   UNL     1       5.612   5.022  17.881  0.00  0.00    +0.000 A 
ATOM     14  C   UNL     1       6.029   6.328  17.571  0.00  0.00    +0.000 A 
ATOM     15  N   UNL     1       6.671   6.347  16.401  0.00  0.00    +0.000 NA
ATOM     16  N   UNL     1       6.537   5.057  15.983  0.00  0.00    +0.000 N 
ATOM     17  N   UNL     1       5.995   4.195  16.893  0.00  0.00    +0.000 NA
BRANCH  16  18
ATOM     18  C   UNL     1       6.768   4.684  14.631  0.00  0.00    +0.000 A 
ATOM     19  C   UNL     1       7.708   5.387  13.862  0.00  0.00    +0.000 A 
ATOM     20  C   UNL     1       7.797   5.159  12.487  0.00  0.00    +0.000 A 
ATOM     21  C   UNL     1       6.964   4.220  11.881  0.00  0.00    +0.000 A 
ATOM     22  C   UNL     1       6.073   3.472  12.653  0.00  0.00    +0.000 A 
ATOM     23  C   UNL     1       5.979   3.694  14.028  0.00  0.00    +0.000 A 
ENDBRANCH  16  18
ENDBRANCH   1  13
TORSDOF 4
ENDMDL
MODEL 6
REMARK VINA RESULT:      -8.0      2.700      7.686
REMARK  Name = 
REMARK  4 active torsions:
REMARK  status: ('A' for Active; 'I' for Inactive)
REMARK    1  A    between atoms: C_4  and  C_5
REMARK    2  A    between atoms: N_9  and  C_10
REMARK    3  A    between atoms: C_10  and  C_11
REMARK    4  A    between atoms: N_14  and  C_15
REMARK                            x       y       z     vdW  Elec       q    Type
REMARK                         _______ _______ _______ _____ _____    ______ ____
ROOT
ATOM      1  C   UNL     1       3.773   6.522  18.693  0.00  0.00    +0.000 C 
ENDROOT
BRANCH   1   6
ATOM      2  C   UNL     1       3.456   4.300  17.589  0.00  0.00    +0.000 C 
ATOM      3  C   UNL     1       4.850   3.723  17.353  0.00  0.00    +0.000 C 
ATOM      4  C   UNL     1       5.376   4.597  16.240  0.00  0.00    +0.000 C 
ATOM      5  C   UNL     1       4.766   5.963  16.533  0.00  0.00    +0.000 C 
ATOM      6  N   UNL     1       3.604   5.766  17.439  0.00  0.00    +0.000 NA
BRANCH   2  10
ATOM      7  C   UNL     1       1.482   2.982  21.203  0.00  0.00    +0.000 A 
ATOM      8  C   UNL     1       0.726   3.529  20.173  0.00  0.00    +0.000 A 
ATOM      9  C   UNL     1       1.338   3.886  18.969  0.00  0.00    +0.000 A 
ATOM     10  C   UNL     1       2.720   3.722  18.783  0.00  0.00    +0.000 A 
ATOM     11  C   UNL     1       3.454   3.110  19.812  0.00  0.00    +0.000 A 
ATOM     12  C   UNL     1       2.842   2.750  21.014  0.00  0.00    +0.000 A 
ENDBRANCH   2  10
ENDBRANCH   1   6
BRANCH   1  13
ATOM     13  C   UNL     1       2.667   7.538  18.838  0.00  0.00    +0.000 A 
ATOM     14  C   UNL     1       2.322   8.587  17.967  0.00  0.00    +0.000 A 
ATOM     15  N   UNL     1       1.317   9.303  18.476  0.00  0.00    +0.000 NA
ATOM     16  N   UNL     1       1.145   8.723  19.696  0.00  0.00    +0.000 N 
ATOM     17  N   UNL     1       1.868   7.586  19.918  0.00  0.00    +0.000 NA
BRANCH  16  18
ATOM     18  C   UNL     1       0.413   9.368  20.730  0.00  0.00    +0.000 A 
ATOM     19  C   UNL     1      -0.241  10.582  20.472  0.00  0.00    +0.000 A 
ATOM     20  C   UNL     1      -0.791  11.317  21.524  0.00  0.00    +0.000 A 
ATOM     21  C   UNL     1      -0.708  10.835  22.830  0.00  0.00    +0.000 A 
ATOM     22  C   UNL     1      -0.117   9.596  23.082  0.00  0.00    +0.000 A 
ATOM     23  C   UNL     1       0.436   8.856  22.035  0.00  0.00    +0.000 A 
ENDBRANCH  16  18
ENDBRANCH   1  13
TORSDOF 4
ENDMDL
MODEL 7
REMARK VINA RESULT:      -8.0      1.486      3.033
REMARK  Name = 
REMARK  4 active torsions:
REMARK  status: ('A' for Active; 'I' for Inactive)
REMARK    1  A    between atoms: C_4  and  C_5
REMARK    2  A    between atoms: N_9  and  C_10
REMARK    3  A    between atoms: C_10  and  C_11
REMARK    4  A    between atoms: N_14  and  C_15
REMARK                            x       y       z     vdW  Elec       q    Type
REMARK                         _______ _______ _______ _____ _____    ______ ____
ROOT
ATOM      1  C   UNL     1       5.032   4.325  18.947  0.00  0.00    +0.000 C 
ENDROOT
BRANCH   1   6
ATOM      2  C   UNL     1       3.098   5.857  19.359  0.00  0.00    +0.000 C 
ATOM      3  C   UNL     1       2.591   6.302  17.989  0.00  0.00    +0.000 C 
ATOM      4  C   UNL     1       3.685   7.234  17.528  0.00  0.00    +0.000 C 
ATOM      5  C   UNL     1       4.955   6.615  18.104  0.00  0.00    +0.000 C 
ATOM      6  N   UNL     1       4.563   5.698  19.205  0.00  0.00    +0.000 NA
BRANCH   2  10
ATOM      7  C   UNL     1       1.000   2.484  21.068  0.00  0.00    +0.000 A 
ATOM      8  C   UNL     1       1.857   3.231  21.867  0.00  0.00    +0.000 A 
ATOM      9  C   UNL     1       2.480   4.370  21.352  0.00  0.00    +0.000 A 
ATOM     10  C   UNL     1       2.274   4.768  20.021  0.00  0.00    +0.000 A 
ATOM     11  C   UNL     1       1.355   4.036  19.250  0.00  0.00    +0.000 A 
ATOM     12  C   UNL     1       0.730   2.900  19.766  0.00  0.00    +0.000 A 
ENDBRANCH   2  10
ENDBRANCH   1   6
BRANCH   1  13
ATOM     13  C   UNL     1       6.009   4.320  17.797  0.00  0.00    +0.000 A 
ATOM     14  C   UNL     1       7.359   4.709  17.794  0.00  0.00    +0.000 A 
ATOM     15  N   UNL     1       7.869   4.612  16.564  0.00  0.00    +0.000 NA
ATOM     16  N   UNL     1       6.777   4.258  15.831  0.00  0.00    +0.000 N 
ATOM     17  N   UNL     1       5.652   3.967  16.549  0.00  0.00    +0.000 NA
BRANCH  16  18
ATOM     18  C   UNL     1       6.762   4.371  14.414  0.00  0.00    +0.000 A 
ATOM     19  C   UNL     1       5.928   3.538  13.655  0.00  0.00    +0.000 A 
ATOM     20  C   UNL     1       6.052   3.504  12.264  0.00  0.00    +0.000 A 
ATOM     21  C   UNL     1       6.993   4.313  11.629  0.00  0.00    +0.000 A 
ATOM     22  C   UNL     1       7.780   5.192  12.376  0.00  0.00    +0.000 A 
ATOM     23  C   UNL     1       7.660   5.231  13.767  0.00  0.00    +0.000 A 
ENDBRANCH  16  18
ENDBRANCH   1  13
TORSDOF 4
ENDMDL
MODEL 8
REMARK VINA RESULT:      -8.0      2.627      7.542
REMARK  Name = 
REMARK  4 active torsions:
REMARK  status: ('A' for Active; 'I' for Inactive)
REMARK    1  A    between atoms: C_4  and  C_5
REMARK    2  A    between atoms: N_9  and  C_10
REMARK    3  A    between atoms: C_10  and  C_11
REMARK    4  A    between atoms: N_14  and  C_15
REMARK                            x       y       z     vdW  Elec       q    Type
REMARK                         _______ _______ _______ _____ _____    ______ ____
ROOT
ATOM      1  C   UNL     1       3.936   6.470  18.480  0.00  0.00    +0.000 C 
ENDROOT
BRANCH   1   6
ATOM      2  C   UNL     1       3.391   4.157  17.701  0.00  0.00    +0.000 C 
ATOM      3  C   UNL     1       4.722   3.458  17.434  0.00  0.00    +0.000 C 
ATOM      4  C   UNL     1       5.202   4.147  16.180  0.00  0.00    +0.000 C 
ATOM      5  C   UNL     1       4.703   5.579  16.340  0.00  0.00    +0.000 C 
ATOM      6  N   UNL     1       3.614   5.578  17.351  0.00  0.00    +0.000 NA
BRANCH   2  10
ATOM      7  C   UNL     1       1.370   2.756  21.258  0.00  0.00    +0.000 A 
ATOM      8  C   UNL     1       2.753   2.654  21.174  0.00  0.00    +0.000 A 
ATOM      9  C   UNL     1       3.428   3.174  20.066  0.00  0.00    +0.000 A 
ATOM     10  C   UNL     1       2.728   3.785  19.014  0.00  0.00    +0.000 A 
ATOM     11  C   UNL     1       1.337   3.935  19.148  0.00  0.00    +0.000 A 
ATOM     12  C   UNL     1       0.664   3.418  20.256  0.00  0.00    +0.000 A 
ENDBRANCH   2  10
ENDBRANCH   1   6
BRANCH   1  13
ATOM     13  C   UNL     1       2.825   7.472  18.680  0.00  0.00    +0.000 A 
ATOM     14  C   UNL     1       2.330   8.424  17.771  0.00  0.00    +0.000 A 
ATOM     15  N   UNL     1       1.380   9.164  18.344  0.00  0.00    +0.000 NA
ATOM     16  N   UNL     1       1.395   8.704  19.626  0.00  0.00    +0.000 N 
ATOM     17  N   UNL     1       2.179   7.608  19.851  0.00  0.00    +0.000 NA
BRANCH  16  18
ATOM     18  C   UNL     1       0.787   9.431  20.686  0.00  0.00    +0.000 A 
ATOM     19  C   UNL     1       0.543   8.800  21.916  0.00  0.00    +0.000 A 
ATOM     20  C   UNL     1      -0.227   9.441  22.889  0.00  0.00    +0.000 A 
ATOM     21  C   UNL     1      -0.739  10.715  22.645  0.00  0.00    +0.000 A 
ATOM     22  C   UNL     1      -0.443  11.372  21.449  0.00  0.00    +0.000 A 
ATOM     23  C   UNL     1       0.327  10.737  20.472  0.00  0.00    +0.000 A 
ENDBRANCH  16  18
ENDBRANCH   1  13
TORSDOF 4
ENDMDL
MODEL 9
REMARK VINA RESULT:      -8.0      2.661      7.614
REMARK  Name = 
REMARK  4 active torsions:
REMARK  status: ('A' for Active; 'I' for Inactive)
REMARK    1  A    between atoms: C_4  and  C_5
REMARK    2  A    between atoms: N_9  and  C_10
REMARK    3  A    between atoms: C_10  and  C_11
REMARK    4  A    between atoms: N_14  and  C_15
REMARK                            x       y       z     vdW  Elec       q    Type
REMARK                         _______ _______ _______ _____ _____    ______ ____
ROOT
ATOM      1  C   UNL     1       3.912   6.620  18.541  0.00  0.00    +0.000 C 
ENDROOT
BRANCH   1   6
ATOM      2  C   UNL     1       3.465   4.299  17.722  0.00  0.00    +0.000 C 
ATOM      3  C   UNL     1       4.825   3.645  17.492  0.00  0.00    +0.000 C 
ATOM      4  C   UNL     1       5.324   4.361  16.261  0.00  0.00    +0.000 C 
ATOM      5  C   UNL     1       4.775   5.776  16.419  0.00  0.00    +0.000 C 
ATOM      6  N   UNL     1       3.655   5.731  17.394  0.00  0.00    +0.000 NA
BRANCH   2  10
ATOM      7  C   UNL     1       1.368   2.803  21.196  0.00  0.00    +0.000 A 
ATOM      8  C   UNL     1       2.754   2.718  21.146  0.00  0.00    +0.000 A 
ATOM      9  C   UNL     1       3.451   3.269  20.068  0.00  0.00    +0.000 A 
ATOM     10  C   UNL     1       2.772   3.893  19.010  0.00  0.00    +0.000 A 
ATOM     11  C   UNL     1       1.376   4.025  19.110  0.00  0.00    +0.000 A 
ATOM     12  C   UNL     1       0.680   3.478  20.189  0.00  0.00    +0.000 A 
ENDBRANCH   2  10
ENDBRANCH   1   6
BRANCH   1  13
ATOM     13  C   UNL     1       2.765   7.586  18.714  0.00  0.00    +0.000 A 
ATOM     14  C   UNL     1       2.348   8.613  17.850  0.00  0.00    +0.000 A 
ATOM     15  N   UNL     1       1.327   9.285  18.385  0.00  0.00    +0.000 NA
ATOM     16  N   UNL     1       1.218   8.706  19.613  0.00  0.00    +0.000 N 
ATOM     17  N   UNL     1       1.998   7.604  19.818  0.00  0.00    +0.000 NA
BRANCH  16  18
ATOM     18  C   UNL     1       0.488   9.323  20.666  0.00  0.00    +0.000 A 
ATOM     19  C   UNL     1      -0.210  10.516  20.427  0.00  0.00    +0.000 A 
ATOM     20  C   UNL     1      -0.761  11.229  21.494  0.00  0.00    +0.000 A 
ATOM     21  C   UNL     1      -0.633  10.745  22.795  0.00  0.00    +0.000 A 
ATOM     22  C   UNL     1       0.004   9.525  23.030  0.00  0.00    +0.000 A 
ATOM     23  C   UNL     1       0.557   8.807  21.967  0.00  0.00    +0.000 A 
ENDBRANCH  16  18
ENDBRANCH   1  13
TORSDOF 4
ENDMDL
