MODEL 1
REMARK VINA RESULT:      -8.0      0.000      0.000
REMARK  Name = 
REMARK  11 active torsions:
REMARK  status: ('A' for Active; 'I' for Inactive)
REMARK    1  A    between atoms: C_2  and  C_25
REMARK    2  A    between atoms: N_3  and  C_4
REMARK    3  A    between atoms: C_4  and  C_5
REMARK    4  A    between atoms: C_5  and  C_6
REMARK    5  A    between atoms: C_6  and  C_7
REMARK    6  A    between atoms: C_7  and  C_8
REMARK    7  A    between atoms: C_8  and  C_9
REMARK    8  A    between atoms: C_9  and  C_10
REMARK    9  A    between atoms: C_10  and  C_11
REMARK   10  A    between atoms: C_11  and  N_12
REMARK   11  A    between atoms: C_13  and  C_15
REMARK                            x       y       z     vdW  Elec       q    Type
REMARK                         _______ _______ _______ _____ _____    ______ ____
ROOT
ATOM      1  C   UNL     1       2.441   5.003  20.400  0.00  0.00    +0.000 C 
ENDROOT
BRANCH   1   2
ATOM      2  C   UNL     1       1.641   3.705  20.297  0.00  0.00    +0.000 C 
BRANCH   2   3
ATOM      3  C   UNL     1       2.541   2.480  20.457  0.00  0.00    +0.000 C 
BRANCH   3   4
ATOM      4  C   UNL     1       2.818   1.824  19.106  0.00  0.00    +0.000 C 
BRANCH   4   7
ATOM      5  O   UNL     1       2.483   3.242  16.711  0.00  0.00    +0.000 OA
ATOM      6  C   UNL     1       3.588   3.203  17.212  0.00  0.00    +0.000 C 
ATOM      7  N   UNL     1       3.865   2.512  18.383  0.00  0.00    +0.000 N 
ATOM      8  H   UNL     1       4.790   2.533  18.783  0.00  0.00    +0.000 HD
BRANCH   6   9
ATOM      9  C   UNL     1       4.755   3.903  16.587  0.00  0.00    +0.000 A 
ATOM     10  C   UNL     1       4.887   3.807  15.192  0.00  0.00    +0.000 A 
ATOM     11  C   UNL     1       5.940   4.432  14.539  0.00  0.00    +0.000 A 
ATOM     12  C   UNL     1       6.858   5.177  15.272  0.00  0.00    +0.000 A 
ATOM     13  C   UNL     1       6.747   5.302  16.667  0.00  0.00    +0.000 A 
ATOM     14  C   UNL     1       7.687   6.069  17.380  0.00  0.00    +0.000 A 
ATOM     15  C   UNL     1       7.608   6.202  18.764  0.00  0.00    +0.000 A 
ATOM     16  C   UNL     1       6.611   5.539  19.463  0.00  0.00    +0.000 A 
ATOM     17  C   UNL     1       5.686   4.754  18.771  0.00  0.00    +0.000 A 
ATOM     18  C   UNL     1       5.696   4.645  17.358  0.00  0.00    +0.000 A 
ENDBRANCH   6   9
ENDBRANCH   4   7
ENDBRANCH   3   4
ENDBRANCH   2   3
ENDBRANCH   1   2
BRANCH   1  19
ATOM     19  C   UNL     1       2.312   5.827  19.117  0.00  0.00    +0.000 C 
BRANCH  19  20
ATOM     20  C   UNL     1       2.554   7.313  19.384  0.00  0.00    +0.000 C 
BRANCH  20  21
ATOM     21  C   UNL     1       3.059   8.027  18.128  0.00  0.00    +0.000 C 
BRANCH  21  22
ATOM     22  C   UNL     1       1.921   8.753  17.416  0.00  0.00    +0.000 C 
BRANCH  22  23
ATOM     23  N   UNL     1       1.057   9.459  18.339  0.00  0.00    +0.000 N 
ATOM     24  C   UNL     1       1.287  10.793  18.618  0.00  0.00    +0.000 C 
ATOM     25  O   UNL     1       2.221  11.408  18.115  0.00  0.00    +0.000 OA
ATOM     26  H   UNL     1       0.187   9.031  18.620  0.00  0.00    +0.000 HD
BRANCH  24  27
ATOM     27  C   UNL     1       0.334  11.448  19.565  0.00  0.00    +0.000 A 
ATOM     28  C   UNL     1      -0.329  12.609  19.135  0.00  0.00    +0.000 A 
ATOM     29  C   UNL     1      -1.237  13.250  19.972  0.00  0.00    +0.000 A 
ATOM     30  C   UNL     1      -1.494  12.731  21.237  0.00  0.00    +0.000 A 
ATOM     31  C   UNL     1      -0.866  11.558  21.685  0.00  0.00    +0.000 A 
ATOM     32  C   UNL     1      -1.163  11.042  22.956  0.00  0.00    +0.000 A 
ATOM     33  C   UNL     1      -0.564   9.872  23.418  0.00  0.00    +0.000 A 
ATOM     34  C   UNL     1       0.351   9.206  22.618  0.00  0.00    +0.000 A 
ATOM     35  C   UNL     1       0.666   9.712  21.364  0.00  0.00    +0.000 A 
ATOM     36  C   UNL     1       0.066  10.891  20.847  0.00  0.00    +0.000 A 
ENDBRANCH  24  27
ENDBRANCH  22  23
ENDBRANCH  21  22
ENDBRANCH  20  21
ENDBRANCH  19  20
ENDBRANCH   1  19
TORSDOF 11
ENDMDL
MODEL 2
REMARK VINA RESULT:      -8.0      1.944      2.736
REMARK  Name = 
REMARK  11 active torsions:
REMARK  status: ('A' for Active; 'I' for Inactive)
REMARK    1  A    between atoms: C_2  and  C_25
REMARK    2  A    between atoms: N_3  and  C_4
REMARK    3  A    between atoms: C_4  and  C_5
REMARK    4  A    between atoms: C_5  and  C_6
REMARK    5  A    between atoms: C_6  and  C_7
REMARK    6  A    between atoms: C_7  and  C_8
REMARK    7  A    between atoms: C_8  and  C_9
REMARK    8  A    between atoms: C_9  and  C_10
REMARK    9  A    between atoms: C_10  and  C_11
REMARK   10  A    between atoms: C_11  and  N_12
REMARK   11  A    between atoms: C_13  and  C_15
REMARK                            x       y       z     vdW  Elec       q    Type
REMARK                         _______ _______ _______ _____ _____    ______ ____
ROOT
ATOM      1  C   UNL     1       1.576   2.854  20.949  0.00  0.00    +0.000 C 
ENDROOT
BRANCH   1   2
ATOM      2  C   UNL     1       0.861   2.900  19.599  0.00  0.00    +0.000 C 
BRANCH   2   3
ATOM      3  C   UNL     1       1.257   1.718  18.716  0.00  0.00    +0.000 C 
BRANCH   3   4
ATOM      4  C   UNL     1       2.770   1.511  18.724  0.00  0.00    +0.000 C 
BRANCH   4   7
ATOM      5  O   UNL     1       4.922   3.087  19.585  0.00  0.00    +0.000 OA
ATOM      6  C   UNL     1       4.521   3.225  18.448  0.00  0.00    +0.000 C 
ATOM      7  N   UNL     1       3.451   2.510  17.930  0.00  0.00    +0.000 N 
ATOM      8  H   UNL     1       3.171   2.631  16.969  0.00  0.00    +0.000 HD
BRANCH   6   9
ATOM      9  C   UNL     1       5.160   4.199  17.506  0.00  0.00    +0.000 A 
ATOM     10  C   UNL     1       4.710   4.190  16.175  0.00  0.00    +0.000 A 
ATOM     11  C   UNL     1       5.250   5.066  15.244  0.00  0.00    +0.000 A 
ATOM     12  C   UNL     1       6.228   5.973  15.639  0.00  0.00    +0.000 A 
ATOM     13  C   UNL     1       6.690   6.015  16.965  0.00  0.00    +0.000 A 
ATOM     14  C   UNL     1       7.675   6.948  17.336  0.00  0.00    +0.000 A 
ATOM     15  C   UNL     1       8.159   7.005  18.641  0.00  0.00    +0.000 A 
ATOM     16  C   UNL     1       7.696   6.104  19.586  0.00  0.00    +0.000 A 
ATOM     17  C   UNL     1       6.737   5.155  19.227  0.00  0.00    +0.000 A 
ATOM     18  C   UNL     1       6.174   5.107  17.927  0.00  0.00    +0.000 A 
ENDBRANCH   6   9
ENDBRANCH   4   7
ENDBRANCH   3   4
ENDBRANCH   2   3
ENDBRANCH   1   2
BRANCH   1  19
ATOM     19  C   UNL     1       2.148   4.226  21.311  0.00  0.00    +0.000 C 
BRANCH  19  20
ATOM     20  C   UNL     1       2.003   5.213  20.153  0.00  0.00    +0.000 C 
BRANCH  20  21
ATOM     21  C   UNL     1       1.900   6.653  20.661  0.00  0.00    +0.000 C 
BRANCH  21  22
ATOM     22  C   UNL     1       2.207   7.650  19.547  0.00  0.00    +0.000 C 
BRANCH  22  23
ATOM     23  N   UNL     1       1.348   8.814  19.599  0.00  0.00    +0.000 N 
ATOM     24  C   UNL     1       1.100   9.541  18.450  0.00  0.00    +0.000 C 
ATOM     25  O   UNL     1       1.601   9.240  17.372  0.00  0.00    +0.000 OA
ATOM     26  H   UNL     1       0.786   8.972  20.423  0.00  0.00    +0.000 HD
BRANCH  24  27
ATOM     27  C   UNL     1       0.184  10.714  18.590  0.00  0.00    +0.000 A 
ATOM     28  C   UNL     1      -1.189  10.463  18.750  0.00  0.00    +0.000 A 
ATOM     29  C   UNL     1      -2.083  11.519  18.900  0.00  0.00    +0.000 A 
ATOM     30  C   UNL     1      -1.611  12.828  18.898  0.00  0.00    +0.000 A 
ATOM     31  C   UNL     1      -0.242  13.109  18.764  0.00  0.00    +0.000 A 
ATOM     32  C   UNL     1       0.210  14.438  18.791  0.00  0.00    +0.000 A 
ATOM     33  C   UNL     1       1.565  14.742  18.675  0.00  0.00    +0.000 A 
ATOM     34  C   UNL     1       2.488  13.721  18.519  0.00  0.00    +0.000 A 
ATOM     35  C   UNL     1       2.056  12.402  18.476  0.00  0.00    +0.000 A 
ATOM     36  C   UNL     1       0.686  12.046  18.609  0.00  0.00    +0.000 A 
ENDBRANCH  24  27
ENDBRANCH  22  23
ENDBRANCH  21  22
ENDBRANCH  20  21
ENDBRANCH  19  20
ENDBRANCH   1  19
TORSDOF 11
ENDMDL
MODEL 3
REMARK VINA RESULT:      -7.9      0.986      8.879
REMARK  Name = 
REMARK  11 active torsions:
REMARK  status: ('A' for Active; 'I' for Inactive)
REMARK    1  A    between atoms: C_2  and  C_25
REMARK    2  A    between atoms: N_3  and  C_4
REMARK    3  A    between atoms: C_4  and  C_5
REMARK    4  A    between atoms: C_5  and  C_6
REMARK    5  A    between atoms: C_6  and  C_7
REMARK    6  A    between atoms: C_7  and  C_8
REMARK    7  A    between atoms: C_8  and  C_9
REMARK    8  A    between atoms: C_9  and  C_10
REMARK    9  A    between atoms: C_10  and  C_11
REMARK   10  A    between atoms: C_11  and  N_12
REMARK   11  A    between atoms: C_13  and  C_15
REMARK                            x       y       z     vdW  Elec       q    Type
REMARK                         _______ _______ _______ _____ _____    ______ ____
ROOT
ATOM      1  C   UNL     1       2.113   6.485  20.194  0.00  0.00    +0.000 C 
ENDROOT
BRANCH   1   2
ATOM      2  C   UNL     1       2.406   6.369  18.699  0.00  0.00    +0.000 C 
BRANCH   2   3
ATOM      3  C   UNL     1       3.128   7.609  18.172  0.00  0.00    +0.000 C 
BRANCH   3   4
ATOM      4  C   UNL     1       2.159   8.540  17.448  0.00  0.00    +0.000 C 
BRANCH   4   7
ATOM      5  O   UNL     1      -0.454   9.555  17.420  0.00  0.00    +0.000 OA
ATOM      6  C   UNL     1       0.326   9.986  18.243  0.00  0.00    +0.000 C 
ATOM      7  N   UNL     1       1.646   9.567  18.329  0.00  0.00    +0.000 N 
ATOM      8  H   UNL     1       2.252   9.927  19.050  0.00  0.00    +0.000 HD
BRANCH   6   9
ATOM      9  C   UNL     1      -0.084  11.026  19.241  0.00  0.00    +0.000 A 
ATOM     10  C   UNL     1      -0.236  12.340  18.769  0.00  0.00    +0.000 A 
ATOM     11  C   UNL     1      -0.618  13.358  19.630  0.00  0.00    +0.000 A 
ATOM     12  C   UNL     1      -0.872  13.068  20.967  0.00  0.00    +0.000 A 
ATOM     13  C   UNL     1      -0.739  11.762  21.468  0.00  0.00    +0.000 A 
ATOM     14  C   UNL     1      -1.010  11.499  22.823  0.00  0.00    +0.000 A 
ATOM     15  C   UNL     1      -0.877  10.216  23.349  0.00  0.00    +0.000 A 
ATOM     16  C   UNL     1      -0.433   9.183  22.538  0.00  0.00    +0.000 A 
ATOM     17  C   UNL     1      -0.136   9.435  21.197  0.00  0.00    +0.000 A 
ATOM     18  C   UNL     1      -0.320  10.712  20.611  0.00  0.00    +0.000 A 
ENDBRANCH   6   9
ENDBRANCH   4   7
ENDBRANCH   3   4
ENDBRANCH   2   3
ENDBRANCH   1   2
BRANCH   1  19
ATOM     19  C   UNL     1       2.074   5.105  20.852  0.00  0.00    +0.000 C 
BRANCH  19  20
ATOM     20  C   UNL     1       0.914   4.265  20.315  0.00  0.00    +0.000 C 
BRANCH  20  21
ATOM     21  C   UNL     1       1.375   2.853  19.948  0.00  0.00    +0.000 C 
BRANCH  21  22
ATOM     22  C   UNL     1       2.874   2.687  20.185  0.00  0.00    +0.000 C 
BRANCH  22  23
ATOM     23  N   UNL     1       3.666   3.473  19.261  0.00  0.00    +0.000 N 
ATOM     24  C   UNL     1       4.048   2.934  18.048  0.00  0.00    +0.000 C 
ATOM     25  O   UNL     1       3.749   1.790  17.724  0.00  0.00    +0.000 OA
ATOM     26  H   UNL     1       3.767   4.464  19.424  0.00  0.00    +0.000 HD
BRANCH  24  27
ATOM     27  C   UNL     1       4.844   3.822  17.148  0.00  0.00    +0.000 A 
ATOM     28  C   UNL     1       4.563   3.790  15.772  0.00  0.00    +0.000 A 
ATOM     29  C   UNL     1       5.265   4.608  14.892  0.00  0.00    +0.000 A 
ATOM     30  C   UNL     1       6.245   5.466  15.381  0.00  0.00    +0.000 A 
ATOM     31  C   UNL     1       6.532   5.538  16.753  0.00  0.00    +0.000 A 
ATOM     32  C   UNL     1       7.508   6.432  17.222  0.00  0.00    +0.000 A 
ATOM     33  C   UNL     1       7.800   6.533  18.581  0.00  0.00    +0.000 A 
ATOM     34  C   UNL     1       7.127   5.733  19.490  0.00  0.00    +0.000 A 
ATOM     35  C   UNL     1       6.170   4.833  19.041  0.00  0.00    +0.000 A 
ATOM     36  C   UNL     1       5.828   4.711  17.667  0.00  0.00    +0.000 A 
ENDBRANCH  24  27
ENDBRANCH  22  23
ENDBRANCH  21  22
ENDBRANCH  20  21
ENDBRANCH  19  20
ENDBRANCH   1  19
TORSDOF 11
ENDMDL
MODEL 4
REMARK VINA RESULT:      -7.9      1.643      9.258
REMARK  Name = 
REMARK  11 active torsions:
REMARK  status: ('A' for Active; 'I' for Inactive)
REMARK    1  A    between atoms: C_2  and  C_25
REMARK    2  A    between atoms: N_3  and  C_4
REMARK    3  A    between atoms: C_4  and  C_5
REMARK    4  A    between atoms: C_5  and  C_6
REMARK    5  A    between atoms: C_6  and  C_7
REMARK    6  A    between atoms: C_7  and  C_8
REMARK    7  A    between atoms: C_8  and  C_9
REMARK    8  A    between atoms: C_9  and  C_10
REMARK    9  A    between atoms: C_10  and  C_11
REMARK   10  A    between atoms: C_11  and  N_12
REMARK   11  A    between atoms: C_13  and  C_15
REMARK                            x       y       z     vdW  Elec       q    Type
REMARK                         _______ _______ _______ _____ _____    ______ ____
ROOT
ATOM      1  C   UNL     1       1.976   5.341  20.149  0.00  0.00    +0.000 C 
ENDROOT
BRANCH   1   2
ATOM      2  C   UNL     1       2.876   6.453  19.612  0.00  0.00    +0.000 C 
BRANCH   2   3
ATOM      3  C   UNL     1       2.457   6.880  18.205  0.00  0.00    +0.000 C 
BRANCH   3   4
ATOM      4  C   UNL     1       2.626   8.386  18.017  0.00  0.00    +0.000 C 
BRANCH   4   7
ATOM      5  O   UNL     1       1.120   9.476  20.115  0.00  0.00    +0.000 OA
ATOM      6  C   UNL     1       0.694   9.576  18.983  0.00  0.00    +0.000 C 
ATOM      7  N   UNL     1       1.350   9.053  17.878  0.00  0.00    +0.000 N 
ATOM      8  H   UNL     1       0.978   9.187  16.950  0.00  0.00    +0.000 HD
BRANCH   6   9
ATOM      9  C   UNL     1      -0.597  10.276  18.691  0.00  0.00    +0.000 A 
ATOM     10  C   UNL     1      -1.234   9.966  17.478  0.00  0.00    +0.000 A 
ATOM     11  C   UNL     1      -2.436  10.570  17.139  0.00  0.00    +0.000 A 
ATOM     12  C   UNL     1      -3.024  11.473  18.019  0.00  0.00    +0.000 A 
ATOM     13  C   UNL     1      -2.419  11.795  19.246  0.00  0.00    +0.000 A 
ATOM     14  C   UNL     1      -3.042  12.706  20.118  0.00  0.00    +0.000 A 
ATOM     15  C   UNL     1      -2.460  13.052  21.335  0.00  0.00    +0.000 A 
ATOM     16  C   UNL     1      -1.227  12.523  21.683  0.00  0.00    +0.000 A 
ATOM     17  C   UNL     1      -0.584  11.636  20.815  0.00  0.00    +0.000 A 
ATOM     18  C   UNL     1      -1.174  11.212  19.598  0.00  0.00    +0.000 A 
ENDBRANCH   6   9
ENDBRANCH   4   7
ENDBRANCH   3   4
ENDBRANCH   2   3
ENDBRANCH   1   2
BRANCH   1  19
ATOM     19  C   UNL     1       1.424   4.486  19.008  0.00  0.00    +0.000 C 
BRANCH  19  20
ATOM     20  C   UNL     1       1.152   3.053  19.468  0.00  0.00    +0.000 C 
BRANCH  20  21
ATOM     21  C   UNL     1       1.617   2.037  18.421  0.00  0.00    +0.000 C 
BRANCH  21  22
ATOM     22  C   UNL     1       3.104   1.733  18.576  0.00  0.00    +0.000 C 
BRANCH  22  23
ATOM     23  N   UNL     1       3.939   2.806  18.078  0.00  0.00    +0.000 N 
ATOM     24  C   UNL     1       4.954   3.315  18.866  0.00  0.00    +0.000 C 
ATOM     25  O   UNL     1       5.168   2.893  19.997  0.00  0.00    +0.000 OA
ATOM     26  H   UNL     1       3.902   3.041  17.096  0.00  0.00    +0.000 HD
BRANCH  24  27
ATOM     27  C   UNL     1       5.780   4.405  18.264  0.00  0.00    +0.000 A 
ATOM     28  C   UNL     1       6.347   5.357  19.128  0.00  0.00    +0.000 A 
ATOM     29  C   UNL     1       7.136   6.384  18.620  0.00  0.00    +0.000 A 
ATOM     30  C   UNL     1       7.370   6.462  17.251  0.00  0.00    +0.000 A 
ATOM     31  C   UNL     1       6.837   5.511  16.366  0.00  0.00    +0.000 A 
ATOM     32  C   UNL     1       7.110   5.599  14.991  0.00  0.00    +0.000 A 
ATOM     33  C   UNL     1       6.605   4.660  14.094  0.00  0.00    +0.000 A 
ATOM     34  C   UNL     1       5.810   3.625  14.557  0.00  0.00    +0.000 A 
ATOM     35  C   UNL     1       5.519   3.532  15.912  0.00  0.00    +0.000 A 
ATOM     36  C   UNL     1       6.028   4.457  16.863  0.00  0.00    +0.000 A 
ENDBRANCH  24  27
ENDBRANCH  22  23
ENDBRANCH  21  22
ENDBRANCH  20  21
ENDBRANCH  19  20
ENDBRANCH   1  19
TORSDOF 11
ENDMDL
MODEL 5
REMARK VINA RESULT:      -7.8      5.451      8.777
REMARK  Name = 
REMARK  11 active torsions:
REMARK  status: ('A' for Active; 'I' for Inactive)
REMARK    1  A    between atoms: C_2  and  C_25
REMARK    2  A    between atoms: N_3  and  C_4
REMARK    3  A    between atoms: C_4  and  C_5
REMARK    4  A    between atoms: C_5  and  C_6
REMARK    5  A    between atoms: C_6  and  C_7
REMARK    6  A    between atoms: C_7  and  C_8
REMARK    7  A    between atoms: C_8  and  C_9
REMARK    8  A    between atoms: C_9  and  C_10
REMARK    9  A    between atoms: C_10  and  C_11
REMARK   10  A    between atoms: C_11  and  N_12
REMARK   11  A    between atoms: C_13  and  C_15
REMARK                            x       y       z     vdW  Elec       q    Type
REMARK                         _______ _______ _______ _____ _____    ______ ____
ROOT
ATOM      1  C   UNL     1       6.833   6.329  17.767  0.00  0.00    +0.000 C 
ENDROOT
BRANCH   1   2
ATOM      2  C   UNL     1       8.079   7.166  18.053  0.00  0.00    +0.000 C 
BRANCH   2   3
ATOM      3  C   UNL     1       7.806   8.658  17.868  0.00  0.00    +0.000 C 
BRANCH   3   4
ATOM      4  C   UNL     1       8.893   9.500  18.531  0.00  0.00    +0.000 C 
BRANCH   4   7
ATOM      5  O   UNL     1      10.607  11.545  17.671  0.00  0.00    +0.000 OA
ATOM      6  C   UNL     1       9.488  11.841  18.036  0.00  0.00    +0.000 C 
ATOM      7  N   UNL     1       8.571  10.910  18.499  0.00  0.00    +0.000 N 
ATOM      8  H   UNL     1       7.639  11.195  18.761  0.00  0.00    +0.000 HD
BRANCH   6   9
ATOM      9  C   UNL     1       9.011  13.261  18.019  0.00  0.00    +0.000 A 
ATOM     10  C   UNL     1       7.689  13.486  17.602  0.00  0.00    +0.000 A 
ATOM     11  C   UNL     1       7.172  14.773  17.564  0.00  0.00    +0.000 A 
ATOM     12  C   UNL     1       7.965  15.845  17.962  0.00  0.00    +0.000 A 
ATOM     13  C   UNL     1       9.288  15.652  18.395  0.00  0.00    +0.000 A 
ATOM     14  C   UNL     1      10.062  16.754  18.799  0.00  0.00    +0.000 A 
ATOM     15  C   UNL     1      11.379  16.593  19.223  0.00  0.00    +0.000 A 
ATOM     16  C   UNL     1      11.956  15.333  19.213  0.00  0.00    +0.000 A 
ATOM     17  C   UNL     1      11.207  14.232  18.791  0.00  0.00    +0.000 A 
ATOM     18  C   UNL     1       9.846  14.347  18.413  0.00  0.00    +0.000 A 
ENDBRANCH   6   9
ENDBRANCH   4   7
ENDBRANCH   3   4
ENDBRANCH   2   3
ENDBRANCH   1   2
BRANCH   1  19
ATOM     19  C   UNL     1       5.877   7.074  16.833  0.00  0.00    +0.000 C 
BRANCH  19  20
ATOM     20  C   UNL     1       5.250   6.128  15.809  0.00  0.00    +0.000 C 
BRANCH  20  21
ATOM     21  C   UNL     1       6.105   4.873  15.616  0.00  0.00    +0.000 C 
BRANCH  21  22
ATOM     22  C   UNL     1       5.320   3.615  15.979  0.00  0.00    +0.000 C 
BRANCH  22  23
ATOM     23  N   UNL     1       4.590   3.763  17.221  0.00  0.00    +0.000 N 
ATOM     24  C   UNL     1       3.224   3.555  17.247  0.00  0.00    +0.000 C 
ATOM     25  O   UNL     1       2.594   3.260  16.238  0.00  0.00    +0.000 OA
ATOM     26  H   UNL     1       5.105   3.824  18.087  0.00  0.00    +0.000 HD
BRANCH  24  27
ATOM     27  C   UNL     1       2.555   3.706  18.575  0.00  0.00    +0.000 A 
ATOM     28  C   UNL     1       2.217   2.539  19.280  0.00  0.00    +0.000 A 
ATOM     29  C   UNL     1       1.605   2.624  20.527  0.00  0.00    +0.000 A 
ATOM     30  C   UNL     1       1.335   3.873  21.079  0.00  0.00    +0.000 A 
ATOM     31  C   UNL     1       1.683   5.056  20.409  0.00  0.00    +0.000 A 
ATOM     32  C   UNL     1       1.423   6.303  21.001  0.00  0.00    +0.000 A 
ATOM     33  C   UNL     1       1.772   7.492  20.363  0.00  0.00    +0.000 A 
ATOM     34  C   UNL     1       2.378   7.451  19.118  0.00  0.00    +0.000 A 
ATOM     35  C   UNL     1       2.629   6.227  18.513  0.00  0.00    +0.000 A 
ATOM     36  C   UNL     1       2.306   4.991  19.135  0.00  0.00    +0.000 A 
ENDBRANCH  24  27
ENDBRANCH  22  23
ENDBRANCH  21  22
ENDBRANCH  20  21
ENDBRANCH  19  20
ENDBRANCH   1  19
TORSDOF 11
ENDMDL
MODEL 6
REMARK VINA RESULT:      -7.8      1.528      8.799
REMARK  Name = 
REMARK  11 active torsions:
REMARK  status: ('A' for Active; 'I' for Inactive)
REMARK    1  A    between atoms: C_2  and  C_25
REMARK    2  A    between atoms: N_3  and  C_4
REMARK    3  A    between atoms: C_4  and  C_5
REMARK    4  A    between atoms: C_5  and  C_6
REMARK    5  A    between atoms: C_6  and  C_7
REMARK    6  A    between atoms: C_7  and  C_8
REMARK    7  A    between atoms: C_8  and  C_9
REMARK    8  A    between atoms: C_9  and  C_10
REMARK    9  A    between atoms: C_10  and  C_11
REMARK   10  A    between atoms: C_11  and  N_12
REMARK   11  A    between atoms: C_13  and  C_15
REMARK                            x       y       z     vdW  Elec       q    Type
REMARK                         _______ _______ _______ _____ _____    ______ ____
ROOT
ATOM      1  C   UNL     1       1.306   3.478  18.427  0.00  0.00    +0.000 C 
ENDROOT
BRANCH   1   2
ATOM      2  C   UNL     1       1.756   4.854  17.937  0.00  0.00    +0.000 C 
BRANCH   2   3
ATOM      3  C   UNL     1       2.264   5.719  19.090  0.00  0.00    +0.000 C 
BRANCH   3   4
ATOM      4  C   UNL     1       2.851   7.031  18.574  0.00  0.00    +0.000 C 
BRANCH   4   7
ATOM      5  O   UNL     1       1.987   9.237  17.075  0.00  0.00    +0.000 OA
ATOM      6  C   UNL     1       1.740   9.211  18.263  0.00  0.00    +0.000 C 
ATOM      7  N   UNL     1       2.140   8.177  19.097  0.00  0.00    +0.000 N 
ATOM      8  H   UNL     1       1.885   8.178  20.073  0.00  0.00    +0.000 HD
BRANCH   6   9
ATOM      9  C   UNL     1       0.979  10.316  18.929  0.00  0.00    +0.000 A 
ATOM     10  C   UNL     1      -0.173   9.956  19.649  0.00  0.00    +0.000 A 
ATOM     11  C   UNL     1      -0.928  10.922  20.296  0.00  0.00    +0.000 A 
ATOM     12  C   UNL     1      -0.529  12.254  20.249  0.00  0.00    +0.000 A 
ATOM     13  C   UNL     1       0.624  12.645  19.547  0.00  0.00    +0.000 A 
ATOM     14  C   UNL     1       1.006  13.998  19.524  0.00  0.00    +0.000 A 
ATOM     15  C   UNL     1       2.138  14.416  18.827  0.00  0.00    +0.000 A 
ATOM     16  C   UNL     1       2.884  13.493  18.111  0.00  0.00    +0.000 A 
ATOM     17  C   UNL     1       2.502  12.149  18.104  0.00  0.00    +0.000 A 
ATOM     18  C   UNL     1       1.394  11.677  18.852  0.00  0.00    +0.000 A 
ENDBRANCH   6   9
ENDBRANCH   4   7
ENDBRANCH   3   4
ENDBRANCH   2   3
ENDBRANCH   1   2
BRANCH   1  19
ATOM     19  C   UNL     1       0.840   3.542  19.882  0.00  0.00    +0.000 C 
BRANCH  19  20
ATOM     20  C   UNL     1       1.391   2.369  20.694  0.00  0.00    +0.000 C 
BRANCH  20  21
ATOM     21  C   UNL     1       2.712   2.737  21.374  0.00  0.00    +0.000 C 
BRANCH  21  22
ATOM     22  C   UNL     1       3.898   2.132  20.628  0.00  0.00    +0.000 C 
BRANCH  22  23
ATOM     23  N   UNL     1       4.758   3.144  20.050  0.00  0.00    +0.000 N 
ATOM     24  C   UNL     1       4.853   3.267  18.677  0.00  0.00    +0.000 C 
ATOM     25  O   UNL     1       4.236   2.530  17.916  0.00  0.00    +0.000 OA
ATOM     26  H   UNL     1       5.127   3.871  20.645  0.00  0.00    +0.000 HD
BRANCH  24  27
ATOM     27  C   UNL     1       5.745   4.353  18.168  0.00  0.00    +0.000 A 
ATOM     28  C   UNL     1       6.317   5.230  19.104  0.00  0.00    +0.000 A 
ATOM     29  C   UNL     1       7.167   6.249  18.684  0.00  0.00    +0.000 A 
ATOM     30  C   UNL     1       7.456   6.392  17.330  0.00  0.00    +0.000 A 
ATOM     31  C   UNL     1       6.919   5.516  16.374  0.00  0.00    +0.000 A 
ATOM     32  C   UNL     1       7.248   5.667  15.018  0.00  0.00    +0.000 A 
ATOM     33  C   UNL     1       6.739   4.802  14.051  0.00  0.00    +0.000 A 
ATOM     34  C   UNL     1       5.885   3.777  14.426  0.00  0.00    +0.000 A 
ATOM     35  C   UNL     1       5.539   3.623  15.762  0.00  0.00    +0.000 A 
ATOM     36  C   UNL     1       6.048   4.471  16.782  0.00  0.00    +0.000 A 
ENDBRANCH  24  27
ENDBRANCH  22  23
ENDBRANCH  21  22
ENDBRANCH  20  21
ENDBRANCH  19  20
ENDBRANCH   1  19
TORSDOF 11
ENDMDL
MODEL 7
REMARK VINA RESULT:      -7.7      1.813      8.948
REMARK  Name = 
REMARK  11 active torsions:
REMARK  status: ('A' for Active; 'I' for Inactive)
REMARK    1  A    between atoms: C_2  and  C_25
REMARK    2  A    between atoms: N_3  and  C_4
REMARK    3  A    between atoms: C_4  and  C_5
REMARK    4  A    between atoms: C_5  and  C_6
REMARK    5  A    between atoms: C_6  and  C_7
REMARK    6  A    between atoms: C_7  and  C_8
REMARK    7  A    between atoms: C_8  and  C_9
REMARK    8  A    between atoms: C_9  and  C_10
REMARK    9  A    between atoms: C_10  and  C_11
REMARK   10  A    between atoms: C_11  and  N_12
REMARK   11  A    between atoms: C_13  and  C_15
REMARK                            x       y       z     vdW  Elec       q    Type
REMARK                         _______ _______ _______ _____ _____    ______ ____
ROOT
ATOM      1  C   UNL     1       1.813   4.077  17.976  0.00  0.00    +0.000 C 
ENDROOT
BRANCH   1   2
ATOM      2  C   UNL     1       1.302   5.511  17.841  0.00  0.00    +0.000 C 
BRANCH   2   3
ATOM      3  C   UNL     1       2.448   6.492  17.601  0.00  0.00    +0.000 C 
BRANCH   3   4
ATOM      4  C   UNL     1       2.849   7.193  18.897  0.00  0.00    +0.000 C 
BRANCH   4   7
ATOM      5  O   UNL     1       2.235   9.604  17.605  0.00  0.00    +0.000 OA
ATOM      6  C   UNL     1       1.607   9.302  18.599  0.00  0.00    +0.000 C 
ATOM      7  N   UNL     1       1.846   8.144  19.323  0.00  0.00    +0.000 N 
ATOM      8  H   UNL     1       1.278   7.914  20.125  0.00  0.00    +0.000 HD
BRANCH   6   9
ATOM      9  C   UNL     1       0.513  10.178  19.129  0.00  0.00    +0.000 A 
ATOM     10  C   UNL     1       0.769  10.867  20.326  0.00  0.00    +0.000 A 
ATOM     11  C   UNL     1      -0.192  11.700  20.878  0.00  0.00    +0.000 A 
ATOM     12  C   UNL     1      -1.410  11.871  20.228  0.00  0.00    +0.000 A 
ATOM     13  C   UNL     1      -1.692  11.205  19.023  0.00  0.00    +0.000 A 
ATOM     14  C   UNL     1      -2.930  11.404  18.386  0.00  0.00    +0.000 A 
ATOM     15  C   UNL     1      -3.241  10.749  17.196  0.00  0.00    +0.000 A 
ATOM     16  C   UNL     1      -2.336   9.856  16.645  0.00  0.00    +0.000 A 
ATOM     17  C   UNL     1      -1.113   9.630  17.281  0.00  0.00    +0.000 A 
ATOM     18  C   UNL     1      -0.735  10.324  18.457  0.00  0.00    +0.000 A 
ENDBRANCH   6   9
ENDBRANCH   4   7
ENDBRANCH   3   4
ENDBRANCH   2   3
ENDBRANCH   1   2
BRANCH   1  19
ATOM     19  C   UNL     1       0.916   3.263  18.909  0.00  0.00    +0.000 C 
BRANCH  19  20
ATOM     20  C   UNL     1       1.740   2.489  19.938  0.00  0.00    +0.000 C 
BRANCH  20  21
ATOM     21  C   UNL     1       2.850   1.678  19.264  0.00  0.00    +0.000 C 
BRANCH  21  22
ATOM     22  C   UNL     1       4.198   1.935  19.932  0.00  0.00    +0.000 C 
BRANCH  22  23
ATOM     23  N   UNL     1       5.045   2.805  19.143  0.00  0.00    +0.000 N 
ATOM     24  C   UNL     1       5.054   4.165  19.385  0.00  0.00    +0.000 C 
ATOM     25  O   UNL     1       4.348   4.674  20.249  0.00  0.00    +0.000 OA
ATOM     26  H   UNL     1       5.760   2.395  18.560  0.00  0.00    +0.000 HD
BRANCH  24  27
ATOM     27  C   UNL     1       5.974   4.985  18.540  0.00  0.00    +0.000 A 
ATOM     28  C   UNL     1       6.861   5.861  19.188  0.00  0.00    +0.000 A 
ATOM     29  C   UNL     1       7.749   6.635  18.448  0.00  0.00    +0.000 A 
ATOM     30  C   UNL     1       7.761   6.536  17.060  0.00  0.00    +0.000 A 
ATOM     31  C   UNL     1       6.903   5.652  16.386  0.00  0.00    +0.000 A 
ATOM     32  C   UNL     1       6.954   5.553  14.986  0.00  0.00    +0.000 A 
ATOM     33  C   UNL     1       6.123   4.673  14.295  0.00  0.00    +0.000 A 
ATOM     34  C   UNL     1       5.222   3.887  14.993  0.00  0.00    +0.000 A 
ATOM     35  C   UNL     1       5.149   3.984  16.376  0.00  0.00    +0.000 A 
ATOM     36  C   UNL     1       5.989   4.854  17.122  0.00  0.00    +0.000 A 
ENDBRANCH  24  27
ENDBRANCH  22  23
ENDBRANCH  21  22
ENDBRANCH  20  21
ENDBRANCH  19  20
ENDBRANCH   1  19
TORSDOF 11
ENDMDL
MODEL 8
REMARK VINA RESULT:      -7.7      1.462      2.441
REMARK  Name = 
REMARK  11 active torsions:
REMARK  status: ('A' for Active; 'I' for Inactive)
REMARK    1  A    between atoms: C_2  and  C_25
REMARK    2  A    between atoms: N_3  and  C_4
REMARK    3  A    between atoms: C_4  and  C_5
REMARK    4  A    between atoms: C_5  and  C_6
REMARK    5  A    between atoms: C_6  and  C_7
REMARK    6  A    between atoms: C_7  and  C_8
REMARK    7  A    between atoms: C_8  and  C_9
REMARK    8  A    between atoms: C_9  and  C_10
REMARK    9  A    between atoms: C_10  and  C_11
REMARK   10  A    between atoms: C_11  and  N_12
REMARK   11  A    between atoms: C_13  and  C_15
REMARK                            x       y       z     vdW  Elec       q    Type
REMARK                         _______ _______ _______ _____ _____    ______ ____
ROOT
ATOM      1  C   UNL     1       1.069   3.460  20.228  0.00  0.00    +0.000 C 
ENDROOT
BRANCH   1   2
ATOM      2  C   UNL     1       1.826   2.665  21.291  0.00  0.00    +0.000 C 
BRANCH   2   3
ATOM      3  C   UNL     1       3.220   2.268  20.805  0.00  0.00    +0.000 C 
BRANCH   3   4
ATOM      4  C   UNL     1       3.183   1.812  19.349  0.00  0.00    +0.000 C 
BRANCH   4   7
ATOM      5  O   UNL     1       2.561   3.394  17.119  0.00  0.00    +0.000 OA
ATOM      6  C   UNL     1       3.722   3.307  17.463  0.00  0.00    +0.000 C 
ATOM      7  N   UNL     1       4.138   2.534  18.538  0.00  0.00    +0.000 N 
ATOM      8  H   UNL     1       5.109   2.516  18.810  0.00  0.00    +0.000 HD
BRANCH   6   9
ATOM      9  C   UNL     1       4.810   4.033  16.734  0.00  0.00    +0.000 A 
ATOM     10  C   UNL     1       4.824   3.927  15.333  0.00  0.00    +0.000 A 
ATOM     11  C   UNL     1       5.798   4.575  14.587  0.00  0.00    +0.000 A 
ATOM     12  C   UNL     1       6.754   5.352  15.232  0.00  0.00    +0.000 A 
ATOM     13  C   UNL     1       6.761   5.488  16.631  0.00  0.00    +0.000 A 
ATOM     14  C   UNL     1       7.737   6.288  17.253  0.00  0.00    +0.000 A 
ATOM     15  C   UNL     1       7.774   6.432  18.638  0.00  0.00    +0.000 A 
ATOM     16  C   UNL     1       6.861   5.749  19.426  0.00  0.00    +0.000 A 
ATOM     17  C   UNL     1       5.902   4.931  18.823  0.00  0.00    +0.000 A 
ATOM     18  C   UNL     1       5.793   4.809  17.415  0.00  0.00    +0.000 A 
ENDBRANCH   6   9
ENDBRANCH   4   7
ENDBRANCH   3   4
ENDBRANCH   2   3
ENDBRANCH   1   2
BRANCH   1  19
ATOM     19  C   UNL     1       1.157   4.962  20.503  0.00  0.00    +0.000 C 
BRANCH  19  20
ATOM     20  C   UNL     1       2.393   5.576  19.845  0.00  0.00    +0.000 C 
BRANCH  20  21
ATOM     21  C   UNL     1       2.241   7.091  19.685  0.00  0.00    +0.000 C 
BRANCH  21  22
ATOM     22  C   UNL     1       1.764   7.734  20.985  0.00  0.00    +0.000 C 
BRANCH  22  23
ATOM     23  N   UNL     1       0.821   8.808  20.753  0.00  0.00    +0.000 N 
ATOM     24  C   UNL     1       0.514   9.689  21.772  0.00  0.00    +0.000 C 
ATOM     25  O   UNL     1       1.008   9.585  22.889  0.00  0.00    +0.000 OA
ATOM     26  H   UNL     1       0.545   9.022  19.805  0.00  0.00    +0.000 HD
BRANCH  24  27
ATOM     27  C   UNL     1      -0.452  10.780  21.438  0.00  0.00    +0.000 A 
ATOM     28  C   UNL     1      -0.770  11.709  22.443  0.00  0.00    +0.000 A 
ATOM     29  C   UNL     1      -1.652  12.753  22.181  0.00  0.00    +0.000 A 
ATOM     30  C   UNL     1      -2.214  12.879  20.914  0.00  0.00    +0.000 A 
ATOM     31  C   UNL     1      -1.896  11.980  19.883  0.00  0.00    +0.000 A 
ATOM     32  C   UNL     1      -2.458  12.146  18.607  0.00  0.00    +0.000 A 
ATOM     33  C   UNL     1      -2.147  11.276  17.563  0.00  0.00    +0.000 A 
ATOM     34  C   UNL     1      -1.277  10.221  17.784  0.00  0.00    +0.000 A 
ATOM     35  C   UNL     1      -0.725  10.035  19.044  0.00  0.00    +0.000 A 
ATOM     36  C   UNL     1      -1.000  10.908  20.131  0.00  0.00    +0.000 A 
ENDBRANCH  24  27
ENDBRANCH  22  23
ENDBRANCH  21  22
ENDBRANCH  20  21
ENDBRANCH  19  20
ENDBRANCH   1  19
TORSDOF 11
ENDMDL
MODEL 9
REMARK VINA RESULT:      -7.6      0.998      2.154
REMARK  Name = 
REMARK  11 active torsions:
REMARK  status: ('A' for Active; 'I' for Inactive)
REMARK    1  A    between atoms: C_2  and  C_25
REMARK    2  A    between atoms: N_3  and  C_4
REMARK    3  A    between atoms: C_4  and  C_5
REMARK    4  A    between atoms: C_5  and  C_6
REMARK    5  A    between atoms: C_6  and  C_7
REMARK    6  A    between atoms: C_7  and  C_8
REMARK    7  A    between atoms: C_8  and  C_9
REMARK    8  A    between atoms: C_9  and  C_10
REMARK    9  A    between atoms: C_10  and  C_11
REMARK   10  A    between atoms: C_11  and  N_12
REMARK   11  A    between atoms: C_13  and  C_15
REMARK                            x       y       z     vdW  Elec       q    Type
REMARK                         _______ _______ _______ _____ _____    ______ ____
ROOT
ATOM      1  C   UNL     1       2.485   5.220  20.397  0.00  0.00    +0.000 C 
ENDROOT
BRANCH   1   2
ATOM      2  C   UNL     1       1.151   4.544  20.079  0.00  0.00    +0.000 C 
BRANCH   2   3
ATOM      3  C   UNL     1       1.332   3.051  19.808  0.00  0.00    +0.000 C 
BRANCH   3   4
ATOM      4  C   UNL     1       1.350   2.764  18.309  0.00  0.00    +0.000 C 
BRANCH   4   7
ATOM      5  O   UNL     1       4.000   1.892  18.038  0.00  0.00    +0.000 OA
ATOM      6  C   UNL     1       3.686   2.956  17.544  0.00  0.00    +0.000 C 
ATOM      7  N   UNL     1       2.408   3.487  17.639  0.00  0.00    +0.000 N 
ATOM      8  H   UNL     1       2.181   4.359  17.186  0.00  0.00    +0.000 HD
BRANCH   6   9
ATOM      9  C   UNL     1       4.675   3.791  16.790  0.00  0.00    +0.000 A 
ATOM     10  C   UNL     1       4.605   3.755  15.388  0.00  0.00    +0.000 A 
ATOM     11  C   UNL     1       5.484   4.504  14.619  0.00  0.00    +0.000 A 
ATOM     12  C   UNL     1       6.427   5.313  15.245  0.00  0.00    +0.000 A 
ATOM     13  C   UNL     1       6.516   5.380  16.646  0.00  0.00    +0.000 A 
ATOM     14  C   UNL     1       7.475   6.213  17.249  0.00  0.00    +0.000 A 
ATOM     15  C   UNL     1       7.592   6.290  18.635  0.00  0.00    +0.000 A 
ATOM     16  C   UNL     1       6.779   5.508  19.439  0.00  0.00    +0.000 A 
ATOM     17  C   UNL     1       5.839   4.657  18.854  0.00  0.00    +0.000 A 
ATOM     18  C   UNL     1       5.647   4.598  17.451  0.00  0.00    +0.000 A 
ENDBRANCH   6   9
ENDBRANCH   4   7
ENDBRANCH   3   4
ENDBRANCH   2   3
ENDBRANCH   1   2
BRANCH   1  19
ATOM     19  C   UNL     1       2.474   6.684  19.957  0.00  0.00    +0.000 C 
BRANCH  19  20
ATOM     20  C   UNL     1       2.897   6.829  18.495  0.00  0.00    +0.000 C 
BRANCH  20  21
ATOM     21  C   UNL     1       1.927   7.727  17.723  0.00  0.00    +0.000 C 
BRANCH  21  22
ATOM     22  C   UNL     1       2.032   9.176  18.189  0.00  0.00    +0.000 C 
BRANCH  22  23
ATOM     23  N   UNL     1       1.207   9.440  19.350  0.00  0.00    +0.000 N 
ATOM     24  C   UNL     1       0.936  10.743  19.722  0.00  0.00    +0.000 C 
ATOM     25  O   UNL     1       1.386  11.701  19.102  0.00  0.00    +0.000 OA
ATOM     26  H   UNL     1       0.683   8.682  19.762  0.00  0.00    +0.000 HD
BRANCH  24  27
ATOM     27  C   UNL     1       0.058  10.924  20.918  0.00  0.00    +0.000 A 
ATOM     28  C   UNL     1       0.108   9.946  21.926  0.00  0.00    +0.000 A 
ATOM     29  C   UNL     1      -0.678  10.074  23.067  0.00  0.00    +0.000 A 
ATOM     30  C   UNL     1      -1.510  11.180  23.212  0.00  0.00    +0.000 A 
ATOM     31  C   UNL     1      -1.562  12.185  22.234  0.00  0.00    +0.000 A 
ATOM     32  C   UNL     1      -2.391  13.303  22.418  0.00  0.00    +0.000 A 
ATOM     33  C   UNL     1      -2.450  14.322  21.468  0.00  0.00    +0.000 A 
ATOM     34  C   UNL     1      -1.687  14.231  20.315  0.00  0.00    +0.000 A 
ATOM     35  C   UNL     1      -0.874  13.125  20.111  0.00  0.00    +0.000 A 
ATOM     36  C   UNL     1      -0.770  12.073  21.061  0.00  0.00    +0.000 A 
ENDBRANCH  24  27
ENDBRANCH  22  23
ENDBRANCH  21  22
ENDBRANCH  20  21
ENDBRANCH  19  20
ENDBRANCH   1  19
TORSDOF 11
ENDMDL
