MODEL 1
REMARK VINA RESULT:      -7.2      0.000      0.000
REMARK  Name = 
REMARK  10 active torsions:
REMARK  status: ('A' for Active; 'I' for Inactive)
REMARK    1  A    between atoms: C_1  and  N_2
REMARK    2  A    between atoms: N_2  and  C_3
REMARK    3  A    between atoms: N_2  and  C_10
REMARK    4  A    between atoms: C_3  and  C_4
REMARK    5  A    between atoms: C_10  and  C_11
REMARK    6  A    between atoms: C_10  and  C_18
REMARK    7  A    between atoms: C_11  and  C_12
REMARK    8  A    between atoms: N_21  and  C_22
REMARK    9  A    between atoms: C_22  and  C_23
REMARK   10  A    between atoms: C_26  and  O_27
REMARK                            x       y       z     vdW  Elec       q    Type
REMARK                         _______ _______ _______ _____ _____    ______ ____
ROOT
ATOM      1  C   UNL     1       1.166  11.656  19.945  0.00  0.00    +0.000 C 
ENDROOT
BRANCH   1   2
ATOM      2  C   UNL     1       0.153  10.428  19.711  0.00  0.00    +0.000 C 
ATOM      3  C   UNL     1       0.529   9.143  20.498  0.00  0.00    +0.000 C 
ATOM      4  C   UNL     1       1.806   8.482  19.955  0.00  0.00    +0.000 C 
ATOM      5  N   UNL     1       1.722   8.111  18.529  0.00  0.00    +0.000 NA
ATOM      6  C   UNL     1       1.223   9.222  17.708  0.00  0.00    +0.000 C 
ATOM      7  C   UNL     1      -0.035   9.884  18.275  0.00  0.00    +0.000 C 
BRANCH   5   8
ATOM      8  C   UNL     1       3.064   7.680  18.068  0.00  0.00    +0.000 C 
BRANCH   8   9
ATOM      9  C   UNL     1       3.269   6.186  17.906  0.00  0.00    +0.000 A 
ATOM     10  C   UNL     1       4.521   5.690  17.497  0.00  0.00    +0.000 A 
ATOM     11  C   UNL     1       4.760   4.314  17.407  0.00  0.00    +0.000 A 
ATOM     12  C   UNL     1       3.741   3.417  17.726  0.00  0.00    +0.000 A 
ATOM     13  C   UNL     1       2.488   3.894  18.119  0.00  0.00    +0.000 A 
ATOM     14 CL   UNL     1       1.205   2.812  18.530  0.00  0.00    +0.000 Cl
ATOM     15  C   UNL     1       2.251   5.271  18.204  0.00  0.00    +0.000 A 
BRANCH  12  16
ATOM     16  O   UNL     1       3.984   2.070  17.663  0.00  0.00    +0.000 OA
ATOM     17  H   UNL     1       4.625   1.830  18.348  0.00  0.00    +0.000 HD
ENDBRANCH  12  16
ENDBRANCH   8   9
ENDBRANCH   5   8
ENDBRANCH   1   2
BRANCH   1  19
ATOM     18  C   UNL     1       0.367  13.395  18.272  0.00  0.00    +0.000 C 
ATOM     19  N   UNL     1       1.457  12.549  18.775  0.00  0.00    +0.000 NA
BRANCH  19  20
ATOM     20  C   UNL     1       2.705  13.332  18.779  0.00  0.00    +0.000 C 
BRANCH  20  21
ATOM     21  C   UNL     1       2.625  14.841  18.658  0.00  0.00    +0.000 A 
ATOM     22  C   UNL     1       2.064  15.686  19.623  0.00  0.00    +0.000 A 
ATOM     23  C   UNL     1       2.101  17.059  19.440  0.00  0.00    +0.000 A 
ATOM     24  N   UNL     1       2.627  17.656  18.358  0.00  0.00    +0.000 NA
ATOM     25  C   UNL     1       3.132  16.834  17.415  0.00  0.00    +0.000 A 
ATOM     26  C   UNL     1       3.147  15.450  17.510  0.00  0.00    +0.000 A 
ENDBRANCH  20  21
ENDBRANCH  19  20
ENDBRANCH   1  19
BRANCH   1  27
ATOM     27  C   UNL     1       0.734  12.497  21.219  0.00  0.00    +0.000 C 
BRANCH  27  28
ATOM     28  C   UNL     1      -0.707  12.446  21.695  0.00  0.00    +0.000 A 
ATOM     29  C   UNL     1      -1.694  13.109  20.945  0.00  0.00    +0.000 A 
ATOM     30  C   UNL     1      -3.019  13.157  21.382  0.00  0.00    +0.000 A 
ATOM     31  C   UNL     1      -3.387  12.517  22.563  0.00  0.00    +0.000 A 
ATOM     32  C   UNL     1      -2.438  11.793  23.277  0.00  0.00    +0.000 A 
ATOM     33  C   UNL     1      -1.112  11.747  22.838  0.00  0.00    +0.000 A 
ENDBRANCH  27  28
ENDBRANCH   1  27
TORSDOF 9
ENDMDL
MODEL 2
REMARK VINA RESULT:      -7.2      0.960      1.298
REMARK  Name = 
REMARK  10 active torsions:
REMARK  status: ('A' for Active; 'I' for Inactive)
REMARK    1  A    between atoms: C_1  and  N_2
REMARK    2  A    between atoms: N_2  and  C_3
REMARK    3  A    between atoms: N_2  and  C_10
REMARK    4  A    between atoms: C_3  and  C_4
REMARK    5  A    between atoms: C_10  and  C_11
REMARK    6  A    between atoms: C_10  and  C_18
REMARK    7  A    between atoms: C_11  and  C_12
REMARK    8  A    between atoms: N_21  and  C_22
REMARK    9  A    between atoms: C_22  and  C_23
REMARK   10  A    between atoms: C_26  and  O_27
REMARK                            x       y       z     vdW  Elec       q    Type
REMARK                         _______ _______ _______ _____ _____    ______ ____
ROOT
ATOM      1  C   UNL     1       0.757  12.034  20.046  0.00  0.00    +0.000 C 
ENDROOT
BRANCH   1   2
ATOM      2  C   UNL     1      -0.162  10.718  19.925  0.00  0.00    +0.000 C 
ATOM      3  C   UNL     1       0.406   9.483  20.676  0.00  0.00    +0.000 C 
ATOM      4  C   UNL     1       1.673   8.929  20.006  0.00  0.00    +0.000 C 
ATOM      5  N   UNL     1       1.475   8.531  18.599  0.00  0.00    +0.000 NA
ATOM      6  C   UNL     1       0.798   9.581  17.829  0.00  0.00    +0.000 C 
ATOM      7  C   UNL     1      -0.449  10.139  18.521  0.00  0.00    +0.000 C 
BRANCH   5   8
ATOM      8  C   UNL     1       2.795   8.212  18.002  0.00  0.00    +0.000 C 
BRANCH   8   9
ATOM      9  C   UNL     1       3.130   6.740  17.862  0.00  0.00    +0.000 A 
ATOM     10  C   UNL     1       4.445   6.346  17.554  0.00  0.00    +0.000 A 
ATOM     11  C   UNL     1       4.798   4.992  17.488  0.00  0.00    +0.000 A 
ATOM     12  C   UNL     1       3.831   4.017  17.729  0.00  0.00    +0.000 A 
ATOM     13  C   UNL     1       2.518   4.392  18.021  0.00  0.00    +0.000 A 
ATOM     14 CL   UNL     1       1.296   3.211  18.334  0.00  0.00    +0.000 Cl
ATOM     15  C   UNL     1       2.167   5.747  18.082  0.00  0.00    +0.000 A 
BRANCH  12  16
ATOM     16  O   UNL     1       4.184   2.694  17.690  0.00  0.00    +0.000 OA
ATOM     17  H   UNL     1       4.353   2.436  16.770  0.00  0.00    +0.000 HD
ENDBRANCH  12  16
ENDBRANCH   8   9
ENDBRANCH   5   8
ENDBRANCH   1   2
BRANCH   1  19
ATOM     18  C   UNL     1       0.272  14.108  18.658  0.00  0.00    +0.000 C 
ATOM     19  N   UNL     1       0.989  12.834  18.798  0.00  0.00    +0.000 NA
BRANCH  19  20
ATOM     20  C   UNL     1       2.372  13.012  18.323  0.00  0.00    +0.000 C 
BRANCH  20  21
ATOM     21  C   UNL     1       3.155  14.228  18.778  0.00  0.00    +0.000 A 
ATOM     22  C   UNL     1       3.587  14.448  20.092  0.00  0.00    +0.000 A 
ATOM     23  C   UNL     1       4.352  15.564  20.386  0.00  0.00    +0.000 A 
ATOM     24  N   UNL     1       4.697  16.495  19.480  0.00  0.00    +0.000 NA
ATOM     25  C   UNL     1       4.246  16.296  18.224  0.00  0.00    +0.000 A 
ATOM     26  C   UNL     1       3.480  15.208  17.832  0.00  0.00    +0.000 A 
ENDBRANCH  20  21
ENDBRANCH  19  20
ENDBRANCH   1  19
BRANCH   1  27
ATOM     27  C   UNL     1       0.255  12.954  21.237  0.00  0.00    +0.000 C 
BRANCH  27  28
ATOM     28  C   UNL     1      -1.193  12.872  21.686  0.00  0.00    +0.000 A 
ATOM     29  C   UNL     1      -1.486  12.287  22.930  0.00  0.00    +0.000 A 
ATOM     30  C   UNL     1      -2.806  12.118  23.353  0.00  0.00    +0.000 A 
ATOM     31  C   UNL     1      -3.856  12.560  22.552  0.00  0.00    +0.000 A 
ATOM     32  C   UNL     1      -3.580  13.210  21.353  0.00  0.00    +0.000 A 
ATOM     33  C   UNL     1      -2.259  13.377  20.932  0.00  0.00    +0.000 A 
ENDBRANCH  27  28
ENDBRANCH   1  27
TORSDOF 9
ENDMDL
MODEL 3
REMARK VINA RESULT:      -7.2      3.053      5.159
REMARK  Name = 
REMARK  10 active torsions:
REMARK  status: ('A' for Active; 'I' for Inactive)
REMARK    1  A    between atoms: C_1  and  N_2
REMARK    2  A    between atoms: N_2  and  C_3
REMARK    3  A    between atoms: N_2  and  C_10
REMARK    4  A    between atoms: C_3  and  C_4
REMARK    5  A    between atoms: C_10  and  C_11
REMARK    6  A    between atoms: C_10  and  C_18
REMARK    7  A    between atoms: C_11  and  C_12
REMARK    8  A    between atoms: N_21  and  C_22
REMARK    9  A    between atoms: C_22  and  C_23
REMARK   10  A    between atoms: C_26  and  O_27
REMARK                            x       y       z     vdW  Elec       q    Type
REMARK                         _______ _______ _______ _____ _____    ______ ____
ROOT
ATOM      1  C   UNL     1      -0.525  10.728  20.197  0.00  0.00    +0.000 C 
ENDROOT
BRANCH   1   2
ATOM      2  C   UNL     1       1.084  10.740  20.231  0.00  0.00    +0.000 C 
ATOM      3  C   UNL     1       1.743  10.651  18.827  0.00  0.00    +0.000 C 
ATOM      4  C   UNL     1       1.546   9.271  18.180  0.00  0.00    +0.000 C 
ATOM      5  N   UNL     1       2.081   8.156  18.985  0.00  0.00    +0.000 NA
ATOM      6  C   UNL     1       1.638   8.234  20.382  0.00  0.00    +0.000 C 
ATOM      7  C   UNL     1       1.819   9.621  21.004  0.00  0.00    +0.000 C 
BRANCH   5   8
ATOM      8  C   UNL     1       1.654   6.875  18.370  0.00  0.00    +0.000 C 
BRANCH   8   9
ATOM      9  C   UNL     1       2.514   5.664  18.680  0.00  0.00    +0.000 A 
ATOM     10  C   UNL     1       3.676   5.419  17.927  0.00  0.00    +0.000 A 
ATOM     11  C   UNL     1       4.526   4.349  18.234  0.00  0.00    +0.000 A 
ATOM     12  C   UNL     1       4.215   3.511  19.305  0.00  0.00    +0.000 A 
ATOM     13  C   UNL     1       3.057   3.732  20.052  0.00  0.00    +0.000 A 
ATOM     14 CL   UNL     1       2.644   2.720  21.391  0.00  0.00    +0.000 Cl
ATOM     15  C   UNL     1       2.206   4.801  19.739  0.00  0.00    +0.000 A 
BRANCH  12  16
ATOM     16  O   UNL     1       5.060   2.480  19.622  0.00  0.00    +0.000 OA
ATOM     17  H   UNL     1       4.614   1.637  19.449  0.00  0.00    +0.000 HD
ENDBRANCH  12  16
ENDBRANCH   8   9
ENDBRANCH   5   8
ENDBRANCH   1   2
BRANCH   1  19
ATOM     18  C   UNL     1      -0.674  10.341  22.705  0.00  0.00    +0.000 C 
ATOM     19  N   UNL     1      -1.247  10.943  21.495  0.00  0.00    +0.000 NA
BRANCH  19  20
ATOM     20  C   UNL     1      -1.727  12.297  21.819  0.00  0.00    +0.000 C 
BRANCH  20  21
ATOM     21  C   UNL     1      -3.112  12.463  22.415  0.00  0.00    +0.000 A 
ATOM     22  C   UNL     1      -3.389  12.479  23.787  0.00  0.00    +0.000 A 
ATOM     23  C   UNL     1      -4.685  12.701  24.224  0.00  0.00    +0.000 A 
ATOM     24  N   UNL     1      -5.732  12.880  23.401  0.00  0.00    +0.000 NA
ATOM     25  C   UNL     1      -5.463  12.826  22.080  0.00  0.00    +0.000 A 
ATOM     26  C   UNL     1      -4.200  12.616  21.546  0.00  0.00    +0.000 A 
ENDBRANCH  20  21
ENDBRANCH  19  20
ENDBRANCH   1  19
BRANCH   1  27
ATOM     27  C   UNL     1      -1.064  11.704  19.069  0.00  0.00    +0.000 C 
BRANCH  27  28
ATOM     28  C   UNL     1      -2.110  11.207  18.087  0.00  0.00    +0.000 A 
ATOM     29  C   UNL     1      -1.747  10.227  17.147  0.00  0.00    +0.000 A 
ATOM     30  C   UNL     1      -2.651   9.794  16.173  0.00  0.00    +0.000 A 
ATOM     31  C   UNL     1      -3.942  10.312  16.142  0.00  0.00    +0.000 A 
ATOM     32  C   UNL     1      -4.340  11.226  17.113  0.00  0.00    +0.000 A 
ATOM     33  C   UNL     1      -3.435  11.658  18.085  0.00  0.00    +0.000 A 
ENDBRANCH  27  28
ENDBRANCH   1  27
TORSDOF 9
ENDMDL
MODEL 4
REMARK VINA RESULT:      -7.1      1.142      1.807
REMARK  Name = 
REMARK  10 active torsions:
REMARK  status: ('A' for Active; 'I' for Inactive)
REMARK    1  A    between atoms: C_1  and  N_2
REMARK    2  A    between atoms: N_2  and  C_3
REMARK    3  A    between atoms: N_2  and  C_10
REMARK    4  A    between atoms: C_3  and  C_4
REMARK    5  A    between atoms: C_10  and  C_11
REMARK    6  A    between atoms: C_10  and  C_18
REMARK    7  A    between atoms: C_11  and  C_12
REMARK    8  A    between atoms: N_21  and  C_22
REMARK    9  A    between atoms: C_22  and  C_23
REMARK   10  A    between atoms: C_26  and  O_27
REMARK                            x       y       z     vdW  Elec       q    Type
REMARK                         _______ _______ _______ _____ _____    ______ ____
ROOT
ATOM      1  C   UNL     1       0.979  11.894  19.895  0.00  0.00    +0.000 C 
ENDROOT
BRANCH   1   2
ATOM      2  C   UNL     1      -0.029  10.651  19.720  0.00  0.00    +0.000 C 
ATOM      3  C   UNL     1       0.354   9.407  20.567  0.00  0.00    +0.000 C 
ATOM      4  C   UNL     1       1.634   8.727  20.055  0.00  0.00    +0.000 C 
ATOM      5  N   UNL     1       1.550   8.288  18.648  0.00  0.00    +0.000 NA
ATOM      6  C   UNL     1       1.045   9.356  17.777  0.00  0.00    +0.000 C 
ATOM      7  C   UNL     1      -0.216  10.039  18.313  0.00  0.00    +0.000 C 
BRANCH   5   8
ATOM      8  C   UNL     1       2.894   7.842  18.206  0.00  0.00    +0.000 C 
BRANCH   8   9
ATOM      9  C   UNL     1       3.093   6.344  18.074  0.00  0.00    +0.000 A 
ATOM     10  C   UNL     1       2.203   5.459  18.710  0.00  0.00    +0.000 A 
ATOM     11  C   UNL     1       2.320   4.073  18.548  0.00  0.00    +0.000 A 
ATOM     12  C   UNL     1       3.336   3.560  17.743  0.00  0.00    +0.000 A 
ATOM     13  C   UNL     1       4.236   4.424  17.116  0.00  0.00    +0.000 A 
ATOM     14 CL   UNL     1       5.502   3.823  16.104  0.00  0.00    +0.000 Cl
ATOM     15  C   UNL     1       4.119   5.810  17.284  0.00  0.00    +0.000 A 
BRANCH  12  16
ATOM     16  O   UNL     1       3.434   2.205  17.564  0.00  0.00    +0.000 OA
ATOM     17  H   UNL     1       3.613   1.782  18.418  0.00  0.00    +0.000 HD
ENDBRANCH  12  16
ENDBRANCH   8   9
ENDBRANCH   5   8
ENDBRANCH   1   2
BRANCH   1  19
ATOM     18  C   UNL     1       0.447  13.966  18.522  0.00  0.00    +0.000 C 
ATOM     19  N   UNL     1       1.246  12.745  18.689  0.00  0.00    +0.000 NA
BRANCH  19  20
ATOM     20  C   UNL     1       2.644  13.038  18.328  0.00  0.00    +0.000 C 
BRANCH  20  21
ATOM     21  C   UNL     1       3.193  14.428  18.585  0.00  0.00    +0.000 A 
ATOM     22  C   UNL     1       3.406  15.393  17.594  0.00  0.00    +0.000 A 
ATOM     23  C   UNL     1       3.852  16.655  17.949  0.00  0.00    +0.000 A 
ATOM     24  N   UNL     1       4.131  17.023  19.211  0.00  0.00    +0.000 NA
ATOM     25  C   UNL     1       3.959  16.076  20.156  0.00  0.00    +0.000 A 
ATOM     26  C   UNL     1       3.511  14.789  19.901  0.00  0.00    +0.000 A 
ENDBRANCH  20  21
ENDBRANCH  19  20
ENDBRANCH   1  19
BRANCH   1  27
ATOM     27  C   UNL     1       0.559  12.777  21.144  0.00  0.00    +0.000 C 
BRANCH  27  28
ATOM     28  C   UNL     1      -0.873  12.729  21.647  0.00  0.00    +0.000 A 
ATOM     29  C   UNL     1      -1.148  12.058  22.851  0.00  0.00    +0.000 A 
ATOM     30  C   UNL     1      -2.458  11.920  23.315  0.00  0.00    +0.000 A 
ATOM     31  C   UNL     1      -3.513  12.476  22.597  0.00  0.00    +0.000 A 
ATOM     32  C   UNL     1      -3.251  13.208  21.444  0.00  0.00    +0.000 A 
ATOM     33  C   UNL     1      -1.939  13.345  20.981  0.00  0.00    +0.000 A 
ENDBRANCH  27  28
ENDBRANCH   1  27
TORSDOF 9
ENDMDL
MODEL 5
REMARK VINA RESULT:      -7.0      2.366      4.928
REMARK  Name = 
REMARK  10 active torsions:
REMARK  status: ('A' for Active; 'I' for Inactive)
REMARK    1  A    between atoms: C_1  and  N_2
REMARK    2  A    between atoms: N_2  and  C_3
REMARK    3  A    between atoms: N_2  and  C_10
REMARK    4  A    between atoms: C_3  and  C_4
REMARK    5  A    between atoms: C_10  and  C_11
REMARK    6  A    between atoms: C_10  and  C_18
REMARK    7  A    between atoms: C_11  and  C_12
REMARK    8  A    between atoms: N_21  and  C_22
REMARK    9  A    between atoms: C_22  and  C_23
REMARK   10  A    between atoms: C_26  and  O_27
REMARK                            x       y       z     vdW  Elec       q    Type
REMARK                         _______ _______ _______ _____ _____    ______ ____
ROOT
ATOM      1  C   UNL     1      -0.488  11.264  21.256  0.00  0.00    +0.000 C 
ENDROOT
BRANCH   1   2
ATOM      2  C   UNL     1      -0.304  10.123  22.376  0.00  0.00    +0.000 C 
ATOM      3  C   UNL     1       1.177   9.833  22.742  0.00  0.00    +0.000 C 
ATOM      4  C   UNL     1       1.933   9.141  21.597  0.00  0.00    +0.000 C 
ATOM      5  N   UNL     1       1.330   7.862  21.174  0.00  0.00    +0.000 NA
ATOM      6  C   UNL     1      -0.115   7.992  20.949  0.00  0.00    +0.000 C 
ATOM      7  C   UNL     1      -0.849   8.705  22.088  0.00  0.00    +0.000 C 
BRANCH   5   8
ATOM      8  C   UNL     1       2.012   7.395  19.943  0.00  0.00    +0.000 C 
BRANCH   8   9
ATOM      9  C   UNL     1       1.913   5.912  19.642  0.00  0.00    +0.000 A 
ATOM     10  C   UNL     1       2.063   5.452  18.321  0.00  0.00    +0.000 A 
ATOM     11  C   UNL     1       2.046   4.084  18.024  0.00  0.00    +0.000 A 
ATOM     12  C   UNL     1       1.877   3.160  19.055  0.00  0.00    +0.000 A 
ATOM     13  C   UNL     1       1.712   3.601  20.369  0.00  0.00    +0.000 A 
ATOM     14 CL   UNL     1       1.510   2.483  21.672  0.00  0.00    +0.000 Cl
ATOM     15  C   UNL     1       1.725   4.970  20.662  0.00  0.00    +0.000 A 
BRANCH  12  16
ATOM     16  O   UNL     1       1.887   1.820  18.766  0.00  0.00    +0.000 OA
ATOM     17  H   UNL     1       2.331   1.680  17.916  0.00  0.00    +0.000 HD
ENDBRANCH  12  16
ENDBRANCH   8   9
ENDBRANCH   5   8
ENDBRANCH   1   2
BRANCH   1  19
ATOM     18  C   UNL     1      -2.519  12.550  22.082  0.00  0.00    +0.000 C 
ATOM     19  N   UNL     1      -1.876  11.778  21.011  0.00  0.00    +0.000 NA
BRANCH  19  20
ATOM     20  C   UNL     1      -2.172  12.419  19.718  0.00  0.00    +0.000 C 
BRANCH  20  21
ATOM     21  C   UNL     1      -2.469  11.544  18.516  0.00  0.00    +0.000 A 
ATOM     22  C   UNL     1      -1.549  10.673  17.920  0.00  0.00    +0.000 A 
ATOM     23  C   UNL     1      -1.946   9.871  16.863  0.00  0.00    +0.000 A 
ATOM     24  N   UNL     1      -3.181   9.889  16.334  0.00  0.00    +0.000 NA
ATOM     25  C   UNL     1      -4.052  10.757  16.888  0.00  0.00    +0.000 A 
ATOM     26  C   UNL     1      -3.750  11.596  17.952  0.00  0.00    +0.000 A 
ENDBRANCH  20  21
ENDBRANCH  19  20
ENDBRANCH   1  19
BRANCH   1  27
ATOM     27  C   UNL     1       0.533  12.452  21.502  0.00  0.00    +0.000 C 
BRANCH  27  28
ATOM     28  C   UNL     1       1.309  13.027  20.329  0.00  0.00    +0.000 A 
ATOM     29  C   UNL     1       1.623  12.188  19.246  0.00  0.00    +0.000 A 
ATOM     30  C   UNL     1       2.401  12.648  18.181  0.00  0.00    +0.000 A 
ATOM     31  C   UNL     1       2.852  13.965  18.167  0.00  0.00    +0.000 A 
ATOM     32  C   UNL     1       2.486  14.829  19.193  0.00  0.00    +0.000 A 
ATOM     33  C   UNL     1       1.708  14.367  20.258  0.00  0.00    +0.000 A 
ENDBRANCH  27  28
ENDBRANCH   1  27
TORSDOF 9
ENDMDL
MODEL 6
REMARK VINA RESULT:      -7.0      1.038      1.645
REMARK  Name = 
REMARK  10 active torsions:
REMARK  status: ('A' for Active; 'I' for Inactive)
REMARK    1  A    between atoms: C_1  and  N_2
REMARK    2  A    between atoms: N_2  and  C_3
REMARK    3  A    between atoms: N_2  and  C_10
REMARK    4  A    between atoms: C_3  and  C_4
REMARK    5  A    between atoms: C_10  and  C_11
REMARK    6  A    between atoms: C_10  and  C_18
REMARK    7  A    between atoms: C_11  and  C_12
REMARK    8  A    between atoms: N_21  and  C_22
REMARK    9  A    between atoms: C_22  and  C_23
REMARK   10  A    between atoms: C_26  and  O_27
REMARK                            x       y       z     vdW  Elec       q    Type
REMARK                         _______ _______ _______ _____ _____    ______ ____
ROOT
ATOM      1  C   UNL     1       0.881  11.891  20.375  0.00  0.00    +0.000 C 
ENDROOT
BRANCH   1   2
ATOM      2  C   UNL     1      -0.219  10.777  20.006  0.00  0.00    +0.000 C 
ATOM      3  C   UNL     1      -0.186   9.529  20.930  0.00  0.00    +0.000 C 
ATOM      4  C   UNL     1       1.074   8.677  20.708  0.00  0.00    +0.000 C 
ATOM      5  N   UNL     1       1.229   8.197  19.321  0.00  0.00    +0.000 NA
ATOM      6  C   UNL     1       1.060   9.284  18.350  0.00  0.00    +0.000 C 
ATOM      7  C   UNL     1      -0.186  10.138  18.598  0.00  0.00    +0.000 C 
BRANCH   5   8
ATOM      8  C   UNL     1       2.566   7.570  19.180  0.00  0.00    +0.000 C 
BRANCH   8   9
ATOM      9  C   UNL     1       2.593   6.055  19.111  0.00  0.00    +0.000 A 
ATOM     10  C   UNL     1       2.890   5.414  17.895  0.00  0.00    +0.000 A 
ATOM     11  C   UNL     1       2.991   4.019  17.818  0.00  0.00    +0.000 A 
ATOM     12  C   UNL     1       2.794   3.252  18.965  0.00  0.00    +0.000 A 
ATOM     13  C   UNL     1       2.484   3.873  20.177  0.00  0.00    +0.000 A 
ATOM     14 CL   UNL     1       2.241   2.955  21.620  0.00  0.00    +0.000 Cl
ATOM     15  C   UNL     1       2.379   5.268  20.250  0.00  0.00    +0.000 A 
BRANCH  12  16
ATOM     16  O   UNL     1       2.919   1.889  18.895  0.00  0.00    +0.000 OA
ATOM     17  H   UNL     1       3.497   1.661  18.151  0.00  0.00    +0.000 HD
ENDBRANCH  12  16
ENDBRANCH   8   9
ENDBRANCH   5   8
ENDBRANCH   1   2
BRANCH   1  19
ATOM     18  C   UNL     1       0.518  13.450  18.400  0.00  0.00    +0.000 C 
ATOM     19  N   UNL     1       1.454  12.701  19.248  0.00  0.00    +0.000 NA
BRANCH  19  20
ATOM     20  C   UNL     1       2.634  13.541  19.513  0.00  0.00    +0.000 C 
BRANCH  20  21
ATOM     21  C   UNL     1       2.657  14.962  18.984  0.00  0.00    +0.000 A 
ATOM     22  C   UNL     1       3.212  15.343  17.756  0.00  0.00    +0.000 A 
ATOM     23  C   UNL     1       3.121  16.661  17.341  0.00  0.00    +0.000 A 
ATOM     24  N   UNL     1       2.548  17.637  18.065  0.00  0.00    +0.000 NA
ATOM     25  C   UNL     1       2.050  17.270  19.264  0.00  0.00    +0.000 A 
ATOM     26  C   UNL     1       2.086  15.976  19.763  0.00  0.00    +0.000 A 
ENDBRANCH  20  21
ENDBRANCH  19  20
ENDBRANCH   1  19
BRANCH   1  27
ATOM     27  C   UNL     1       0.357  12.823  21.547  0.00  0.00    +0.000 C 
BRANCH  27  28
ATOM     28  C   UNL     1      -1.127  12.863  21.863  0.00  0.00    +0.000 A 
ATOM     29  C   UNL     1      -1.589  12.240  23.036  0.00  0.00    +0.000 A 
ATOM     30  C   UNL     1      -2.953  12.183  23.332  0.00  0.00    +0.000 A 
ATOM     31  C   UNL     1      -3.877  12.772  22.473  0.00  0.00    +0.000 A 
ATOM     32  C   UNL     1      -3.431  13.458  21.348  0.00  0.00    +0.000 A 
ATOM     33  C   UNL     1      -2.066  13.514  21.054  0.00  0.00    +0.000 A 
ENDBRANCH  27  28
ENDBRANCH   1  27
TORSDOF 9
ENDMDL
MODEL 7
REMARK VINA RESULT:      -6.9      2.966      5.167
REMARK  Name = 
REMARK  10 active torsions:
REMARK  status: ('A' for Active; 'I' for Inactive)
REMARK    1  A    between atoms: C_1  and  N_2
REMARK    2  A    between atoms: N_2  and  C_3
REMARK    3  A    between atoms: N_2  and  C_10
REMARK    4  A    between atoms: C_3  and  C_4
REMARK    5  A    between atoms: C_10  and  C_11
REMARK    6  A    between atoms: C_10  and  C_18
REMARK    7  A    between atoms: C_11  and  C_12
REMARK    8  A    between atoms: N_21  and  C_22
REMARK    9  A    between atoms: C_22  and  C_23
REMARK   10  A    between atoms: C_26  and  O_27
REMARK                            x       y       z     vdW  Elec       q    Type
REMARK                         _______ _______ _______ _____ _____    ______ ____
ROOT
ATOM      1  C   UNL     1      -0.941  11.238  20.649  0.00  0.00    +0.000 C 
ENDROOT
BRANCH   1   2
ATOM      2  C   UNL     1       0.651  11.229  20.888  0.00  0.00    +0.000 C 
ATOM      3  C   UNL     1       1.479  11.560  19.617  0.00  0.00    +0.000 C 
ATOM      4  C   UNL     1       1.408  10.438  18.569  0.00  0.00    +0.000 C 
ATOM      5  N   UNL     1       1.876   9.130  19.066  0.00  0.00    +0.000 NA
ATOM      6  C   UNL     1       1.262   8.789  20.355  0.00  0.00    +0.000 C 
ATOM      7  C   UNL     1       1.321   9.925  21.380  0.00  0.00    +0.000 C 
BRANCH   5   8
ATOM      8  C   UNL     1       1.569   8.095  18.049  0.00  0.00    +0.000 C 
BRANCH   8   9
ATOM      9  C   UNL     1       2.568   6.960  17.925  0.00  0.00    +0.000 A 
ATOM     10  C   UNL     1       2.141   5.629  18.084  0.00  0.00    +0.000 A 
ATOM     11  C   UNL     1       3.026   4.559  17.906  0.00  0.00    +0.000 A 
ATOM     12  C   UNL     1       4.354   4.815  17.566  0.00  0.00    +0.000 A 
ATOM     13  C   UNL     1       4.796   6.131  17.418  0.00  0.00    +0.000 A 
ATOM     14 CL   UNL     1       6.432   6.485  16.989  0.00  0.00    +0.000 Cl
ATOM     15  C   UNL     1       3.910   7.200  17.602  0.00  0.00    +0.000 A 
BRANCH  12  16
ATOM     16  O   UNL     1       5.212   3.766  17.365  0.00  0.00    +0.000 OA
ATOM     17  H   UNL     1       5.470   3.739  16.431  0.00  0.00    +0.000 HD
ENDBRANCH  12  16
ENDBRANCH   8   9
ENDBRANCH   5   8
ENDBRANCH   1   2
BRANCH   1  19
ATOM     18  C   UNL     1      -1.476  11.113  23.131  0.00  0.00    +0.000 C 
ATOM     19  N   UNL     1      -1.813  11.639  21.803  0.00  0.00    +0.000 NA
BRANCH  19  20
ATOM     20  C   UNL     1      -2.198  13.055  21.935  0.00  0.00    +0.000 C 
BRANCH  20  21
ATOM     21  C   UNL     1      -3.629  13.457  21.634  0.00  0.00    +0.000 A 
ATOM     22  C   UNL     1      -3.996  14.548  20.837  0.00  0.00    +0.000 A 
ATOM     23  C   UNL     1      -5.335  14.788  20.574  0.00  0.00    +0.000 A 
ATOM     24  N   UNL     1      -6.339  14.044  21.068  0.00  0.00    +0.000 NA
ATOM     25  C   UNL     1      -5.980  13.017  21.866  0.00  0.00    +0.000 A 
ATOM     26  C   UNL     1      -4.668  12.694  22.181  0.00  0.00    +0.000 A 
ENDBRANCH  20  21
ENDBRANCH  19  20
ENDBRANCH   1  19
BRANCH   1  27
ATOM     27  C   UNL     1      -1.301  12.058  19.340  0.00  0.00    +0.000 C 
BRANCH  27  28
ATOM     28  C   UNL     1      -2.286  11.477  18.341  0.00  0.00    +0.000 A 
ATOM     29  C   UNL     1      -1.832  10.518  17.419  0.00  0.00    +0.000 A 
ATOM     30  C   UNL     1      -2.679  10.011  16.431  0.00  0.00    +0.000 A 
ATOM     31  C   UNL     1      -4.004  10.434  16.366  0.00  0.00    +0.000 A 
ATOM     32  C   UNL     1      -4.489  11.325  17.318  0.00  0.00    +0.000 A 
ATOM     33  C   UNL     1      -3.640  11.831  18.306  0.00  0.00    +0.000 A 
ENDBRANCH  27  28
ENDBRANCH   1  27
TORSDOF 9
ENDMDL
MODEL 8
REMARK VINA RESULT:      -6.9      1.428      1.671
REMARK  Name = 
REMARK  10 active torsions:
REMARK  status: ('A' for Active; 'I' for Inactive)
REMARK    1  A    between atoms: C_1  and  N_2
REMARK    2  A    between atoms: N_2  and  C_3
REMARK    3  A    between atoms: N_2  and  C_10
REMARK    4  A    between atoms: C_3  and  C_4
REMARK    5  A    between atoms: C_10  and  C_11
REMARK    6  A    between atoms: C_10  and  C_18
REMARK    7  A    between atoms: C_11  and  C_12
REMARK    8  A    between atoms: N_21  and  C_22
REMARK    9  A    between atoms: C_22  and  C_23
REMARK   10  A    between atoms: C_26  and  O_27
REMARK                            x       y       z     vdW  Elec       q    Type
REMARK                         _______ _______ _______ _____ _____    ______ ____
ROOT
ATOM      1  C   UNL     1       0.342  12.288  20.028  0.00  0.00    +0.000 C 
ENDROOT
BRANCH   1   2
ATOM      2  C   UNL     1      -0.584  10.979  19.895  0.00  0.00    +0.000 C 
ATOM      3  C   UNL     1      -0.111   9.782  20.764  0.00  0.00    +0.000 C 
ATOM      4  C   UNL     1       1.203   9.174  20.249  0.00  0.00    +0.000 C 
ATOM      5  N   UNL     1       1.132   8.699  18.854  0.00  0.00    +0.000 NA
ATOM      6  C   UNL     1       0.548   9.711  17.966  0.00  0.00    +0.000 C 
ATOM      7  C   UNL     1      -0.748  10.323  18.504  0.00  0.00    +0.000 C 
BRANCH   5   8
ATOM      8  C   UNL     1       2.496   8.331  18.404  0.00  0.00    +0.000 C 
BRANCH   8   9
ATOM      9  C   UNL     1       2.873   6.867  18.533  0.00  0.00    +0.000 A 
ATOM     10  C   UNL     1       2.409   6.118  19.630  0.00  0.00    +0.000 A 
ATOM     11  C   UNL     1       2.682   4.749  19.740  0.00  0.00    +0.000 A 
ATOM     12  C   UNL     1       3.427   4.116  18.745  0.00  0.00    +0.000 A 
ATOM     13  C   UNL     1       3.906   4.848  17.658  0.00  0.00    +0.000 A 
ATOM     14 CL   UNL     1       4.825   4.095  16.403  0.00  0.00    +0.000 Cl
ATOM     15  C   UNL     1       3.636   6.219  17.554  0.00  0.00    +0.000 A 
BRANCH  12  16
ATOM     16  O   UNL     1       3.671   2.771  18.840  0.00  0.00    +0.000 OA
ATOM     17  H   UNL     1       2.894   2.283  18.525  0.00  0.00    +0.000 HD
ENDBRANCH  12  16
ENDBRANCH   8   9
ENDBRANCH   5   8
ENDBRANCH   1   2
BRANCH   1  19
ATOM     18  C   UNL     1      -0.040  14.442  18.735  0.00  0.00    +0.000 C 
ATOM     19  N   UNL     1       0.568  13.107  18.792  0.00  0.00    +0.000 NA
BRANCH  19  20
ATOM     20  C   UNL     1       1.929  13.180  18.233  0.00  0.00    +0.000 C 
BRANCH  20  21
ATOM     21  C   UNL     1       2.874  14.251  18.741  0.00  0.00    +0.000 A 
ATOM     22  C   UNL     1       3.365  14.322  20.050  0.00  0.00    +0.000 A 
ATOM     23  C   UNL     1       4.276  15.308  20.390  0.00  0.00    +0.000 A 
ATOM     24  N   UNL     1       4.715  16.248  19.536  0.00  0.00    +0.000 NA
ATOM     25  C   UNL     1       4.210  16.196  18.287  0.00  0.00    +0.000 A 
ATOM     26  C   UNL     1       3.299  15.245  17.850  0.00  0.00    +0.000 A 
ENDBRANCH  20  21
ENDBRANCH  19  20
ENDBRANCH   1  19
BRANCH   1  27
ATOM     27  C   UNL     1      -0.144  13.191  21.238  0.00  0.00    +0.000 C 
BRANCH  27  28
ATOM     28  C   UNL     1      -1.535  12.987  21.812  0.00  0.00    +0.000 A 
ATOM     29  C   UNL     1      -2.642  13.487  21.105  0.00  0.00    +0.000 A 
ATOM     30  C   UNL     1      -3.933  13.393  21.629  0.00  0.00    +0.000 A 
ATOM     31  C   UNL     1      -4.143  12.770  22.856  0.00  0.00    +0.000 A 
ATOM     32  C   UNL     1      -3.068  12.202  23.533  0.00  0.00    +0.000 A 
ATOM     33  C   UNL     1      -1.777  12.298  23.007  0.00  0.00    +0.000 A 
ENDBRANCH  27  28
ENDBRANCH   1  27
TORSDOF 9
ENDMDL
MODEL 9
REMARK VINA RESULT:      -6.8      4.532      9.193
REMARK  Name = 
REMARK  10 active torsions:
REMARK  status: ('A' for Active; 'I' for Inactive)
REMARK    1  A    between atoms: C_1  and  N_2
REMARK    2  A    between atoms: N_2  and  C_3
REMARK    3  A    between atoms: N_2  and  C_10
REMARK    4  A    between atoms: C_3  and  C_4
REMARK    5  A    between atoms: C_10  and  C_11
REMARK    6  A    between atoms: C_10  and  C_18
REMARK    7  A    between atoms: C_11  and  C_12
REMARK    8  A    between atoms: N_21  and  C_22
REMARK    9  A    between atoms: C_22  and  C_23
REMARK   10  A    between atoms: C_26  and  O_27
REMARK                            x       y       z     vdW  Elec       q    Type
REMARK                         _______ _______ _______ _____ _____    ______ ____
ROOT
ATOM      1  C   UNL     1       0.414  10.311  19.287  0.00  0.00    +0.000 C 
ENDROOT
BRANCH   1   2
ATOM      2  C   UNL     1       0.918  11.158  20.559  0.00  0.00    +0.000 C 
ATOM      3  C   UNL     1      -0.031  11.077  21.785  0.00  0.00    +0.000 C 
ATOM      4  C   UNL     1      -1.358  11.815  21.542  0.00  0.00    +0.000 C 
ATOM      5  N   UNL     1      -1.191  13.244  21.212  0.00  0.00    +0.000 NA
ATOM      6  C   UNL     1      -0.189  13.444  20.158  0.00  0.00    +0.000 C 
ATOM      7  C   UNL     1       1.117  12.684  20.404  0.00  0.00    +0.000 C 
BRANCH   5   8
ATOM      8  C   UNL     1      -2.504  13.795  20.799  0.00  0.00    +0.000 C 
BRANCH   8   9
ATOM      9  C   UNL     1      -3.643  13.628  21.787  0.00  0.00    +0.000 A 
ATOM     10  C   UNL     1      -3.545  14.193  23.071  0.00  0.00    +0.000 A 
ATOM     11  C   UNL     1      -4.608  14.115  23.979  0.00  0.00    +0.000 A 
ATOM     12  C   UNL     1      -5.784  13.466  23.605  0.00  0.00    +0.000 A 
ATOM     13  C   UNL     1      -5.891  12.887  22.339  0.00  0.00    +0.000 A 
ATOM     14 CL   UNL     1      -7.336  12.082  21.839  0.00  0.00    +0.000 Cl
ATOM     15  C   UNL     1      -4.824  12.963  21.435  0.00  0.00    +0.000 A 
BRANCH  12  16
ATOM     16  O   UNL     1      -6.834  13.413  24.485  0.00  0.00    +0.000 OA
ATOM     17  H   UNL     1      -7.561  12.913  24.084  0.00  0.00    +0.000 HD
ENDBRANCH  12  16
ENDBRANCH   8   9
ENDBRANCH   5   8
ENDBRANCH   1   2
BRANCH   1  19
ATOM     18  C   UNL     1       1.960   9.023  17.734  0.00  0.00    +0.000 C 
ATOM     19  N   UNL     1       1.151   9.046  18.959  0.00  0.00    +0.000 NA
BRANCH  19  20
ATOM     20  C   UNL     1       1.894   8.366  20.033  0.00  0.00    +0.000 C 
BRANCH  20  21
ATOM     21  C   UNL     1       2.159   6.877  19.915  0.00  0.00    +0.000 A 
ATOM     22  C   UNL     1       3.116   6.306  19.068  0.00  0.00    +0.000 A 
ATOM     23  C   UNL     1       3.319   4.936  19.085  0.00  0.00    +0.000 A 
ATOM     24  N   UNL     1       2.623   4.086  19.859  0.00  0.00    +0.000 NA
ATOM     25  C   UNL     1       1.677   4.640  20.645  0.00  0.00    +0.000 A 
ATOM     26  C   UNL     1       1.404   5.998  20.702  0.00  0.00    +0.000 A 
ENDBRANCH  20  21
ENDBRANCH  19  20
ENDBRANCH   1  19
BRANCH   1  27
ATOM     27  C   UNL     1      -1.150  10.063  19.370  0.00  0.00    +0.000 C 
BRANCH  27  28
ATOM     28  C   UNL     1      -2.022  10.368  18.165  0.00  0.00    +0.000 A 
ATOM     29  C   UNL     1      -3.105  11.251  18.316  0.00  0.00    +0.000 A 
ATOM     30  C   UNL     1      -3.981  11.504  17.258  0.00  0.00    +0.000 A 
ATOM     31  C   UNL     1      -3.772  10.900  16.021  0.00  0.00    +0.000 A 
ATOM     32  C   UNL     1      -2.661  10.084  15.833  0.00  0.00    +0.000 A 
ATOM     33  C   UNL     1      -1.786   9.832  16.893  0.00  0.00    +0.000 A 
ENDBRANCH  27  28
ENDBRANCH   1  27
TORSDOF 9
ENDMDL
