MODEL 1
REMARK VINA RESULT:      -7.5      0.000      0.000
REMARK  Name = 
REMARK  10 active torsions:
REMARK  status: ('A' for Active; 'I' for Inactive)
REMARK    1  A    between atoms: C_1  and  C_2
REMARK    2  A    between atoms: C_2  and  O_3
REMARK    3  A    between atoms: O_3  and  C_4
REMARK    4  A    between atoms: C_4  and  C_6
REMARK    5  A    between atoms: C_6  and  C_8
REMARK    6  A    between atoms: C_8  and  C_9
REMARK    7  A    between atoms: C_9  and  C_11
REMARK    8  A    between atoms: C_12  and  C_13
REMARK    9  A    between atoms: N_17  and  C_18
REMARK   10  A    between atoms: C_18  and  C_19
REMARK                            x       y       z     vdW  Elec       q    Type
REMARK                         _______ _______ _______ _____ _____    ______ ____
ROOT
ATOM      1  C   UNL     1       3.185   3.309  18.340  0.00  0.00    +0.000 A 
ATOM      2  C   UNL     1       2.227   2.437  17.840  0.00  0.00    +0.000 A 
ATOM      3  C   UNL     1       1.034   2.593  18.580  0.00  0.00    +0.000 A 
ATOM      4  C   UNL     1       1.275   3.565  19.519  0.00  0.00    +0.000 A 
ATOM      5  N   UNL     1       2.575   4.008  19.374  0.00  0.00    +0.000 N 
ENDROOT
BRANCH   1   7
ATOM      6  C   UNL     1       4.847   4.208  16.846  0.00  0.00    +0.000 C 
ATOM      7  C   UNL     1       4.540   3.537  17.969  0.00  0.00    +0.000 C 
BRANCH   6   8
ATOM      8  C   UNL     1       6.269   4.420  16.450  0.00  0.00    +0.000 C 
ATOM      9  O   UNL     1       6.603   4.471  15.267  0.00  0.00    +0.000 OA
BRANCH   8  10
ATOM     10  C   UNL     1       7.280   4.576  17.555  0.00  0.00    +0.000 C 
BRANCH  10  11
ATOM     11  C   UNL     1       7.005   5.774  18.412  0.00  0.00    +0.000 C 
ATOM     12  O   UNL     1       6.691   5.693  19.595  0.00  0.00    +0.000 OA
BRANCH  11  13
ATOM     13  C   UNL     1       7.085   7.133  17.709  0.00  0.00    +0.000 C 
ATOM     14  O   UNL     1       6.236   7.509  16.921  0.00  0.00    +0.000 OA
BRANCH  13  15
ATOM     15  O   UNL     1       8.228   7.762  18.045  0.00  0.00    +0.000 OA
BRANCH  15  17
ATOM     16  C   UNL     1       9.163   9.743  18.991  0.00  0.00    +0.000 C 
ATOM     17  C   UNL     1       8.204   9.192  17.951  0.00  0.00    +0.000 C 
ENDBRANCH  15  17
ENDBRANCH  13  15
ENDBRANCH  11  13
ENDBRANCH  10  11
ENDBRANCH   8  10
ENDBRANCH   6   8
ENDBRANCH   1   7
BRANCH   5  18
ATOM     18  C   UNL     1       3.111   5.097  20.193  0.00  0.00    +0.000 C 
BRANCH  18  19
ATOM     19  C   UNL     1       2.494   6.427  19.832  0.00  0.00    +0.000 A 
ATOM     20  C   UNL     1       2.704   6.995  18.567  0.00  0.00    +0.000 A 
ATOM     21  C   UNL     1       2.188   8.255  18.268  0.00  0.00    +0.000 A 
ATOM     22  F   UNL     1       2.419   8.786  17.059  0.00  0.00    +0.000 F 
ATOM     23  C   UNL     1       1.449   8.970  19.197  0.00  0.00    +0.000 A 
ATOM     24  C   UNL     1       1.214   8.399  20.438  0.00  0.00    +0.000 A 
ATOM     25  F   UNL     1       0.492   9.071  21.345  0.00  0.00    +0.000 F 
ATOM     26  C   UNL     1       1.724   7.142  20.764  0.00  0.00    +0.000 A 
ENDBRANCH  18  19
ENDBRANCH   5  18
TORSDOF 9
ENDMDL
MODEL 2
REMARK VINA RESULT:      -7.5      1.110      2.118
REMARK  Name = 
REMARK  10 active torsions:
REMARK  status: ('A' for Active; 'I' for Inactive)
REMARK    1  A    between atoms: C_1  and  C_2
REMARK    2  A    between atoms: C_2  and  O_3
REMARK    3  A    between atoms: O_3  and  C_4
REMARK    4  A    between atoms: C_4  and  C_6
REMARK    5  A    between atoms: C_6  and  C_8
REMARK    6  A    between atoms: C_8  and  C_9
REMARK    7  A    between atoms: C_9  and  C_11
REMARK    8  A    between atoms: C_12  and  C_13
REMARK    9  A    between atoms: N_17  and  C_18
REMARK   10  A    between atoms: C_18  and  C_19
REMARK                            x       y       z     vdW  Elec       q    Type
REMARK                         _______ _______ _______ _____ _____    ______ ____
ROOT
ATOM      1  C   UNL     1       2.333   4.066  18.443  0.00  0.00    +0.000 A 
ATOM      2  C   UNL     1       1.325   3.120  18.308  0.00  0.00    +0.000 A 
ATOM      3  C   UNL     1       0.516   3.142  19.464  0.00  0.00    +0.000 A 
ATOM      4  C   UNL     1       1.033   4.109  20.291  0.00  0.00    +0.000 A 
ATOM      5  N   UNL     1       2.130   4.677  19.675  0.00  0.00    +0.000 N 
ENDROOT
BRANCH   1   7
ATOM      6  C   UNL     1       4.219   3.500  17.057  0.00  0.00    +0.000 C 
ATOM      7  C   UNL     1       3.407   4.432  17.585  0.00  0.00    +0.000 C 
BRANCH   6   8
ATOM      8  C   UNL     1       5.359   3.893  16.180  0.00  0.00    +0.000 C 
ATOM      9  O   UNL     1       5.295   3.778  14.956  0.00  0.00    +0.000 OA
BRANCH   8  10
ATOM     10  C   UNL     1       6.591   4.442  16.849  0.00  0.00    +0.000 C 
BRANCH  10  11
ATOM     11  C   UNL     1       7.018   5.755  16.267  0.00  0.00    +0.000 C 
ATOM     12  O   UNL     1       7.731   5.847  15.273  0.00  0.00    +0.000 OA
BRANCH  11  13
ATOM     13  C   UNL     1       6.553   7.004  17.021  0.00  0.00    +0.000 C 
ATOM     14  O   UNL     1       5.438   7.096  17.502  0.00  0.00    +0.000 OA
BRANCH  13  15
ATOM     15  O   UNL     1       7.514   7.948  16.994  0.00  0.00    +0.000 OA
BRANCH  15  17
ATOM     16  C   UNL     1       8.612   9.613  18.303  0.00  0.00    +0.000 C 
ATOM     17  C   UNL     1       8.228   8.147  18.220  0.00  0.00    +0.000 C 
ENDBRANCH  15  17
ENDBRANCH  13  15
ENDBRANCH  11  13
ENDBRANCH  10  11
ENDBRANCH   8  10
ENDBRANCH   6   8
ENDBRANCH   1   7
BRANCH   5  18
ATOM     18  C   UNL     1       2.860   5.792  20.282  0.00  0.00    +0.000 C 
BRANCH  18  19
ATOM     19  C   UNL     1       2.189   7.117  20.009  0.00  0.00    +0.000 A 
ATOM     20  C   UNL     1       1.393   7.732  20.986  0.00  0.00    +0.000 A 
ATOM     21  C   UNL     1       0.722   8.920  20.701  0.00  0.00    +0.000 A 
ATOM     22  F   UNL     1      -0.049   9.478  21.643  0.00  0.00    +0.000 F 
ATOM     23  C   UNL     1       0.832   9.529  19.460  0.00  0.00    +0.000 A 
ATOM     24  C   UNL     1       1.642   8.940  18.502  0.00  0.00    +0.000 A 
ATOM     25  F   UNL     1       1.770   9.521  17.301  0.00  0.00    +0.000 F 
ATOM     26  C   UNL     1       2.320   7.749  18.761  0.00  0.00    +0.000 A 
ENDBRANCH  18  19
ENDBRANCH   5  18
TORSDOF 9
ENDMDL
MODEL 3
REMARK VINA RESULT:      -7.5      2.766      5.535
REMARK  Name = 
REMARK  10 active torsions:
REMARK  status: ('A' for Active; 'I' for Inactive)
REMARK    1  A    between atoms: C_1  and  C_2
REMARK    2  A    between atoms: C_2  and  O_3
REMARK    3  A    between atoms: O_3  and  C_4
REMARK    4  A    between atoms: C_4  and  C_6
REMARK    5  A    between atoms: C_6  and  C_8
REMARK    6  A    between atoms: C_8  and  C_9
REMARK    7  A    between atoms: C_9  and  C_11
REMARK    8  A    between atoms: C_12  and  C_13
REMARK    9  A    between atoms: N_17  and  C_18
REMARK   10  A    between atoms: C_18  and  C_19
REMARK                            x       y       z     vdW  Elec       q    Type
REMARK                         _______ _______ _______ _____ _____    ______ ____
ROOT
ATOM      1  C   UNL     1       6.344   5.468  17.953  0.00  0.00    +0.000 A 
ATOM      2  C   UNL     1       7.581   5.986  18.314  0.00  0.00    +0.000 A 
ATOM      3  C   UNL     1       7.635   7.347  17.940  0.00  0.00    +0.000 A 
ATOM      4  C   UNL     1       6.425   7.647  17.363  0.00  0.00    +0.000 A 
ATOM      5  N   UNL     1       5.636   6.514  17.374  0.00  0.00    +0.000 N 
ENDROOT
BRANCH   1   7
ATOM      6  C   UNL     1       5.053   3.830  19.158  0.00  0.00    +0.000 C 
ATOM      7  C   UNL     1       5.792   4.163  18.086  0.00  0.00    +0.000 C 
BRANCH   6   8
ATOM      8  C   UNL     1       4.499   2.453  19.304  0.00  0.00    +0.000 C 
ATOM      9  O   UNL     1       4.739   1.769  20.298  0.00  0.00    +0.000 OA
BRANCH   8  10
ATOM     10  C   UNL     1       3.631   1.934  18.189  0.00  0.00    +0.000 C 
BRANCH  10  11
ATOM     11  C   UNL     1       2.379   2.740  18.021  0.00  0.00    +0.000 C 
ATOM     12  O   UNL     1       2.323   3.755  17.335  0.00  0.00    +0.000 OA
BRANCH  11  13
ATOM     13  C   UNL     1       1.159   2.252  18.808  0.00  0.00    +0.000 C 
ATOM     14  O   UNL     1       0.118   1.932  18.263  0.00  0.00    +0.000 OA
BRANCH  13  15
ATOM     15  O   UNL     1       1.408   2.307  20.131  0.00  0.00    +0.000 OA
BRANCH  15  17
ATOM     16  C   UNL     1       2.277   3.734  21.835  0.00  0.00    +0.000 C 
ATOM     17  C   UNL     1       1.229   3.589  20.747  0.00  0.00    +0.000 C 
ENDBRANCH  15  17
ENDBRANCH  13  15
ENDBRANCH  11  13
ENDBRANCH  10  11
ENDBRANCH   8  10
ENDBRANCH   6   8
ENDBRANCH   1   7
BRANCH   5  18
ATOM     18  C   UNL     1       4.257   6.535  16.885  0.00  0.00    +0.000 C 
BRANCH  18  19
ATOM     19  C   UNL     1       3.338   7.278  17.825  0.00  0.00    +0.000 A 
ATOM     20  C   UNL     1       2.965   6.718  19.055  0.00  0.00    +0.000 A 
ATOM     21  C   UNL     1       2.062   7.381  19.885  0.00  0.00    +0.000 A 
ATOM     22  F   UNL     1       1.706   6.817  21.046  0.00  0.00    +0.000 F 
ATOM     23  C   UNL     1       1.523   8.607  19.527  0.00  0.00    +0.000 A 
ATOM     24  C   UNL     1       1.911   9.178  18.325  0.00  0.00    +0.000 A 
ATOM     25  F   UNL     1       1.409  10.368  17.969  0.00  0.00    +0.000 F 
ATOM     26  C   UNL     1       2.810   8.532  17.476  0.00  0.00    +0.000 A 
ENDBRANCH  18  19
ENDBRANCH   5  18
TORSDOF 9
ENDMDL
MODEL 4
REMARK VINA RESULT:      -7.2      2.474      4.341
REMARK  Name = 
REMARK  10 active torsions:
REMARK  status: ('A' for Active; 'I' for Inactive)
REMARK    1  A    between atoms: C_1  and  C_2
REMARK    2  A    between atoms: C_2  and  O_3
REMARK    3  A    between atoms: O_3  and  C_4
REMARK    4  A    between atoms: C_4  and  C_6
REMARK    5  A    between atoms: C_6  and  C_8
REMARK    6  A    between atoms: C_8  and  C_9
REMARK    7  A    between atoms: C_9  and  C_11
REMARK    8  A    between atoms: C_12  and  C_13
REMARK    9  A    between atoms: N_17  and  C_18
REMARK   10  A    between atoms: C_18  and  C_19
REMARK                            x       y       z     vdW  Elec       q    Type
REMARK                         _______ _______ _______ _____ _____    ______ ____
ROOT
ATOM      1  C   UNL     1       2.857   7.167  18.620  0.00  0.00    +0.000 A 
ATOM      2  C   UNL     1       2.655   8.214  17.731  0.00  0.00    +0.000 A 
ATOM      3  C   UNL     1       1.671   9.080  18.256  0.00  0.00    +0.000 A 
ATOM      4  C   UNL     1       1.288   8.556  19.467  0.00  0.00    +0.000 A 
ATOM      5  N   UNL     1       2.008   7.400  19.696  0.00  0.00    +0.000 N 
ENDROOT
BRANCH   1   7
ATOM      6  C   UNL     1       3.713   5.216  17.498  0.00  0.00    +0.000 C 
ATOM      7  C   UNL     1       3.713   6.032  18.565  0.00  0.00    +0.000 C 
BRANCH   6   8
ATOM      8  C   UNL     1       4.594   4.013  17.459  0.00  0.00    +0.000 C 
ATOM      9  O   UNL     1       4.735   3.291  18.445  0.00  0.00    +0.000 OA
BRANCH   8  10
ATOM     10  C   UNL     1       5.299   3.713  16.163  0.00  0.00    +0.000 C 
BRANCH  10  11
ATOM     11  C   UNL     1       6.075   4.889  15.652  0.00  0.00    +0.000 C 
ATOM     12  O   UNL     1       5.724   5.555  14.684  0.00  0.00    +0.000 OA
BRANCH  11  13
ATOM     13  C   UNL     1       7.386   5.195  16.384  0.00  0.00    +0.000 C 
ATOM     14  O   UNL     1       8.030   4.331  16.953  0.00  0.00    +0.000 OA
BRANCH  13  15
ATOM     15  O   UNL     1       7.641   6.517  16.347  0.00  0.00    +0.000 OA
BRANCH  15  17
ATOM     16  C   UNL     1       8.168   7.551  18.431  0.00  0.00    +0.000 C 
ATOM     17  C   UNL     1       7.074   7.292  17.411  0.00  0.00    +0.000 C 
ENDBRANCH  15  17
ENDBRANCH  13  15
ENDBRANCH  11  13
ENDBRANCH  10  11
ENDBRANCH   8  10
ENDBRANCH   6   8
ENDBRANCH   1   7
BRANCH   5  18
ATOM     18  C   UNL     1       1.872   6.646  20.944  0.00  0.00    +0.000 C 
BRANCH  18  19
ATOM     19  C   UNL     1       1.791   5.159  20.695  0.00  0.00    +0.000 A 
ATOM     20  C   UNL     1       2.570   4.264  21.442  0.00  0.00    +0.000 A 
ATOM     21  C   UNL     1       2.540   2.900  21.159  0.00  0.00    +0.000 A 
ATOM     22  F   UNL     1       3.307   2.066  21.874  0.00  0.00    +0.000 F 
ATOM     23  C   UNL     1       1.739   2.392  20.148  0.00  0.00    +0.000 A 
ATOM     24  C   UNL     1       0.946   3.270  19.426  0.00  0.00    +0.000 A 
ATOM     25  F   UNL     1       0.157   2.795  18.453  0.00  0.00    +0.000 F 
ATOM     26  C   UNL     1       0.962   4.640  19.687  0.00  0.00    +0.000 A 
ENDBRANCH  18  19
ENDBRANCH   5  18
TORSDOF 9
ENDMDL
MODEL 5
REMARK VINA RESULT:      -7.2      0.741      1.189
REMARK  Name = 
REMARK  10 active torsions:
REMARK  status: ('A' for Active; 'I' for Inactive)
REMARK    1  A    between atoms: C_1  and  C_2
REMARK    2  A    between atoms: C_2  and  O_3
REMARK    3  A    between atoms: O_3  and  C_4
REMARK    4  A    between atoms: C_4  and  C_6
REMARK    5  A    between atoms: C_6  and  C_8
REMARK    6  A    between atoms: C_8  and  C_9
REMARK    7  A    between atoms: C_9  and  C_11
REMARK    8  A    between atoms: C_12  and  C_13
REMARK    9  A    between atoms: N_17  and  C_18
REMARK   10  A    between atoms: C_18  and  C_19
REMARK                            x       y       z     vdW  Elec       q    Type
REMARK                         _______ _______ _______ _____ _____    ______ ____
ROOT
ATOM      1  C   UNL     1       3.030   3.471  17.653  0.00  0.00    +0.000 A 
ATOM      2  C   UNL     1       2.085   2.454  17.615  0.00  0.00    +0.000 A 
ATOM      3  C   UNL     1       1.440   2.379  18.869  0.00  0.00    +0.000 A 
ATOM      4  C   UNL     1       1.993   3.357  19.657  0.00  0.00    +0.000 A 
ATOM      5  N   UNL     1       2.952   4.027  18.925  0.00  0.00    +0.000 N 
ENDROOT
BRANCH   1   7
ATOM      6  C   UNL     1       5.262   3.671  16.770  0.00  0.00    +0.000 C 
ATOM      7  C   UNL     1       3.949   3.944  16.676  0.00  0.00    +0.000 C 
BRANCH   6   8
ATOM      8  C   UNL     1       6.223   4.194  15.757  0.00  0.00    +0.000 C 
ATOM      9  O   UNL     1       6.102   3.925  14.562  0.00  0.00    +0.000 OA
BRANCH   8  10
ATOM     10  C   UNL     1       7.344   5.068  16.251  0.00  0.00    +0.000 C 
BRANCH  10  11
ATOM     11  C   UNL     1       6.855   6.169  17.143  0.00  0.00    +0.000 C 
ATOM     12  O   UNL     1       6.018   6.993  16.793  0.00  0.00    +0.000 OA
BRANCH  11  13
ATOM     13  C   UNL     1       7.507   6.247  18.528  0.00  0.00    +0.000 C 
ATOM     14  O   UNL     1       7.182   5.510  19.442  0.00  0.00    +0.000 OA
BRANCH  13  15
ATOM     15  O   UNL     1       8.395   7.259  18.566  0.00  0.00    +0.000 OA
BRANCH  15  17
ATOM     16  C   UNL     1       8.785   9.611  18.485  0.00  0.00    +0.000 C 
ATOM     17  C   UNL     1       8.006   8.457  17.882  0.00  0.00    +0.000 C 
ENDBRANCH  15  17
ENDBRANCH  13  15
ENDBRANCH  11  13
ENDBRANCH  10  11
ENDBRANCH   8  10
ENDBRANCH   6   8
ENDBRANCH   1   7
BRANCH   5  18
ATOM     18  C   UNL     1       3.674   5.176  19.474  0.00  0.00    +0.000 C 
BRANCH  18  19
ATOM     19  C   UNL     1       2.845   6.437  19.425  0.00  0.00    +0.000 A 
ATOM     20  C   UNL     1       2.811   7.228  18.268  0.00  0.00    +0.000 A 
ATOM     21  C   UNL     1       2.099   8.426  18.255  0.00  0.00    +0.000 A 
ATOM     22  F   UNL     1       2.097   9.175  17.145  0.00  0.00    +0.000 F 
ATOM     23  C   UNL     1       1.399   8.859  19.371  0.00  0.00    +0.000 A 
ATOM     24  C   UNL     1       1.406   8.066  20.508  0.00  0.00    +0.000 A 
ATOM     25  F   UNL     1       0.726   8.463  21.592  0.00  0.00    +0.000 F 
ATOM     26  C   UNL     1       2.116   6.865  20.546  0.00  0.00    +0.000 A 
ENDBRANCH  18  19
ENDBRANCH   5  18
TORSDOF 9
ENDMDL
MODEL 6
REMARK VINA RESULT:      -7.1      1.866      3.953
REMARK  Name = 
REMARK  10 active torsions:
REMARK  status: ('A' for Active; 'I' for Inactive)
REMARK    1  A    between atoms: C_1  and  C_2
REMARK    2  A    between atoms: C_2  and  O_3
REMARK    3  A    between atoms: O_3  and  C_4
REMARK    4  A    between atoms: C_4  and  C_6
REMARK    5  A    between atoms: C_6  and  C_8
REMARK    6  A    between atoms: C_8  and  C_9
REMARK    7  A    between atoms: C_9  and  C_11
REMARK    8  A    between atoms: C_12  and  C_13
REMARK    9  A    between atoms: N_17  and  C_18
REMARK   10  A    between atoms: C_18  and  C_19
REMARK                            x       y       z     vdW  Elec       q    Type
REMARK                         _______ _______ _______ _____ _____    ______ ____
ROOT
ATOM      1  C   UNL     1       2.891   4.362  18.365  0.00  0.00    +0.000 A 
ATOM      2  C   UNL     1       2.074   3.384  17.814  0.00  0.00    +0.000 A 
ATOM      3  C   UNL     1       0.974   3.167  18.674  0.00  0.00    +0.000 A 
ATOM      4  C   UNL     1       1.128   4.022  19.737  0.00  0.00    +0.000 A 
ATOM      5  N   UNL     1       2.284   4.754  19.553  0.00  0.00    +0.000 N 
ENDROOT
BRANCH   1   7
ATOM      6  C   UNL     1       5.273   4.258  18.026  0.00  0.00    +0.000 C 
ATOM      7  C   UNL     1       4.116   4.932  17.918  0.00  0.00    +0.000 C 
BRANCH   6   8
ATOM      8  C   UNL     1       6.557   4.872  17.580  0.00  0.00    +0.000 C 
ATOM      9  O   UNL     1       7.131   5.720  18.262  0.00  0.00    +0.000 OA
BRANCH   8  10
ATOM     10  C   UNL     1       7.126   4.410  16.265  0.00  0.00    +0.000 C 
BRANCH  10  11
ATOM     11  C   UNL     1       6.607   5.209  15.109  0.00  0.00    +0.000 C 
ATOM     12  O   UNL     1       5.828   6.147  15.238  0.00  0.00    +0.000 OA
BRANCH  11  13
ATOM     13  C   UNL     1       7.068   4.753  13.721  0.00  0.00    +0.000 C 
ATOM     14  O   UNL     1       7.792   5.435  13.019  0.00  0.00    +0.000 OA
BRANCH  13  15
ATOM     15  O   UNL     1       6.504   3.569  13.410  0.00  0.00    +0.000 OA
BRANCH  15  17
ATOM     16  C   UNL     1       5.750   2.158  11.640  0.00  0.00    +0.000 C 
ATOM     17  C   UNL     1       5.691   3.556  12.230  0.00  0.00    +0.000 C 
ENDBRANCH  15  17
ENDBRANCH  13  15
ENDBRANCH  11  13
ENDBRANCH  10  11
ENDBRANCH   8  10
ENDBRANCH   6   8
ENDBRANCH   1   7
BRANCH   5  18
ATOM     18  C   UNL     1       2.685   5.804  20.491  0.00  0.00    +0.000 C 
BRANCH  18  19
ATOM     19  C   UNL     1       2.079   7.140  20.132  0.00  0.00    +0.000 A 
ATOM     20  C   UNL     1       1.262   7.824  21.042  0.00  0.00    +0.000 A 
ATOM     21  C   UNL     1       0.651   9.023  20.676  0.00  0.00    +0.000 A 
ATOM     22  F   UNL     1      -0.142   9.648  21.556  0.00  0.00    +0.000 F 
ATOM     23  C   UNL     1       0.843   9.573  19.419  0.00  0.00    +0.000 A 
ATOM     24  C   UNL     1       1.674   8.915  18.526  0.00  0.00    +0.000 A 
ATOM     25  F   UNL     1       1.880   9.439  17.310  0.00  0.00    +0.000 F 
ATOM     26  C   UNL     1       2.292   7.712  18.867  0.00  0.00    +0.000 A 
ENDBRANCH  18  19
ENDBRANCH   5  18
TORSDOF 9
ENDMDL
MODEL 7
REMARK VINA RESULT:      -7.1      4.040      7.106
REMARK  Name = 
REMARK  10 active torsions:
REMARK  status: ('A' for Active; 'I' for Inactive)
REMARK    1  A    between atoms: C_1  and  C_2
REMARK    2  A    between atoms: C_2  and  O_3
REMARK    3  A    between atoms: O_3  and  C_4
REMARK    4  A    between atoms: C_4  and  C_6
REMARK    5  A    between atoms: C_6  and  C_8
REMARK    6  A    between atoms: C_8  and  C_9
REMARK    7  A    between atoms: C_9  and  C_11
REMARK    8  A    between atoms: C_12  and  C_13
REMARK    9  A    between atoms: N_17  and  C_18
REMARK   10  A    between atoms: C_18  and  C_19
REMARK                            x       y       z     vdW  Elec       q    Type
REMARK                         _______ _______ _______ _____ _____    ______ ____
ROOT
ATOM      1  C   UNL     1       6.616   5.286  18.116  0.00  0.00    +0.000 A 
ATOM      2  C   UNL     1       7.524   6.087  18.796  0.00  0.00    +0.000 A 
ATOM      3  C   UNL     1       7.743   7.267  18.051  0.00  0.00    +0.000 A 
ATOM      4  C   UNL     1       6.958   7.176  16.927  0.00  0.00    +0.000 A 
ATOM      5  N   UNL     1       6.268   5.981  16.964  0.00  0.00    +0.000 N 
ENDROOT
BRANCH   1   7
ATOM      6  C   UNL     1       4.956   3.881  19.151  0.00  0.00    +0.000 C 
ATOM      7  C   UNL     1       6.076   4.005  18.418  0.00  0.00    +0.000 C 
BRANCH   6   8
ATOM      8  C   UNL     1       4.410   2.535  19.487  0.00  0.00    +0.000 C 
ATOM      9  O   UNL     1       4.720   1.960  20.530  0.00  0.00    +0.000 OA
BRANCH   8  10
ATOM     10  C   UNL     1       3.461   1.907  18.502  0.00  0.00    +0.000 C 
BRANCH  10  11
ATOM     11  C   UNL     1       2.397   2.861  18.050  0.00  0.00    +0.000 C 
ATOM     12  O   UNL     1       2.278   3.230  16.887  0.00  0.00    +0.000 OA
BRANCH  11  13
ATOM     13  C   UNL     1       1.478   3.405  19.148  0.00  0.00    +0.000 C 
ATOM     14  O   UNL     1       0.698   2.694  19.755  0.00  0.00    +0.000 OA
BRANCH  13  15
ATOM     15  O   UNL     1       1.629   4.739  19.260  0.00  0.00    +0.000 OA
BRANCH  15  17
ATOM     16  C   UNL     1       1.793   6.756  20.524  0.00  0.00    +0.000 C 
ATOM     17  C   UNL     1       1.781   5.240  20.595  0.00  0.00    +0.000 C 
ENDBRANCH  15  17
ENDBRANCH  13  15
ENDBRANCH  11  13
ENDBRANCH  10  11
ENDBRANCH   8  10
ENDBRANCH   6   8
ENDBRANCH   1   7
BRANCH   5  18
ATOM     18  C   UNL     1       5.293   5.625  15.931  0.00  0.00    +0.000 C 
BRANCH  18  19
ATOM     19  C   UNL     1       5.959   5.062  14.699  0.00  0.00    +0.000 A 
ATOM     20  C   UNL     1       7.183   5.576  14.247  0.00  0.00    +0.000 A 
ATOM     21  C   UNL     1       7.755   5.097  13.070  0.00  0.00    +0.000 A 
ATOM     22  F   UNL     1       8.915   5.617  12.647  0.00  0.00    +0.000 F 
ATOM     23  C   UNL     1       7.144   4.098  12.327  0.00  0.00    +0.000 A 
ATOM     24  C   UNL     1       5.949   3.567  12.786  0.00  0.00    +0.000 A 
ATOM     25  F   UNL     1       5.351   2.593  12.087  0.00  0.00    +0.000 F 
ATOM     26  C   UNL     1       5.354   4.033  13.958  0.00  0.00    +0.000 A 
ENDBRANCH  18  19
ENDBRANCH   5  18
TORSDOF 9
ENDMDL
MODEL 8
REMARK VINA RESULT:      -7.0      1.726      2.948
REMARK  Name = 
REMARK  10 active torsions:
REMARK  status: ('A' for Active; 'I' for Inactive)
REMARK    1  A    between atoms: C_1  and  C_2
REMARK    2  A    between atoms: C_2  and  O_3
REMARK    3  A    between atoms: O_3  and  C_4
REMARK    4  A    between atoms: C_4  and  C_6
REMARK    5  A    between atoms: C_6  and  C_8
REMARK    6  A    between atoms: C_8  and  C_9
REMARK    7  A    between atoms: C_9  and  C_11
REMARK    8  A    between atoms: C_12  and  C_13
REMARK    9  A    between atoms: N_17  and  C_18
REMARK   10  A    between atoms: C_18  and  C_19
REMARK                            x       y       z     vdW  Elec       q    Type
REMARK                         _______ _______ _______ _____ _____    ______ ____
ROOT
ATOM      1  C   UNL     1       3.489   3.593  19.091  0.00  0.00    +0.000 A 
ATOM      2  C   UNL     1       2.700   2.560  19.577  0.00  0.00    +0.000 A 
ATOM      3  C   UNL     1       1.341   2.879  19.360  0.00  0.00    +0.000 A 
ATOM      4  C   UNL     1       1.317   4.102  18.737  0.00  0.00    +0.000 A 
ATOM      5  N   UNL     1       2.616   4.538  18.565  0.00  0.00    +0.000 N 
ENDROOT
BRANCH   1   7
ATOM      6  C   UNL     1       5.441   4.998  19.232  0.00  0.00    +0.000 C 
ATOM      7  C   UNL     1       4.900   3.777  19.076  0.00  0.00    +0.000 C 
BRANCH   6   8
ATOM      8  C   UNL     1       6.920   5.187  19.187  0.00  0.00    +0.000 C 
ATOM      9  O   UNL     1       7.550   5.541  20.183  0.00  0.00    +0.000 OA
BRANCH   8  10
ATOM     10  C   UNL     1       7.613   4.921  17.877  0.00  0.00    +0.000 C 
BRANCH  10  11
ATOM     11  C   UNL     1       6.998   5.685  16.744  0.00  0.00    +0.000 C 
ATOM     12  O   UNL     1       6.973   6.910  16.697  0.00  0.00    +0.000 OA
BRANCH  11  13
ATOM     13  C   UNL     1       6.342   4.840  15.647  0.00  0.00    +0.000 C 
ATOM     14  O   UNL     1       5.156   4.564  15.661  0.00  0.00    +0.000 OA
BRANCH  13  15
ATOM     15  O   UNL     1       7.269   4.428  14.761  0.00  0.00    +0.000 OA
BRANCH  15  17
ATOM     16  C   UNL     1       8.137   5.531  12.833  0.00  0.00    +0.000 C 
ATOM     17  C   UNL     1       6.987   4.709  13.385  0.00  0.00    +0.000 C 
ENDBRANCH  15  17
ENDBRANCH  13  15
ENDBRANCH  11  13
ENDBRANCH  10  11
ENDBRANCH   8  10
ENDBRANCH   6   8
ENDBRANCH   1   7
BRANCH   5  18
ATOM     18  C   UNL     1       2.921   5.786  17.864  0.00  0.00    +0.000 C 
BRANCH  18  19
ATOM     19  C   UNL     1       2.314   6.983  18.557  0.00  0.00    +0.000 A 
ATOM     20  C   UNL     1       1.988   8.140  17.836  0.00  0.00    +0.000 A 
ATOM     21  C   UNL     1       1.493   9.264  18.496  0.00  0.00    +0.000 A 
ATOM     22  F   UNL     1       1.207  10.364  17.788  0.00  0.00    +0.000 F 
ATOM     23  C   UNL     1       1.299   9.265  19.869  0.00  0.00    +0.000 A 
ATOM     24  C   UNL     1       1.593   8.113  20.581  0.00  0.00    +0.000 A 
ATOM     25  F   UNL     1       1.401   8.093  21.907  0.00  0.00    +0.000 F 
ATOM     26  C   UNL     1       2.094   6.978  19.945  0.00  0.00    +0.000 A 
ENDBRANCH  18  19
ENDBRANCH   5  18
TORSDOF 9
ENDMDL
MODEL 9
REMARK VINA RESULT:      -7.0      2.769      5.451
REMARK  Name = 
REMARK  10 active torsions:
REMARK  status: ('A' for Active; 'I' for Inactive)
REMARK    1  A    between atoms: C_1  and  C_2
REMARK    2  A    between atoms: C_2  and  O_3
REMARK    3  A    between atoms: O_3  and  C_4
REMARK    4  A    between atoms: C_4  and  C_6
REMARK    5  A    between atoms: C_6  and  C_8
REMARK    6  A    between atoms: C_8  and  C_9
REMARK    7  A    between atoms: C_9  and  C_11
REMARK    8  A    between atoms: C_12  and  C_13
REMARK    9  A    between atoms: N_17  and  C_18
REMARK   10  A    between atoms: C_18  and  C_19
REMARK                            x       y       z     vdW  Elec       q    Type
REMARK                         _______ _______ _______ _____ _____    ______ ____
ROOT
ATOM      1  C   UNL     1       2.700   7.475  18.651  0.00  0.00    +0.000 A 
ATOM      2  C   UNL     1       1.871   8.586  18.731  0.00  0.00    +0.000 A 
ATOM      3  C   UNL     1       1.155   8.538  19.947  0.00  0.00    +0.000 A 
ATOM      4  C   UNL     1       1.562   7.401  20.601  0.00  0.00    +0.000 A 
ATOM      5  N   UNL     1       2.503   6.755  19.824  0.00  0.00    +0.000 N 
ENDROOT
BRANCH   1   7
ATOM      6  C   UNL     1       4.928   7.235  17.768  0.00  0.00    +0.000 C 
ATOM      7  C   UNL     1       3.604   7.041  17.641  0.00  0.00    +0.000 C 
BRANCH   6   8
ATOM      8  C   UNL     1       5.867   6.802  16.694  0.00  0.00    +0.000 C 
ATOM      9  O   UNL     1       7.057   7.117  16.719  0.00  0.00    +0.000 OA
BRANCH   8  10
ATOM     10  C   UNL     1       5.305   5.960  15.580  0.00  0.00    +0.000 C 
BRANCH  10  11
ATOM     11  C   UNL     1       6.070   4.685  15.389  0.00  0.00    +0.000 C 
ATOM     12  O   UNL     1       6.198   3.842  16.271  0.00  0.00    +0.000 OA
BRANCH  11  13
ATOM     13  C   UNL     1       6.743   4.507  14.025  0.00  0.00    +0.000 C 
ATOM     14  O   UNL     1       7.519   5.328  13.570  0.00  0.00    +0.000 OA
BRANCH  13  15
ATOM     15  O   UNL     1       6.294   3.385  13.429  0.00  0.00    +0.000 OA
BRANCH  15  17
ATOM     16  C   UNL     1       5.599   2.185  11.487  0.00  0.00    +0.000 C 
ATOM     17  C   UNL     1       6.452   3.329  12.005  0.00  0.00    +0.000 C 
ENDBRANCH  15  17
ENDBRANCH  13  15
ENDBRANCH  11  13
ENDBRANCH  10  11
ENDBRANCH   8  10
ENDBRANCH   6   8
ENDBRANCH   1   7
BRANCH   5  18
ATOM     18  C   UNL     1       3.178   5.541  20.286  0.00  0.00    +0.000 C 
BRANCH  18  19
ATOM     19  C   UNL     1       2.782   4.333  19.471  0.00  0.00    +0.000 A 
ATOM     20  C   UNL     1       1.448   3.907  19.422  0.00  0.00    +0.000 A 
ATOM     21  C   UNL     1       1.103   2.751  18.724  0.00  0.00    +0.000 A 
ATOM     22  F   UNL     1      -0.176   2.353  18.708  0.00  0.00    +0.000 F 
ATOM     23  C   UNL     1       2.059   2.004  18.053  0.00  0.00    +0.000 A 
ATOM     24  C   UNL     1       3.375   2.438  18.074  0.00  0.00    +0.000 A 
ATOM     25  F   UNL     1       4.310   1.735  17.421  0.00  0.00    +0.000 F 
ATOM     26  C   UNL     1       3.745   3.589  18.769  0.00  0.00    +0.000 A 
ENDBRANCH  18  19
ENDBRANCH   5  18
TORSDOF 9
ENDMDL
