MODEL 1
REMARK VINA RESULT:      -6.2      0.000      0.000
REMARK  Name = 
REMARK  10 active torsions:
REMARK  status: ('A' for Active; 'I' for Inactive)
REMARK    1  A    between atoms: C_1  and  C_2
REMARK    2  A    between atoms: N_5  and  C_6
REMARK    3  A    between atoms: C_6  and  C_7
REMARK    4  A    between atoms: C_7  and  N_8
REMARK    5  A    between atoms: N_8  and  C_9
REMARK    6  A    between atoms: C_9  and  C_10
REMARK    7  A    between atoms: C_10  and  O_11
REMARK    8  A    between atoms: C_10  and  C_12
REMARK    9  A    between atoms: C_12  and  O_13
REMARK   10  A    between atoms: O_13  and  C_14
REMARK                            x       y       z     vdW  Elec       q    Type
REMARK                         _______ _______ _______ _____ _____    ______ ____
ROOT
ATOM      1  C   UNL     1       1.709   2.804  20.536  0.00  0.00    +0.000 C 
ENDROOT
BRANCH   1   2
ATOM      2  O   UNL     1       1.916   2.687  21.948  0.00  0.00    +0.000 OA
ATOM      3  H   UNL     1       2.407   1.852  22.070  0.00  0.00    +0.000 HD
ENDBRANCH   1   2
BRANCH   1   4
ATOM      4  C   UNL     1       3.012   2.403  19.809  0.00  0.00    +0.000 C 
BRANCH   4   5
ATOM      5  N   UNL     1       2.908   2.630  18.351  0.00  0.00    +0.000 NA
ATOM      6  H   UNL     1       2.576   1.764  17.916  0.00  0.00    +0.000 HD
BRANCH   5   7
ATOM      7  C   UNL     1       4.218   2.923  17.741  0.00  0.00    +0.000 C 
BRANCH   7   8
ATOM      8  C   UNL     1       4.351   4.275  17.021  0.00  0.00    +0.000 C 
BRANCH   8  13
ATOM      9  C   UNL     1       7.796   7.859  17.666  0.00  0.00    +0.000 C 
ATOM     10  C   UNL     1       7.045   6.585  17.696  0.00  0.00    +0.000 A 
ATOM     11  C   UNL     1       7.402   5.374  18.333  0.00  0.00    +0.000 A 
ATOM     12  N   UNL     1       6.501   4.407  18.138  0.00  0.00    +0.000 NA
ATOM     13  N   UNL     1       5.538   5.012  17.414  0.00  0.00    +0.000 N 
ATOM     14  C   UNL     1       5.829   6.308  17.108  0.00  0.00    +0.000 A 
ENDBRANCH   8  13
ENDBRANCH   7   8
ENDBRANCH   5   7
ENDBRANCH   4   5
ENDBRANCH   1   4
BRANCH   1  15
ATOM     15  C   UNL     1       1.290   4.234  20.172  0.00  0.00    +0.000 C 
BRANCH  15  16
ATOM     16  O   UNL     1       2.418   5.113  20.227  0.00  0.00    +0.000 OA
BRANCH  16  17
ATOM     17  C   UNL     1       2.195   6.391  19.786  0.00  0.00    +0.000 A 
ATOM     18  C   UNL     1       2.498   6.882  18.513  0.00  0.00    +0.000 A 
ATOM     19  C   UNL     1       2.194   8.203  18.177  0.00  0.00    +0.000 A 
ATOM     20  C   UNL     1       1.586   9.035  19.115  0.00  0.00    +0.000 A 
ATOM     21 CL   UNL     1       1.194  10.655  18.690  0.00  0.00    +0.000 Cl
ATOM     22  C   UNL     1       1.289   8.560  20.389  0.00  0.00    +0.000 A 
ATOM     23  C   UNL     1       1.597   7.238  20.721  0.00  0.00    +0.000 A 
ENDBRANCH  16  17
ENDBRANCH  15  16
ENDBRANCH   1  15
TORSDOF 9
ENDMDL
MODEL 2
REMARK VINA RESULT:      -6.2      0.746      1.294
REMARK  Name = 
REMARK  10 active torsions:
REMARK  status: ('A' for Active; 'I' for Inactive)
REMARK    1  A    between atoms: C_1  and  C_2
REMARK    2  A    between atoms: N_5  and  C_6
REMARK    3  A    between atoms: C_6  and  C_7
REMARK    4  A    between atoms: C_7  and  N_8
REMARK    5  A    between atoms: N_8  and  C_9
REMARK    6  A    between atoms: C_9  and  C_10
REMARK    7  A    between atoms: C_10  and  O_11
REMARK    8  A    between atoms: C_10  and  C_12
REMARK    9  A    between atoms: C_12  and  O_13
REMARK   10  A    between atoms: O_13  and  C_14
REMARK                            x       y       z     vdW  Elec       q    Type
REMARK                         _______ _______ _______ _____ _____    ______ ____
ROOT
ATOM      1  C   UNL     1       2.111   3.707  20.835  0.00  0.00    +0.000 C 
ENDROOT
BRANCH   1   2
ATOM      2  O   UNL     1       2.079   3.211  22.178  0.00  0.00    +0.000 OA
ATOM      3  H   UNL     1       1.254   3.563  22.565  0.00  0.00    +0.000 HD
ENDBRANCH   1   2
BRANCH   1   4
ATOM      4  C   UNL     1       2.869   2.695  19.949  0.00  0.00    +0.000 C 
BRANCH   4   5
ATOM      5  N   UNL     1       2.673   2.982  18.511  0.00  0.00    +0.000 NA
ATOM      6  H   UNL     1       1.920   2.381  18.164  0.00  0.00    +0.000 HD
BRANCH   5   7
ATOM      7  C   UNL     1       3.867   2.652  17.712  0.00  0.00    +0.000 C 
BRANCH   7   8
ATOM      8  C   UNL     1       4.405   3.760  16.792  0.00  0.00    +0.000 C 
BRANCH   8  13
ATOM      9  C   UNL     1       7.672   7.421  17.818  0.00  0.00    +0.000 C 
ATOM     10  C   UNL     1       6.807   6.223  17.893  0.00  0.00    +0.000 A 
ATOM     11  C   UNL     1       6.647   5.326  18.973  0.00  0.00    +0.000 A 
ATOM     12  N   UNL     1       5.800   4.331  18.694  0.00  0.00    +0.000 NA
ATOM     13  N   UNL     1       5.377   4.617  17.446  0.00  0.00    +0.000 N 
ATOM     14  C   UNL     1       5.967   5.727  16.918  0.00  0.00    +0.000 A 
ENDBRANCH   8  13
ENDBRANCH   7   8
ENDBRANCH   5   7
ENDBRANCH   4   5
ENDBRANCH   1   4
BRANCH   1  15
ATOM     15  C   UNL     1       2.777   5.088  20.790  0.00  0.00    +0.000 C 
BRANCH  15  16
ATOM     16  O   UNL     1       2.713   5.630  19.468  0.00  0.00    +0.000 OA
BRANCH  16  17
ATOM     17  C   UNL     1       2.239   6.912  19.375  0.00  0.00    +0.000 A 
ATOM     18  C   UNL     1       1.640   7.640  20.406  0.00  0.00    +0.000 A 
ATOM     19  C   UNL     1       1.223   8.956  20.189  0.00  0.00    +0.000 A 
ATOM     20  C   UNL     1       1.403   9.544  18.939  0.00  0.00    +0.000 A 
ATOM     21 CL   UNL     1       0.906  11.169  18.682  0.00  0.00    +0.000 Cl
ATOM     22  C   UNL     1       1.988   8.823  17.901  0.00  0.00    +0.000 A 
ATOM     23  C   UNL     1       2.403   7.507  18.122  0.00  0.00    +0.000 A 
ENDBRANCH  16  17
ENDBRANCH  15  16
ENDBRANCH   1  15
TORSDOF 9
ENDMDL
MODEL 3
REMARK VINA RESULT:      -6.2      1.663      2.604
REMARK  Name = 
REMARK  10 active torsions:
REMARK  status: ('A' for Active; 'I' for Inactive)
REMARK    1  A    between atoms: C_1  and  C_2
REMARK    2  A    between atoms: N_5  and  C_6
REMARK    3  A    between atoms: C_6  and  C_7
REMARK    4  A    between atoms: C_7  and  N_8
REMARK    5  A    between atoms: N_8  and  C_9
REMARK    6  A    between atoms: C_9  and  C_10
REMARK    7  A    between atoms: C_10  and  O_11
REMARK    8  A    between atoms: C_10  and  C_12
REMARK    9  A    between atoms: C_12  and  O_13
REMARK   10  A    between atoms: O_13  and  C_14
REMARK                            x       y       z     vdW  Elec       q    Type
REMARK                         _______ _______ _______ _____ _____    ______ ____
ROOT
ATOM      1  C   UNL     1       3.118   3.890  19.377  0.00  0.00    +0.000 C 
ENDROOT
BRANCH   1   2
ATOM      2  O   UNL     1       2.960   3.699  20.787  0.00  0.00    +0.000 OA
ATOM      3  H   UNL     1       1.995   3.696  20.942  0.00  0.00    +0.000 HD
ENDBRANCH   1   2
BRANCH   1   4
ATOM      4  C   UNL     1       4.626   3.955  19.050  0.00  0.00    +0.000 C 
BRANCH   4   5
ATOM      5  N   UNL     1       5.148   5.333  19.176  0.00  0.00    +0.000 NA
ATOM      6  H   UNL     1       4.972   5.823  18.293  0.00  0.00    +0.000 HD
BRANCH   5   7
ATOM      7  C   UNL     1       6.607   5.357  19.379  0.00  0.00    +0.000 C 
BRANCH   7   8
ATOM      8  C   UNL     1       7.458   5.812  18.183  0.00  0.00    +0.000 C 
BRANCH   8  13
ATOM      9  C   UNL     1       5.935   3.871  13.820  0.00  0.00    +0.000 C 
ATOM     10  C   UNL     1       6.134   4.746  14.996  0.00  0.00    +0.000 A 
ATOM     11  C   UNL     1       5.531   5.995  15.270  0.00  0.00    +0.000 A 
ATOM     12  N   UNL     1       5.956   6.529  16.418  0.00  0.00    +0.000 NA
ATOM     13  N   UNL     1       6.801   5.600  16.907  0.00  0.00    +0.000 N 
ATOM     14  C   UNL     1       6.955   4.525  16.081  0.00  0.00    +0.000 A 
ENDBRANCH   8  13
ENDBRANCH   7   8
ENDBRANCH   5   7
ENDBRANCH   4   5
ENDBRANCH   1   4
BRANCH   1  15
ATOM     15  C   UNL     1       2.399   5.167  18.925  0.00  0.00    +0.000 C 
BRANCH  15  16
ATOM     16  O   UNL     1       2.630   6.226  19.859  0.00  0.00    +0.000 OA
BRANCH  16  17
ATOM     17  C   UNL     1       2.135   7.452  19.498  0.00  0.00    +0.000 A 
ATOM     18  C   UNL     1       2.237   8.037  18.233  0.00  0.00    +0.000 A 
ATOM     19  C   UNL     1       1.662   9.286  17.986  0.00  0.00    +0.000 A 
ATOM     20  C   UNL     1       0.984   9.952  19.005  0.00  0.00    +0.000 A 
ATOM     21 CL   UNL     1       0.261  11.479  18.691  0.00  0.00    +0.000 Cl
ATOM     22  C   UNL     1       0.886   9.383  20.272  0.00  0.00    +0.000 A 
ATOM     23  C   UNL     1       1.464   8.134  20.515  0.00  0.00    +0.000 A 
ENDBRANCH  16  17
ENDBRANCH  15  16
ENDBRANCH   1  15
TORSDOF 9
ENDMDL
MODEL 4
REMARK VINA RESULT:      -6.2      2.552      3.475
REMARK  Name = 
REMARK  10 active torsions:
REMARK  status: ('A' for Active; 'I' for Inactive)
REMARK    1  A    between atoms: C_1  and  C_2
REMARK    2  A    between atoms: N_5  and  C_6
REMARK    3  A    between atoms: C_6  and  C_7
REMARK    4  A    between atoms: C_7  and  N_8
REMARK    5  A    between atoms: N_8  and  C_9
REMARK    6  A    between atoms: C_9  and  C_10
REMARK    7  A    between atoms: C_10  and  O_11
REMARK    8  A    between atoms: C_10  and  C_12
REMARK    9  A    between atoms: C_12  and  O_13
REMARK   10  A    between atoms: O_13  and  C_14
REMARK                            x       y       z     vdW  Elec       q    Type
REMARK                         _______ _______ _______ _____ _____    ______ ____
ROOT
ATOM      1  C   UNL     1       4.488   2.977  18.806  0.00  0.00    +0.000 C 
ENDROOT
BRANCH   1   2
ATOM      2  O   UNL     1       4.882   2.531  20.108  0.00  0.00    +0.000 OA
ATOM      3  H   UNL     1       4.306   3.014  20.733  0.00  0.00    +0.000 HD
ENDBRANCH   1   2
BRANCH   1   4
ATOM      4  C   UNL     1       5.284   4.254  18.456  0.00  0.00    +0.000 C 
BRANCH   4   5
ATOM      5  N   UNL     1       6.734   3.977  18.356  0.00  0.00    +0.000 NA
ATOM      6  H   UNL     1       7.148   4.099  19.285  0.00  0.00    +0.000 HD
BRANCH   5   7
ATOM      7  C   UNL     1       7.420   4.932  17.468  0.00  0.00    +0.000 C 
BRANCH   7   8
ATOM      8  C   UNL     1       6.544   5.663  16.438  0.00  0.00    +0.000 C 
BRANCH   8  13
ATOM      9  C   UNL     1       5.798   3.128  12.179  0.00  0.00    +0.000 C 
ATOM     10  C   UNL     1       6.344   4.012  13.232  0.00  0.00    +0.000 A 
ATOM     11  C   UNL     1       7.496   4.829  13.178  0.00  0.00    +0.000 A 
ATOM     12  N   UNL     1       7.716   5.484  14.321  0.00  0.00    +0.000 NA
ATOM     13  N   UNL     1       6.674   5.123  15.098  0.00  0.00    +0.000 N 
ATOM     14  C   UNL     1       5.839   4.229  14.496  0.00  0.00    +0.000 A 
ENDBRANCH   8  13
ENDBRANCH   7   8
ENDBRANCH   5   7
ENDBRANCH   4   5
ENDBRANCH   1   4
BRANCH   1  15
ATOM     15  C   UNL     1       2.978   3.239  18.763  0.00  0.00    +0.000 C 
BRANCH  15  16
ATOM     16  O   UNL     1       2.695   4.406  17.985  0.00  0.00    +0.000 OA
BRANCH  16  17
ATOM     17  C   UNL     1       2.407   5.540  18.699  0.00  0.00    +0.000 A 
ATOM     18  C   UNL     1       2.499   6.851  18.225  0.00  0.00    +0.000 A 
ATOM     19  C   UNL     1       2.147   7.924  19.049  0.00  0.00    +0.000 A 
ATOM     20  C   UNL     1       1.705   7.684  20.349  0.00  0.00    +0.000 A 
ATOM     21 CL   UNL     1       1.254   9.006  21.352  0.00  0.00    +0.000 Cl
ATOM     22  C   UNL     1       1.621   6.382  20.834  0.00  0.00    +0.000 A 
ATOM     23  C   UNL     1       1.974   5.313  20.007  0.00  0.00    +0.000 A 
ENDBRANCH  16  17
ENDBRANCH  15  16
ENDBRANCH   1  15
TORSDOF 9
ENDMDL
MODEL 5
REMARK VINA RESULT:      -6.1      2.591      4.848
REMARK  Name = 
REMARK  10 active torsions:
REMARK  status: ('A' for Active; 'I' for Inactive)
REMARK    1  A    between atoms: C_1  and  C_2
REMARK    2  A    between atoms: N_5  and  C_6
REMARK    3  A    between atoms: C_6  and  C_7
REMARK    4  A    between atoms: C_7  and  N_8
REMARK    5  A    between atoms: N_8  and  C_9
REMARK    6  A    between atoms: C_9  and  C_10
REMARK    7  A    between atoms: C_10  and  O_11
REMARK    8  A    between atoms: C_10  and  C_12
REMARK    9  A    between atoms: C_12  and  O_13
REMARK   10  A    between atoms: O_13  and  C_14
REMARK                            x       y       z     vdW  Elec       q    Type
REMARK                         _______ _______ _______ _____ _____    ______ ____
ROOT
ATOM      1  C   UNL     1       2.234   2.638  17.901  0.00  0.00    +0.000 C 
ENDROOT
BRANCH   1   2
ATOM      2  O   UNL     1       1.776   3.752  17.128  0.00  0.00    +0.000 OA
ATOM      3  H   UNL     1       1.113   4.202  17.689  0.00  0.00    +0.000 HD
ENDBRANCH   1   2
BRANCH   1   4
ATOM      4  C   UNL     1       1.427   2.581  19.217  0.00  0.00    +0.000 C 
BRANCH   4   5
ATOM      5  N   UNL     1       1.059   3.934  19.685  0.00  0.00    +0.000 NA
ATOM      6  H   UNL     1       1.322   4.606  18.957  0.00  0.00    +0.000 HD
BRANCH   5   7
ATOM      7  C   UNL     1       1.801   4.324  20.897  0.00  0.00    +0.000 C 
BRANCH   7   8
ATOM      8  C   UNL     1       1.884   5.829  21.196  0.00  0.00    +0.000 C 
BRANCH   8  13
ATOM      9  C   UNL     1       1.989   9.548  17.836  0.00  0.00    +0.000 C 
ATOM     10  C   UNL     1       2.178   8.261  18.541  0.00  0.00    +0.000 A 
ATOM     11  C   UNL     1       2.888   7.120  18.104  0.00  0.00    +0.000 A 
ATOM     12  N   UNL     1       2.837   6.116  18.983  0.00  0.00    +0.000 NA
ATOM     13  N   UNL     1       2.132   6.629  20.011  0.00  0.00    +0.000 N 
ATOM     14  C   UNL     1       1.699   7.902  19.784  0.00  0.00    +0.000 A 
ENDBRANCH   8  13
ENDBRANCH   7   8
ENDBRANCH   5   7
ENDBRANCH   4   5
ENDBRANCH   1   4
BRANCH   1  15
ATOM     15  C   UNL     1       3.737   2.760  18.179  0.00  0.00    +0.000 C 
BRANCH  15  16
ATOM     16  O   UNL     1       4.439   3.109  16.983  0.00  0.00    +0.000 OA
BRANCH  16  17
ATOM     17  C   UNL     1       5.211   4.240  17.056  0.00  0.00    +0.000 A 
ATOM     18  C   UNL     1       5.279   5.249  16.091  0.00  0.00    +0.000 A 
ATOM     19  C   UNL     1       6.087   6.369  16.300  0.00  0.00    +0.000 A 
ATOM     20  C   UNL     1       6.830   6.479  17.474  0.00  0.00    +0.000 A 
ATOM     21 CL   UNL     1       7.808   7.869  17.736  0.00  0.00    +0.000 Cl
ATOM     22  C   UNL     1       6.778   5.474  18.436  0.00  0.00    +0.000 A 
ATOM     23  C   UNL     1       5.969   4.355  18.223  0.00  0.00    +0.000 A 
ENDBRANCH  16  17
ENDBRANCH  15  16
ENDBRANCH   1  15
TORSDOF 9
ENDMDL
MODEL 6
REMARK VINA RESULT:      -6.1      2.493      4.895
REMARK  Name = 
REMARK  10 active torsions:
REMARK  status: ('A' for Active; 'I' for Inactive)
REMARK    1  A    between atoms: C_1  and  C_2
REMARK    2  A    between atoms: N_5  and  C_6
REMARK    3  A    between atoms: C_6  and  C_7
REMARK    4  A    between atoms: C_7  and  N_8
REMARK    5  A    between atoms: N_8  and  C_9
REMARK    6  A    between atoms: C_9  and  C_10
REMARK    7  A    between atoms: C_10  and  O_11
REMARK    8  A    between atoms: C_10  and  C_12
REMARK    9  A    between atoms: C_12  and  O_13
REMARK   10  A    between atoms: O_13  and  C_14
REMARK                            x       y       z     vdW  Elec       q    Type
REMARK                         _______ _______ _______ _____ _____    ______ ____
ROOT
ATOM      1  C   UNL     1       2.579   2.731  17.336  0.00  0.00    +0.000 C 
ENDROOT
BRANCH   1   2
ATOM      2  O   UNL     1       1.906   3.994  17.395  0.00  0.00    +0.000 OA
ATOM      3  H   UNL     1       2.591   4.662  17.196  0.00  0.00    +0.000 HD
ENDBRANCH   1   2
BRANCH   1   4
ATOM      4  C   UNL     1       2.027   1.821  18.455  0.00  0.00    +0.000 C 
BRANCH   4   5
ATOM      5  N   UNL     1       1.276   2.599  19.464  0.00  0.00    +0.000 NA
ATOM      6  H   UNL     1       1.320   3.588  19.202  0.00  0.00    +0.000 HD
BRANCH   5   7
ATOM      7  C   UNL     1       1.882   2.498  20.804  0.00  0.00    +0.000 C 
BRANCH   7   8
ATOM      8  C   UNL     1       2.023   3.810  21.592  0.00  0.00    +0.000 C 
BRANCH   8  13
ATOM      9  C   UNL     1       1.955   8.217  19.204  0.00  0.00    +0.000 C 
ATOM     10  C   UNL     1       2.327   6.876  19.706  0.00  0.00    +0.000 A 
ATOM     11  C   UNL     1       3.482   6.119  19.407  0.00  0.00    +0.000 A 
ATOM     12  N   UNL     1       3.490   4.931  20.017  0.00  0.00    +0.000 NA
ATOM     13  N   UNL     1       2.359   4.944  20.750  0.00  0.00    +0.000 N 
ATOM     14  C   UNL     1       1.620   6.078  20.581  0.00  0.00    +0.000 A 
ENDBRANCH   8  13
ENDBRANCH   7   8
ENDBRANCH   5   7
ENDBRANCH   4   5
ENDBRANCH   1   4
BRANCH   1  15
ATOM     15  C   UNL     1       4.094   2.925  17.479  0.00  0.00    +0.000 C 
BRANCH  15  16
ATOM     16  O   UNL     1       4.610   3.661  16.366  0.00  0.00    +0.000 OA
BRANCH  16  17
ATOM     17  C   UNL     1       5.370   4.757  16.681  0.00  0.00    +0.000 A 
ATOM     18  C   UNL     1       5.096   6.077  16.312  0.00  0.00    +0.000 A 
ATOM     19  C   UNL     1       5.940   7.112  16.723  0.00  0.00    +0.000 A 
ATOM     20  C   UNL     1       7.059   6.827  17.503  0.00  0.00    +0.000 A 
ATOM     21 CL   UNL     1       8.083   8.107  18.022  0.00  0.00    +0.000 Cl
ATOM     22  C   UNL     1       7.347   5.515  17.866  0.00  0.00    +0.000 A 
ATOM     23  C   UNL     1       6.501   4.482  17.452  0.00  0.00    +0.000 A 
ENDBRANCH  16  17
ENDBRANCH  15  16
ENDBRANCH   1  15
TORSDOF 9
ENDMDL
MODEL 7
REMARK VINA RESULT:      -6.1      1.971      2.696
REMARK  Name = 
REMARK  10 active torsions:
REMARK  status: ('A' for Active; 'I' for Inactive)
REMARK    1  A    between atoms: C_1  and  C_2
REMARK    2  A    between atoms: N_5  and  C_6
REMARK    3  A    between atoms: C_6  and  C_7
REMARK    4  A    between atoms: C_7  and  N_8
REMARK    5  A    between atoms: N_8  and  C_9
REMARK    6  A    between atoms: C_9  and  C_10
REMARK    7  A    between atoms: C_10  and  O_11
REMARK    8  A    between atoms: C_10  and  C_12
REMARK    9  A    between atoms: C_12  and  O_13
REMARK   10  A    between atoms: O_13  and  C_14
REMARK                            x       y       z     vdW  Elec       q    Type
REMARK                         _______ _______ _______ _____ _____    ______ ____
ROOT
ATOM      1  C   UNL     1       2.241   3.420  19.637  0.00  0.00    +0.000 C 
ENDROOT
BRANCH   1   2
ATOM      2  O   UNL     1       1.719   2.309  20.372  0.00  0.00    +0.000 OA
ATOM      3  H   UNL     1       1.685   2.606  21.302  0.00  0.00    +0.000 HD
ENDBRANCH   1   2
BRANCH   1   4
ATOM      4  C   UNL     1       3.751   3.194  19.399  0.00  0.00    +0.000 C 
BRANCH   4   5
ATOM      5  N   UNL     1       4.159   3.645  18.051  0.00  0.00    +0.000 NA
ATOM      6  H   UNL     1       4.336   2.815  17.476  0.00  0.00    +0.000 HD
BRANCH   5   7
ATOM      7  C   UNL     1       5.422   4.404  18.079  0.00  0.00    +0.000 C 
BRANCH   7   8
ATOM      8  C   UNL     1       5.557   5.548  17.061  0.00  0.00    +0.000 C 
BRANCH   8  13
ATOM      9  C   UNL     1       5.993   3.376  12.565  0.00  0.00    +0.000 C 
ATOM     10  C   UNL     1       6.239   4.151  13.801  0.00  0.00    +0.000 A 
ATOM     11  C   UNL     1       7.381   4.910  14.146  0.00  0.00    +0.000 A 
ATOM     12  N   UNL     1       7.281   5.466  15.356  0.00  0.00    +0.000 NA
ATOM     13  N   UNL     1       6.051   5.103  15.772  0.00  0.00    +0.000 N 
ATOM     14  C   UNL     1       5.398   4.299  14.884  0.00  0.00    +0.000 A 
ENDBRANCH   8  13
ENDBRANCH   7   8
ENDBRANCH   5   7
ENDBRANCH   4   5
ENDBRANCH   1   4
BRANCH   1  15
ATOM     15  C   UNL     1       1.992   4.729  20.396  0.00  0.00    +0.000 C 
BRANCH  15  16
ATOM     16  O   UNL     1       2.869   5.756  19.922  0.00  0.00    +0.000 OA
BRANCH  16  17
ATOM     17  C   UNL     1       2.288   6.978  19.704  0.00  0.00    +0.000 A 
ATOM     18  C   UNL     1       1.631   7.754  20.663  0.00  0.00    +0.000 A 
ATOM     19  C   UNL     1       1.105   9.001  20.318  0.00  0.00    +0.000 A 
ATOM     20  C   UNL     1       1.233   9.472  19.013  0.00  0.00    +0.000 A 
ATOM     21 CL   UNL     1       0.601  11.016  18.599  0.00  0.00    +0.000 Cl
ATOM     22  C   UNL     1       1.875   8.702  18.048  0.00  0.00    +0.000 A 
ATOM     23  C   UNL     1       2.400   7.455  18.397  0.00  0.00    +0.000 A 
ENDBRANCH  16  17
ENDBRANCH  15  16
ENDBRANCH   1  15
TORSDOF 9
ENDMDL
MODEL 8
REMARK VINA RESULT:      -6.1      1.077      1.393
REMARK  Name = 
REMARK  10 active torsions:
REMARK  status: ('A' for Active; 'I' for Inactive)
REMARK    1  A    between atoms: C_1  and  C_2
REMARK    2  A    between atoms: N_5  and  C_6
REMARK    3  A    between atoms: C_6  and  C_7
REMARK    4  A    between atoms: C_7  and  N_8
REMARK    5  A    between atoms: N_8  and  C_9
REMARK    6  A    between atoms: C_9  and  C_10
REMARK    7  A    between atoms: C_10  and  O_11
REMARK    8  A    between atoms: C_10  and  C_12
REMARK    9  A    between atoms: C_12  and  O_13
REMARK   10  A    between atoms: O_13  and  C_14
REMARK                            x       y       z     vdW  Elec       q    Type
REMARK                         _______ _______ _______ _____ _____    ______ ____
ROOT
ATOM      1  C   UNL     1       1.496   4.107  19.487  0.00  0.00    +0.000 C 
ENDROOT
BRANCH   1   2
ATOM      2  O   UNL     1       0.423   3.635  20.309  0.00  0.00    +0.000 OA
ATOM      3  H   UNL     1      -0.392   3.824  19.804  0.00  0.00    +0.000 HD
ENDBRANCH   1   2
BRANCH   1   4
ATOM      4  C   UNL     1       2.255   2.890  18.912  0.00  0.00    +0.000 C 
BRANCH   4   5
ATOM      5  N   UNL     1       3.646   3.240  18.554  0.00  0.00    +0.000 NA
ATOM      6  H   UNL     1       3.896   4.101  19.049  0.00  0.00    +0.000 HD
BRANCH   5   7
ATOM      7  C   UNL     1       3.792   3.532  17.117  0.00  0.00    +0.000 C 
BRANCH   7   8
ATOM      8  C   UNL     1       5.225   3.741  16.601  0.00  0.00    +0.000 C 
BRANCH   8  13
ATOM      9  C   UNL     1       8.125   7.476  18.263  0.00  0.00    +0.000 C 
ATOM     10  C   UNL     1       7.033   6.685  17.655  0.00  0.00    +0.000 A 
ATOM     11  C   UNL     1       5.860   7.155  17.022  0.00  0.00    +0.000 A 
ATOM     12  N   UNL     1       5.070   6.162  16.604  0.00  0.00    +0.000 NA
ATOM     13  N   UNL     1       5.759   5.050  16.927  0.00  0.00    +0.000 N 
ATOM     14  C   UNL     1       6.930   5.312  17.576  0.00  0.00    +0.000 A 
ENDBRANCH   8  13
ENDBRANCH   7   8
ENDBRANCH   5   7
ENDBRANCH   4   5
ENDBRANCH   1   4
BRANCH   1  15
ATOM     15  C   UNL     1       2.434   5.009  20.298  0.00  0.00    +0.000 C 
BRANCH  15  16
ATOM     16  O   UNL     1       3.092   5.945  19.439  0.00  0.00    +0.000 OA
BRANCH  16  17
ATOM     17  C   UNL     1       2.442   7.137  19.251  0.00  0.00    +0.000 A 
ATOM     18  C   UNL     1       2.321   7.822  18.039  0.00  0.00    +0.000 A 
ATOM     19  C   UNL     1       1.605   9.020  17.976  0.00  0.00    +0.000 A 
ATOM     20  C   UNL     1       1.009   9.533  19.126  0.00  0.00    +0.000 A 
ATOM     21 CL   UNL     1       0.111  10.997  19.039  0.00  0.00    +0.000 Cl
ATOM     22  C   UNL     1       1.132   8.865  20.340  0.00  0.00    +0.000 A 
ATOM     23  C   UNL     1       1.850   7.668  20.400  0.00  0.00    +0.000 A 
ENDBRANCH  16  17
ENDBRANCH  15  16
ENDBRANCH   1  15
TORSDOF 9
ENDMDL
MODEL 9
REMARK VINA RESULT:      -6.1      2.015      2.914
REMARK  Name = 
REMARK  10 active torsions:
REMARK  status: ('A' for Active; 'I' for Inactive)
REMARK    1  A    between atoms: C_1  and  C_2
REMARK    2  A    between atoms: N_5  and  C_6
REMARK    3  A    between atoms: C_6  and  C_7
REMARK    4  A    between atoms: C_7  and  N_8
REMARK    5  A    between atoms: N_8  and  C_9
REMARK    6  A    between atoms: C_9  and  C_10
REMARK    7  A    between atoms: C_10  and  O_11
REMARK    8  A    between atoms: C_10  and  C_12
REMARK    9  A    between atoms: C_12  and  O_13
REMARK   10  A    between atoms: O_13  and  C_14
REMARK                            x       y       z     vdW  Elec       q    Type
REMARK                         _______ _______ _______ _____ _____    ______ ____
ROOT
ATOM      1  C   UNL     1       3.194   1.826  20.195  0.00  0.00    +0.000 C 
ENDROOT
BRANCH   1   2
ATOM      2  O   UNL     1       3.565   2.529  21.386  0.00  0.00    +0.000 OA
ATOM      3  H   UNL     1       3.438   3.475  21.180  0.00  0.00    +0.000 HD
ENDBRANCH   1   2
BRANCH   1   4
ATOM      4  C   UNL     1       4.318   1.994  19.149  0.00  0.00    +0.000 C 
BRANCH   4   5
ATOM      5  N   UNL     1       5.228   3.105  19.506  0.00  0.00    +0.000 NA
ATOM      6  H   UNL     1       4.895   3.522  20.380  0.00  0.00    +0.000 HD
BRANCH   5   7
ATOM      7  C   UNL     1       5.208   4.182  18.500  0.00  0.00    +0.000 C 
BRANCH   7   8
ATOM      8  C   UNL     1       6.568   4.602  17.919  0.00  0.00    +0.000 C 
BRANCH   8  13
ATOM      9  C   UNL     1       5.672   3.531  13.105  0.00  0.00    +0.000 C 
ATOM     10  C   UNL     1       6.199   4.111  14.359  0.00  0.00    +0.000 A 
ATOM     11  C   UNL     1       7.163   5.133  14.513  0.00  0.00    +0.000 A 
ATOM     12  N   UNL     1       7.427   5.401  15.795  0.00  0.00    +0.000 NA
ATOM     13  N   UNL     1       6.594   4.582  16.468  0.00  0.00    +0.000 N 
ATOM     14  C   UNL     1       5.855   3.777  15.652  0.00  0.00    +0.000 A 
ENDBRANCH   8  13
ENDBRANCH   7   8
ENDBRANCH   5   7
ENDBRANCH   4   5
ENDBRANCH   1   4
BRANCH   1  15
ATOM     15  C   UNL     1       1.857   2.350  19.659  0.00  0.00    +0.000 C 
BRANCH  15  16
ATOM     16  O   UNL     1       1.419   3.477  20.425  0.00  0.00    +0.000 OA
BRANCH  16  17
ATOM     17  C   UNL     1       1.701   4.705  19.886  0.00  0.00    +0.000 A 
ATOM     18  C   UNL     1       1.931   5.881  20.605  0.00  0.00    +0.000 A 
ATOM     19  C   UNL     1       2.237   7.068  19.934  0.00  0.00    +0.000 A 
ATOM     20  C   UNL     1       2.313   7.079  18.543  0.00  0.00    +0.000 A 
ATOM     21 CL   UNL     1       2.710   8.537  17.723  0.00  0.00    +0.000 Cl
ATOM     22  C   UNL     1       2.074   5.916  17.816  0.00  0.00    +0.000 A 
ATOM     23  C   UNL     1       1.767   4.731  18.491  0.00  0.00    +0.000 A 
ENDBRANCH  16  17
ENDBRANCH  15  16
ENDBRANCH   1  15
TORSDOF 9
ENDMDL
