MODEL 1
REMARK VINA RESULT:      -7.7      0.000      0.000
REMARK  Name = 
REMARK  6 active torsions:
REMARK  status: ('A' for Active; 'I' for Inactive)
REMARK    1  A    between atoms: C_1  and  N_2
REMARK    2  A    between atoms: N_5  and  S_6
REMARK    3  A    between atoms: S_6  and  C_9
REMARK    4  A    between atoms: C_13  and  C_14
REMARK    5  A    between atoms: C_14  and  O_16
REMARK    6  A    between atoms: O_16  and  C_17
REMARK                            x       y       z     vdW  Elec       q    Type
REMARK                         _______ _______ _______ _____ _____    ______ ____
ROOT
ATOM      1  C   UNL     1       3.373   5.138  19.436  0.00  0.00    +0.000 A 
ATOM      2  C   UNL     1       2.603   4.308  20.257  0.00  0.00    +0.000 A 
ATOM      3  C   UNL     1       1.562   4.853  21.011  0.00  0.00    +0.000 A 
ATOM      4  C   UNL     1       1.273   6.217  20.924  0.00  0.00    +0.000 A 
ATOM      5  C   UNL     1       2.031   7.049  20.089  0.00  0.00    +0.000 A 
ATOM      6  C   UNL     1       3.082   6.502  19.339  0.00  0.00    +0.000 A 
ENDROOT
BRANCH   1   7
ATOM      7  S   UNL     1       4.598   4.434  18.348  0.00  0.00    +0.000 S 
ATOM      8  O   UNL     1       3.911   4.039  17.134  0.00  0.00    +0.000 OA
ATOM      9  O   UNL     1       5.343   3.460  19.112  0.00  0.00    +0.000 OA
BRANCH   7  14
ATOM     10  C   UNL     1       7.182   4.778  14.086  0.00  0.00    +0.000 C 
ATOM     11  N   UNL     1       6.930   5.535  15.313  0.00  0.00    +0.000 NA
ATOM     12  C   UNL     1       7.428   4.789  16.488  0.00  0.00    +0.000 C 
ATOM     13  C   UNL     1       7.080   5.469  17.831  0.00  0.00    +0.000 C 
ATOM     14  N   UNL     1       5.615   5.751  17.962  0.00  0.00    +0.000 NA
ATOM     15  C   UNL     1       5.175   6.555  16.771  0.00  0.00    +0.000 C 
ATOM     16  C   UNL     1       5.486   5.824  15.450  0.00  0.00    +0.000 C 
ENDBRANCH   7  14
ENDBRANCH   1   7
BRANCH   5  17
ATOM     17  C   UNL     1       1.621   8.477  19.952  0.00  0.00    +0.000 C 
ATOM     18  O   UNL     1       1.219   8.989  18.919  0.00  0.00    +0.000 OA
BRANCH  17  19
ATOM     19  O   UNL     1       1.809   9.124  21.159  0.00  0.00    +0.000 OA
BRANCH  19  20
ATOM     20  C   UNL     1       0.753   9.950  21.568  0.00  0.00    +0.000 A 
ATOM     21  C   UNL     1      -0.080   9.458  22.573  0.00  0.00    +0.000 A 
ATOM     22  C   UNL     1      -1.058  10.293  23.120  0.00  0.00    +0.000 A 
ATOM     23  C   UNL     1      -1.186  11.609  22.665  0.00  0.00    +0.000 A 
ATOM     24 BR   UNL     1      -2.493  12.742  23.426  0.00  0.00    +0.000 Br
ATOM     25  C   UNL     1      -0.347  12.104  21.671  0.00  0.00    +0.000 A 
ATOM     26  C   UNL     1       0.628  11.270  21.135  0.00  0.00    +0.000 A 
ATOM     27  F   UNL     1       1.480  11.788  20.236  0.00  0.00    +0.000 F 
ENDBRANCH  19  20
ENDBRANCH  17  19
ENDBRANCH   5  17
TORSDOF 5
ENDMDL
MODEL 2
REMARK VINA RESULT:      -7.7      2.411      2.693
REMARK  Name = 
REMARK  6 active torsions:
REMARK  status: ('A' for Active; 'I' for Inactive)
REMARK    1  A    between atoms: C_1  and  N_2
REMARK    2  A    between atoms: N_5  and  S_6
REMARK    3  A    between atoms: S_6  and  C_9
REMARK    4  A    between atoms: C_13  and  C_14
REMARK    5  A    between atoms: C_14  and  O_16
REMARK    6  A    between atoms: O_16  and  C_17
REMARK                            x       y       z     vdW  Elec       q    Type
REMARK                         _______ _______ _______ _____ _____    ______ ____
ROOT
ATOM      1  C   UNL     1       3.280   5.936  19.092  0.00  0.00    +0.000 A 
ATOM      2  C   UNL     1       2.610   5.498  20.239  0.00  0.00    +0.000 A 
ATOM      3  C   UNL     1       1.665   6.326  20.848  0.00  0.00    +0.000 A 
ATOM      4  C   UNL     1       1.372   7.578  20.300  0.00  0.00    +0.000 A 
ATOM      5  C   UNL     1       2.029   8.013  19.141  0.00  0.00    +0.000 A 
ATOM      6  C   UNL     1       2.984   7.184  18.534  0.00  0.00    +0.000 A 
ENDROOT
BRANCH   1   7
ATOM      7  S   UNL     1       4.367   4.830  18.212  0.00  0.00    +0.000 S 
ATOM      8  O   UNL     1       3.666   4.410  17.014  0.00  0.00    +0.000 OA
ATOM      9  O   UNL     1       4.840   3.847  19.159  0.00  0.00    +0.000 OA
BRANCH   7  14
ATOM     10  C   UNL     1       6.743   4.349  13.843  0.00  0.00    +0.000 C 
ATOM     11  N   UNL     1       6.753   5.187  15.043  0.00  0.00    +0.000 NA
ATOM     12  C   UNL     1       7.099   4.378  16.231  0.00  0.00    +0.000 C 
ATOM     13  C   UNL     1       7.003   5.170  17.555  0.00  0.00    +0.000 C 
ATOM     14  N   UNL     1       5.668   5.826  17.729  0.00  0.00    +0.000 NA
ATOM     15  C   UNL     1       5.392   6.675  16.520  0.00  0.00    +0.000 C 
ATOM     16  C   UNL     1       5.441   5.844  15.223  0.00  0.00    +0.000 C 
ENDBRANCH   7  14
ENDBRANCH   1   7
BRANCH   5  17
ATOM     17  C   UNL     1       1.610   9.311  18.535  0.00  0.00    +0.000 C 
ATOM     18  O   UNL     1       2.031   9.752  17.478  0.00  0.00    +0.000 OA
BRANCH  17  19
ATOM     19  O   UNL     1       0.711   9.938  19.377  0.00  0.00    +0.000 OA
BRANCH  19  20
ATOM     20  C   UNL     1      -0.455  10.415  18.762  0.00  0.00    +0.000 A 
ATOM     21  C   UNL     1      -0.952   9.673  17.690  0.00  0.00    +0.000 A 
ATOM     22  C   UNL     1      -2.186  10.019  17.134  0.00  0.00    +0.000 A 
ATOM     23  C   UNL     1      -2.912  11.092  17.659  0.00  0.00    +0.000 A 
ATOM     24 BR   UNL     1      -4.592  11.540  16.919  0.00  0.00    +0.000 Br
ATOM     25  C   UNL     1      -2.423  11.825  18.737  0.00  0.00    +0.000 A 
ATOM     26  C   UNL     1      -1.197  11.472  19.290  0.00  0.00    +0.000 A 
ATOM     27  F   UNL     1      -0.779  12.137  20.378  0.00  0.00    +0.000 F 
ENDBRANCH  19  20
ENDBRANCH  17  19
ENDBRANCH   5  17
TORSDOF 5
ENDMDL
MODEL 3
REMARK VINA RESULT:      -7.7      2.901      3.988
REMARK  Name = 
REMARK  6 active torsions:
REMARK  status: ('A' for Active; 'I' for Inactive)
REMARK    1  A    between atoms: C_1  and  N_2
REMARK    2  A    between atoms: N_5  and  S_6
REMARK    3  A    between atoms: S_6  and  C_9
REMARK    4  A    between atoms: C_13  and  C_14
REMARK    5  A    between atoms: C_14  and  O_16
REMARK    6  A    between atoms: O_16  and  C_17
REMARK                            x       y       z     vdW  Elec       q    Type
REMARK                         _______ _______ _______ _____ _____    ______ ____
ROOT
ATOM      1  C   UNL     1       2.161   7.276  19.383  0.00  0.00    +0.000 A 
ATOM      2  C   UNL     1       2.265   8.005  18.195  0.00  0.00    +0.000 A 
ATOM      3  C   UNL     1       1.766   9.308  18.136  0.00  0.00    +0.000 A 
ATOM      4  C   UNL     1       1.189   9.889  19.268  0.00  0.00    +0.000 A 
ATOM      5  C   UNL     1       1.099   9.168  20.465  0.00  0.00    +0.000 A 
ATOM      6  C   UNL     1       1.593   7.856  20.521  0.00  0.00    +0.000 A 
ENDROOT
BRANCH   1   7
ATOM      7  S   UNL     1       2.935   5.676  19.523  0.00  0.00    +0.000 S 
ATOM      8  O   UNL     1       2.466   5.083  20.760  0.00  0.00    +0.000 OA
ATOM      9  O   UNL     1       4.350   5.860  19.296  0.00  0.00    +0.000 OA
BRANCH   7  14
ATOM     10  C   UNL     1       3.976   0.864  18.670  0.00  0.00    +0.000 C 
ATOM     11  N   UNL     1       3.155   1.949  18.134  0.00  0.00    +0.000 NA
ATOM     12  C   UNL     1       4.012   3.048  17.643  0.00  0.00    +0.000 C 
ATOM     13  C   UNL     1       3.209   4.285  17.180  0.00  0.00    +0.000 C 
ATOM     14  N   UNL     1       2.266   4.777  18.233  0.00  0.00    +0.000 NA
ATOM     15  C   UNL     1       1.385   3.635  18.656  0.00  0.00    +0.000 C 
ATOM     16  C   UNL     1       2.214   2.440  19.164  0.00  0.00    +0.000 C 
ENDBRANCH   7  14
ENDBRANCH   1   7
BRANCH   5  17
ATOM     17  C   UNL     1       0.568   9.864  21.673  0.00  0.00    +0.000 C 
ATOM     18  O   UNL     1       0.972   9.688  22.811  0.00  0.00    +0.000 OA
BRANCH  17  19
ATOM     19  O   UNL     1      -0.468  10.700  21.300  0.00  0.00    +0.000 OA
BRANCH  19  20
ATOM     20  C   UNL     1      -0.472  11.962  21.910  0.00  0.00    +0.000 A 
ATOM     21  C   UNL     1       0.324  12.948  21.325  0.00  0.00    +0.000 A 
ATOM     22  C   UNL     1       0.248  14.259  21.803  0.00  0.00    +0.000 A 
ATOM     23  C   UNL     1      -0.625  14.571  22.850  0.00  0.00    +0.000 A 
ATOM     24 BR   UNL     1      -0.741  16.351  23.474  0.00  0.00    +0.000 Br
ATOM     25  C   UNL     1      -1.428  13.591  23.425  0.00  0.00    +0.000 A 
ATOM     26  C   UNL     1      -1.352  12.289  22.942  0.00  0.00    +0.000 A 
ATOM     27  F   UNL     1      -2.191  11.374  23.453  0.00  0.00    +0.000 F 
ENDBRANCH  19  20
ENDBRANCH  17  19
ENDBRANCH   5  17
TORSDOF 5
ENDMDL
MODEL 4
REMARK VINA RESULT:      -7.7      3.214      4.161
REMARK  Name = 
REMARK  6 active torsions:
REMARK  status: ('A' for Active; 'I' for Inactive)
REMARK    1  A    between atoms: C_1  and  N_2
REMARK    2  A    between atoms: N_5  and  S_6
REMARK    3  A    between atoms: S_6  and  C_9
REMARK    4  A    between atoms: C_13  and  C_14
REMARK    5  A    between atoms: C_14  and  O_16
REMARK    6  A    between atoms: O_16  and  C_17
REMARK                            x       y       z     vdW  Elec       q    Type
REMARK                         _______ _______ _______ _____ _____    ______ ____
ROOT
ATOM      1  C   UNL     1       2.254   7.430  18.912  0.00  0.00    +0.000 A 
ATOM      2  C   UNL     1       2.196   8.276  17.800  0.00  0.00    +0.000 A 
ATOM      3  C   UNL     1       1.618   9.541  17.922  0.00  0.00    +0.000 A 
ATOM      4  C   UNL     1       1.122   9.969  19.156  0.00  0.00    +0.000 A 
ATOM      5  C   UNL     1       1.194   9.131  20.277  0.00  0.00    +0.000 A 
ATOM      6  C   UNL     1       1.768   7.857  20.151  0.00  0.00    +0.000 A 
ENDROOT
BRANCH   1   7
ATOM      7  S   UNL     1       3.131   5.881  18.814  0.00  0.00    +0.000 S 
ATOM      8  O   UNL     1       4.190   5.929  19.802  0.00  0.00    +0.000 OA
ATOM      9  O   UNL     1       3.445   5.651  17.422  0.00  0.00    +0.000 OA
BRANCH   7  14
ATOM     10  C   UNL     1       3.874   0.947  18.552  0.00  0.00    +0.000 C 
ATOM     11  N   UNL     1       2.872   1.911  19.008  0.00  0.00    +0.000 NA
ATOM     12  C   UNL     1       2.363   2.701  17.867  0.00  0.00    +0.000 C 
ATOM     13  C   UNL     1       1.395   3.828  18.292  0.00  0.00    +0.000 C 
ATOM     14  N   UNL     1       1.988   4.723  19.336  0.00  0.00    +0.000 NA
ATOM     15  C   UNL     1       2.439   3.875  20.492  0.00  0.00    +0.000 C 
ATOM     16  C   UNL     1       3.445   2.798  20.044  0.00  0.00    +0.000 C 
ENDBRANCH   7  14
ENDBRANCH   1   7
BRANCH   5  17
ATOM     17  C   UNL     1       0.745   9.669  21.594  0.00  0.00    +0.000 C 
ATOM     18  O   UNL     1       1.324   9.487  22.653  0.00  0.00    +0.000 OA
BRANCH  17  19
ATOM     19  O   UNL     1      -0.437  10.364  21.424  0.00  0.00    +0.000 OA
BRANCH  19  20
ATOM     20  C   UNL     1      -0.458  11.657  21.965  0.00  0.00    +0.000 A 
ATOM     21  C   UNL     1       0.337  12.616  21.338  0.00  0.00    +0.000 A 
ATOM     22  C   UNL     1       0.245  13.950  21.744  0.00  0.00    +0.000 A 
ATOM     23  C   UNL     1      -0.642  14.312  22.762  0.00  0.00    +0.000 A 
ATOM     24 BR   UNL     1      -0.780  16.120  23.289  0.00  0.00    +0.000 Br
ATOM     25  C   UNL     1      -1.445  13.356  23.380  0.00  0.00    +0.000 A 
ATOM     26  C   UNL     1      -1.354  12.031  22.968  0.00  0.00    +0.000 A 
ATOM     27  F   UNL     1      -2.191  11.138  23.518  0.00  0.00    +0.000 F 
ENDBRANCH  19  20
ENDBRANCH  17  19
ENDBRANCH   5  17
TORSDOF 5
ENDMDL
MODEL 5
REMARK VINA RESULT:      -7.6      3.032      3.938
REMARK  Name = 
REMARK  6 active torsions:
REMARK  status: ('A' for Active; 'I' for Inactive)
REMARK    1  A    between atoms: C_1  and  N_2
REMARK    2  A    between atoms: N_5  and  S_6
REMARK    3  A    between atoms: S_6  and  C_9
REMARK    4  A    between atoms: C_13  and  C_14
REMARK    5  A    between atoms: C_14  and  O_16
REMARK    6  A    between atoms: O_16  and  C_17
REMARK                            x       y       z     vdW  Elec       q    Type
REMARK                         _______ _______ _______ _____ _____    ______ ____
ROOT
ATOM      1  C   UNL     1       2.230   7.573  18.886  0.00  0.00    +0.000 A 
ATOM      2  C   UNL     1       2.189   8.454  17.801  0.00  0.00    +0.000 A 
ATOM      3  C   UNL     1       1.639   9.727  17.964  0.00  0.00    +0.000 A 
ATOM      4  C   UNL     1       1.154  10.127  19.212  0.00  0.00    +0.000 A 
ATOM      5  C   UNL     1       1.209   9.253  20.305  0.00  0.00    +0.000 A 
ATOM      6  C   UNL     1       1.755   7.972  20.139  0.00  0.00    +0.000 A 
ENDROOT
BRANCH   1   7
ATOM      7  S   UNL     1       3.073   6.009  18.738  0.00  0.00    +0.000 S 
ATOM      8  O   UNL     1       3.927   5.874  19.902  0.00  0.00    +0.000 OA
ATOM      9  O   UNL     1       3.640   5.949  17.410  0.00  0.00    +0.000 OA
BRANCH   7  14
ATOM     10  C   UNL     1       3.845   1.075  18.554  0.00  0.00    +0.000 C 
ATOM     11  N   UNL     1       2.757   2.038  18.731  0.00  0.00    +0.000 NA
ATOM     12  C   UNL     1       2.600   2.865  17.516  0.00  0.00    +0.000 C 
ATOM     13  C   UNL     1       1.555   3.991  17.678  0.00  0.00    +0.000 C 
ATOM     14  N   UNL     1       1.825   4.850  18.875  0.00  0.00    +0.000 NA
ATOM     15  C   UNL     1       1.922   3.965  20.086  0.00  0.00    +0.000 C 
ATOM     16  C   UNL     1       3.011   2.889  19.914  0.00  0.00    +0.000 C 
ENDBRANCH   7  14
ENDBRANCH   1   7
BRANCH   5  17
ATOM     17  C   UNL     1       0.774   9.760  21.640  0.00  0.00    +0.000 C 
ATOM     18  O   UNL     1       0.606   9.062  22.627  0.00  0.00    +0.000 OA
BRANCH  17  19
ATOM     19  O   UNL     1       0.558  11.123  21.562  0.00  0.00    +0.000 OA
BRANCH  19  20
ATOM     20  C   UNL     1      -0.771  11.532  21.737  0.00  0.00    +0.000 A 
ATOM     21  C   UNL     1      -1.288  11.457  23.031  0.00  0.00    +0.000 A 
ATOM     22  C   UNL     1      -2.556  11.984  23.291  0.00  0.00    +0.000 A 
ATOM     23  C   UNL     1      -3.286  12.587  22.262  0.00  0.00    +0.000 A 
ATOM     24 BR   UNL     1      -4.989  13.321  22.624  0.00  0.00    +0.000 Br
ATOM     25  C   UNL     1      -2.765  12.673  20.974  0.00  0.00    +0.000 A 
ATOM     26  C   UNL     1      -1.500  12.151  20.722  0.00  0.00    +0.000 A 
ATOM     27  F   UNL     1      -0.981  12.314  19.496  0.00  0.00    +0.000 F 
ENDBRANCH  19  20
ENDBRANCH  17  19
ENDBRANCH   5  17
TORSDOF 5
ENDMDL
MODEL 6
REMARK VINA RESULT:      -7.5      2.647      3.963
REMARK  Name = 
REMARK  6 active torsions:
REMARK  status: ('A' for Active; 'I' for Inactive)
REMARK    1  A    between atoms: C_1  and  N_2
REMARK    2  A    between atoms: N_5  and  S_6
REMARK    3  A    between atoms: S_6  and  C_9
REMARK    4  A    between atoms: C_13  and  C_14
REMARK    5  A    between atoms: C_14  and  O_16
REMARK    6  A    between atoms: O_16  and  C_17
REMARK                            x       y       z     vdW  Elec       q    Type
REMARK                         _______ _______ _______ _____ _____    ______ ____
ROOT
ATOM      1  C   UNL     1       3.005   6.997  18.591  0.00  0.00    +0.000 A 
ATOM      2  C   UNL     1       2.977   7.889  17.515  0.00  0.00    +0.000 A 
ATOM      3  C   UNL     1       2.161   9.021  17.575  0.00  0.00    +0.000 A 
ATOM      4  C   UNL     1       1.397   9.275  18.717  0.00  0.00    +0.000 A 
ATOM      5  C   UNL     1       1.437   8.393  19.805  0.00  0.00    +0.000 A 
ATOM      6  C   UNL     1       2.250   7.252  19.740  0.00  0.00    +0.000 A 
ENDROOT
BRANCH   1   7
ATOM      7  S   UNL     1       4.158   5.638  18.597  0.00  0.00    +0.000 S 
ATOM      8  O   UNL     1       4.469   5.350  19.984  0.00  0.00    +0.000 OA
ATOM      9  O   UNL     1       5.216   5.966  17.669  0.00  0.00    +0.000 OA
BRANCH   7  14
ATOM     10  C   UNL     1       1.631   2.437  21.483  0.00  0.00    +0.000 C 
ATOM     11  N   UNL     1       1.901   2.705  20.070  0.00  0.00    +0.000 NA
ATOM     12  C   UNL     1       3.343   2.553  19.785  0.00  0.00    +0.000 C 
ATOM     13  C   UNL     1       3.722   2.947  18.340  0.00  0.00    +0.000 C 
ATOM     14  N   UNL     1       3.254   4.324  17.985  0.00  0.00    +0.000 NA
ATOM     15  C   UNL     1       1.776   4.407  18.244  0.00  0.00    +0.000 C 
ATOM     16  C   UNL     1       1.438   4.062  19.707  0.00  0.00    +0.000 C 
ENDBRANCH   7  14
ENDBRANCH   1   7
BRANCH   5  17
ATOM     17  C   UNL     1       0.684   8.758  21.040  0.00  0.00    +0.000 C 
ATOM     18  O   UNL     1      -0.128   8.038  21.598  0.00  0.00    +0.000 OA
BRANCH  17  19
ATOM     19  O   UNL     1       1.025  10.043  21.420  0.00  0.00    +0.000 OA
BRANCH  19  20
ATOM     20  C   UNL     1      -0.054  10.895  21.692  0.00  0.00    +0.000 A 
ATOM     21  C   UNL     1      -0.506  11.695  20.643  0.00  0.00    +0.000 A 
ATOM     22  C   UNL     1      -1.666  12.456  20.815  0.00  0.00    +0.000 A 
ATOM     23  C   UNL     1      -2.363  12.402  22.026  0.00  0.00    +0.000 A 
ATOM     24 BR   UNL     1      -3.944  13.413  22.244  0.00  0.00    +0.000 Br
ATOM     25  C   UNL     1      -1.919  11.595  23.069  0.00  0.00    +0.000 A 
ATOM     26  C   UNL     1      -0.767  10.836  22.890  0.00  0.00    +0.000 A 
ATOM     27  F   UNL     1      -0.398  10.003  23.875  0.00  0.00    +0.000 F 
ENDBRANCH  19  20
ENDBRANCH  17  19
ENDBRANCH   5  17
TORSDOF 5
ENDMDL
MODEL 7
REMARK VINA RESULT:      -7.5      1.913      2.156
REMARK  Name = 
REMARK  6 active torsions:
REMARK  status: ('A' for Active; 'I' for Inactive)
REMARK    1  A    between atoms: C_1  and  N_2
REMARK    2  A    between atoms: N_5  and  S_6
REMARK    3  A    between atoms: S_6  and  C_9
REMARK    4  A    between atoms: C_13  and  C_14
REMARK    5  A    between atoms: C_14  and  O_16
REMARK    6  A    between atoms: O_16  and  C_17
REMARK                            x       y       z     vdW  Elec       q    Type
REMARK                         _______ _______ _______ _____ _____    ______ ____
ROOT
ATOM      1  C   UNL     1       3.477   5.479  19.253  0.00  0.00    +0.000 A 
ATOM      2  C   UNL     1       2.757   4.881  20.292  0.00  0.00    +0.000 A 
ATOM      3  C   UNL     1       1.737   5.592  20.926  0.00  0.00    +0.000 A 
ATOM      4  C   UNL     1       1.419   6.887  20.507  0.00  0.00    +0.000 A 
ATOM      5  C   UNL     1       2.126   7.483  19.455  0.00  0.00    +0.000 A 
ATOM      6  C   UNL     1       3.156   6.771  18.823  0.00  0.00    +0.000 A 
ENDROOT
BRANCH   1   7
ATOM      7  S   UNL     1       4.670   4.531  18.328  0.00  0.00    +0.000 S 
ATOM      8  O   UNL     1       3.983   3.999  17.168  0.00  0.00    +0.000 OA
ATOM      9  O   UNL     1       5.325   3.639  19.257  0.00  0.00    +0.000 OA
BRANCH   7  14
ATOM     10  C   UNL     1       6.772   4.424  13.796  0.00  0.00    +0.000 C 
ATOM     11  N   UNL     1       6.756   5.241  15.010  0.00  0.00    +0.000 NA
ATOM     12  C   UNL     1       7.290   4.473  16.154  0.00  0.00    +0.000 C 
ATOM     13  C   UNL     1       7.184   5.229  17.497  0.00  0.00    +0.000 C 
ATOM     14  N   UNL     1       5.790   5.698  17.777  0.00  0.00    +0.000 NA
ATOM     15  C   UNL     1       5.317   6.516  16.608  0.00  0.00    +0.000 C 
ATOM     16  C   UNL     1       5.384   5.714  15.293  0.00  0.00    +0.000 C 
ENDBRANCH   7  14
ENDBRANCH   1   7
BRANCH   5  17
ATOM     17  C   UNL     1       1.684   8.825  18.976  0.00  0.00    +0.000 C 
ATOM     18  O   UNL     1       2.161   9.413  18.018  0.00  0.00    +0.000 OA
BRANCH  17  19
ATOM     19  O   UNL     1       0.688   9.301  19.807  0.00  0.00    +0.000 OA
BRANCH  19  20
ATOM     20  C   UNL     1       0.376  10.660  19.655  0.00  0.00    +0.000 A 
ATOM     21  C   UNL     1       1.103  11.564  20.429  0.00  0.00    +0.000 A 
ATOM     22  C   UNL     1       0.936  12.935  20.214  0.00  0.00    +0.000 A 
ATOM     23  C   UNL     1       0.055  13.385  19.226  0.00  0.00    +0.000 A 
ATOM     24 BR   UNL     1      -0.148  15.239  18.923  0.00  0.00    +0.000 Br
ATOM     25  C   UNL     1      -0.661  12.482  18.445  0.00  0.00    +0.000 A 
ATOM     26  C   UNL     1      -0.486  11.119  18.659  0.00  0.00    +0.000 A 
ATOM     27  F   UNL     1      -1.122  10.264  17.845  0.00  0.00    +0.000 F 
ENDBRANCH  19  20
ENDBRANCH  17  19
ENDBRANCH   5  17
TORSDOF 5
ENDMDL
MODEL 8
REMARK VINA RESULT:      -7.5      2.692      3.748
REMARK  Name = 
REMARK  6 active torsions:
REMARK  status: ('A' for Active; 'I' for Inactive)
REMARK    1  A    between atoms: C_1  and  N_2
REMARK    2  A    between atoms: N_5  and  S_6
REMARK    3  A    between atoms: S_6  and  C_9
REMARK    4  A    between atoms: C_13  and  C_14
REMARK    5  A    between atoms: C_14  and  O_16
REMARK    6  A    between atoms: O_16  and  C_17
REMARK                            x       y       z     vdW  Elec       q    Type
REMARK                         _______ _______ _______ _____ _____    ______ ____
ROOT
ATOM      1  C   UNL     1       2.086   7.357  19.334  0.00  0.00    +0.000 A 
ATOM      2  C   UNL     1       2.247   8.056  18.134  0.00  0.00    +0.000 A 
ATOM      3  C   UNL     1       1.784   9.369  18.030  0.00  0.00    +0.000 A 
ATOM      4  C   UNL     1       1.187   9.992  19.129  0.00  0.00    +0.000 A 
ATOM      5  C   UNL     1       1.040   9.300  20.339  0.00  0.00    +0.000 A 
ATOM      6  C   UNL     1       1.497   7.978  20.440  0.00  0.00    +0.000 A 
ENDROOT
BRANCH   1   7
ATOM      7  S   UNL     1       2.813   5.742  19.534  0.00  0.00    +0.000 S 
ATOM      8  O   UNL     1       2.147   5.112  20.657  0.00  0.00    +0.000 OA
ATOM      9  O   UNL     1       4.248   5.913  19.543  0.00  0.00    +0.000 OA
BRANCH   7  14
ATOM     10  C   UNL     1       3.969   0.960  18.656  0.00  0.00    +0.000 C 
ATOM     11  N   UNL     1       3.242   2.073  18.044  0.00  0.00    +0.000 NA
ATOM     12  C   UNL     1       4.166   3.185  17.737  0.00  0.00    +0.000 C 
ATOM     13  C   UNL     1       3.446   4.445  17.207  0.00  0.00    +0.000 C 
ATOM     14  N   UNL     1       2.351   4.901  18.120  0.00  0.00    +0.000 NA
ATOM     15  C   UNL     1       1.414   3.749  18.355  0.00  0.00    +0.000 C 
ATOM     16  C   UNL     1       2.153   2.528  18.936  0.00  0.00    +0.000 C 
ENDBRANCH   7  14
ENDBRANCH   1   7
BRANCH   5  17
ATOM     17  C   UNL     1       0.490  10.038  21.514  0.00  0.00    +0.000 C 
ATOM     18  O   UNL     1       0.931   9.965  22.649  0.00  0.00    +0.000 OA
BRANCH  17  19
ATOM     19  O   UNL     1      -0.610  10.774  21.116  0.00  0.00    +0.000 OA
BRANCH  19  20
ATOM     20  C   UNL     1      -0.766  12.013  21.751  0.00  0.00    +0.000 A 
ATOM     21  C   UNL     1      -1.700  12.080  22.786  0.00  0.00    +0.000 A 
ATOM     22  C   UNL     1      -1.793  13.247  23.548  0.00  0.00    +0.000 A 
ATOM     23  C   UNL     1      -0.950  14.329  23.275  0.00  0.00    +0.000 A 
ATOM     24 BR   UNL     1      -1.064  15.896  24.324  0.00  0.00    +0.000 Br
ATOM     25  C   UNL     1      -0.010  14.259  22.251  0.00  0.00    +0.000 A 
ATOM     26  C   UNL     1       0.083  13.092  21.499  0.00  0.00    +0.000 A 
ATOM     27  F   UNL     1       1.047  13.012  20.570  0.00  0.00    +0.000 F 
ENDBRANCH  19  20
ENDBRANCH  17  19
ENDBRANCH   5  17
TORSDOF 5
ENDMDL
MODEL 9
REMARK VINA RESULT:      -7.4      2.043      2.821
REMARK  Name = 
REMARK  6 active torsions:
REMARK  status: ('A' for Active; 'I' for Inactive)
REMARK    1  A    between atoms: C_1  and  N_2
REMARK    2  A    between atoms: N_5  and  S_6
REMARK    3  A    between atoms: S_6  and  C_9
REMARK    4  A    between atoms: C_13  and  C_14
REMARK    5  A    between atoms: C_14  and  O_16
REMARK    6  A    between atoms: O_16  and  C_17
REMARK                            x       y       z     vdW  Elec       q    Type
REMARK                         _______ _______ _______ _____ _____    ______ ____
ROOT
ATOM      1  C   UNL     1       2.335   7.202  18.908  0.00  0.00    +0.000 A 
ATOM      2  C   UNL     1       2.170   7.972  17.753  0.00  0.00    +0.000 A 
ATOM      3  C   UNL     1       1.537   9.214  17.834  0.00  0.00    +0.000 A 
ATOM      4  C   UNL     1       1.095   9.698  19.068  0.00  0.00    +0.000 A 
ATOM      5  C   UNL     1       1.276   8.936  20.231  0.00  0.00    +0.000 A 
ATOM      6  C   UNL     1       1.904   7.685  20.148  0.00  0.00    +0.000 A 
ENDROOT
BRANCH   1   7
ATOM      7  S   UNL     1       3.281   5.692  18.850  0.00  0.00    +0.000 S 
ATOM      8  O   UNL     1       2.850   4.966  17.672  0.00  0.00    +0.000 OA
ATOM      9  O   UNL     1       3.193   5.078  20.155  0.00  0.00    +0.000 OA
BRANCH   7  14
ATOM     10  C   UNL     1       6.204   3.882  15.224  0.00  0.00    +0.000 C 
ATOM     11  N   UNL     1       6.228   4.876  16.298  0.00  0.00    +0.000 NA
ATOM     12  C   UNL     1       6.089   4.215  17.613  0.00  0.00    +0.000 C 
ATOM     13  C   UNL     1       5.976   5.214  18.786  0.00  0.00    +0.000 C 
ATOM     14  N   UNL     1       4.884   6.216  18.577  0.00  0.00    +0.000 NA
ATOM     15  C   UNL     1       5.104   6.893  17.253  0.00  0.00    +0.000 C 
ATOM     16  C   UNL     1       5.156   5.875  16.099  0.00  0.00    +0.000 C 
ENDBRANCH   7  14
ENDBRANCH   1   7
BRANCH   5  17
ATOM     17  C   UNL     1       0.880   9.537  21.538  0.00  0.00    +0.000 C 
ATOM     18  O   UNL     1       1.524   9.439  22.571  0.00  0.00    +0.000 OA
BRANCH  17  19
ATOM     19  O   UNL     1      -0.336  10.177  21.398  0.00  0.00    +0.000 OA
BRANCH  19  20
ATOM     20  C   UNL     1      -0.396  11.476  21.920  0.00  0.00    +0.000 A 
ATOM     21  C   UNL     1       0.337  12.458  21.253  0.00  0.00    +0.000 A 
ATOM     22  C   UNL     1       0.201  13.794  21.642  0.00  0.00    +0.000 A 
ATOM     23  C   UNL     1      -0.670  14.133  22.682  0.00  0.00    +0.000 A 
ATOM     24 BR   UNL     1      -0.869  15.943  23.186  0.00  0.00    +0.000 Br
ATOM     25  C   UNL     1      -1.411  13.155  23.339  0.00  0.00    +0.000 A 
ATOM     26  C   UNL     1      -1.275  11.828  22.945  0.00  0.00    +0.000 A 
ATOM     27  F   UNL     1      -2.056  10.910  23.534  0.00  0.00    +0.000 F 
ENDBRANCH  19  20
ENDBRANCH  17  19
ENDBRANCH   5  17
TORSDOF 5
ENDMDL
