MODEL 1
REMARK VINA RESULT:      -8.7      0.000      0.000
REMARK  Name = 
REMARK  6 active torsions:
REMARK  status: ('A' for Active; 'I' for Inactive)
REMARK    1  A    between atoms: C_1  and  O_2
REMARK    2  A    between atoms: O_2  and  C_3
REMARK    3  A    between atoms: C_8  and  N_9
REMARK    4  A    between atoms: C_13  and  C_15
REMARK    5  A    between atoms: C_15  and  N_16
REMARK    6  A    between atoms: C_20  and  C_21
REMARK                            x       y       z     vdW  Elec       q    Type
REMARK                         _______ _______ _______ _____ _____    ______ ____
ROOT
ATOM      1  N   UNL     1       7.037   6.313  18.173  0.00  0.00    +0.000 N 
ATOM      2  C   UNL     1       6.480   5.614  19.214  0.00  0.00    +0.000 A 
ATOM      3  O   UNL     1       7.103   5.092  20.129  0.00  0.00    +0.000 OA
ATOM      4  N   UNL     1       5.144   5.463  19.105  0.00  0.00    +0.000 NA
ATOM      5  C   UNL     1       4.674   5.122  17.968  0.00  0.00    +0.000 A 
ATOM      6  C   UNL     1       5.425   5.307  16.697  0.00  0.00    +0.000 A 
ATOM      7  C   UNL     1       4.919   4.857  15.466  0.00  0.00    +0.000 A 
ATOM      8  C   UNL     1       5.798   4.521  14.454  0.00  0.00    +0.000 A 
ATOM      9 CL   UNL     1       5.184   3.763  13.031  0.00  0.00    +0.000 Cl
ATOM     10  C   UNL     1       7.163   4.695  14.666  0.00  0.00    +0.000 A 
ATOM     11  C   UNL     1       7.647   5.350  15.846  0.00  0.00    +0.000 A 
ATOM     12  C   UNL     1       6.760   5.730  16.873  0.00  0.00    +0.000 A 
ENDROOT
BRANCH   5  13
ATOM     13  C   UNL     1       3.676   4.054  18.070  0.00  0.00    +0.000 A 
ATOM     14  C   UNL     1       3.887   2.737  18.432  0.00  0.00    +0.000 A 
ATOM     15  C   UNL     1       2.778   1.931  18.684  0.00  0.00    +0.000 A 
ATOM     16  C   UNL     1       1.478   2.431  18.550  0.00  0.00    +0.000 A 
ATOM     17  C   UNL     1       1.262   3.753  18.159  0.00  0.00    +0.000 A 
ATOM     18  C   UNL     1       2.358   4.558  17.935  0.00  0.00    +0.000 A 
ENDBRANCH   5  13
BRANCH   1  19
ATOM     19  C   UNL     1       8.057   7.226  18.641  0.00  0.00    +0.000 C 
BRANCH  19  24
ATOM     20  N   UNL     1       9.716  12.575  19.378  0.00  0.00    +0.000 N 
ATOM     21  C   UNL     1       8.377  12.429  18.781  0.00  0.00    +0.000 C 
ATOM     22  C   UNL     1       8.331  11.171  17.865  0.00  0.00    +0.000 C 
ATOM     23  N   UNL     1       8.670   9.892  18.564  0.00  0.00    +0.000 N 
ATOM     24  C   UNL     1       8.177   8.711  17.954  0.00  0.00    +0.000 C 
ATOM     25  O   UNL     1       7.615   8.835  16.849  0.00  0.00    +0.000 OA
ATOM     26  C   UNL     1       9.986  10.018  19.219  0.00  0.00    +0.000 C 
ATOM     27  C   UNL     1      10.151  11.335  20.090  0.00  0.00    +0.000 C 
BRANCH  20  33
ATOM     28  C   UNL     1      10.850  14.851  19.167  0.00  0.00    +0.000 A 
ATOM     29  C   UNL     1      11.317  16.011  19.842  0.00  0.00    +0.000 A 
ATOM     30  C   UNL     1      11.061  16.229  21.190  0.00  0.00    +0.000 A 
ATOM     31  C   UNL     1      10.340  15.278  21.886  0.00  0.00    +0.000 A 
ATOM     32  C   UNL     1       9.893  14.108  21.238  0.00  0.00    +0.000 A 
ATOM     33  C   UNL     1      10.133  13.836  19.870  0.00  0.00    +0.000 A 
BRANCH  28  35
ATOM     34  C   UNL     1      11.892  15.706  17.204  0.00  0.00    +0.000 C 
ATOM     35  O   UNL     1      11.098  14.688  17.822  0.00  0.00    +0.000 OA
ENDBRANCH  28  35
ENDBRANCH  20  33
ENDBRANCH  19  24
ENDBRANCH   1  19
TORSDOF 5
ENDMDL
MODEL 2
REMARK VINA RESULT:      -8.2      0.962      1.675
REMARK  Name = 
REMARK  6 active torsions:
REMARK  status: ('A' for Active; 'I' for Inactive)
REMARK    1  A    between atoms: C_1  and  O_2
REMARK    2  A    between atoms: O_2  and  C_3
REMARK    3  A    between atoms: C_8  and  N_9
REMARK    4  A    between atoms: C_13  and  C_15
REMARK    5  A    between atoms: C_15  and  N_16
REMARK    6  A    between atoms: C_20  and  C_21
REMARK                            x       y       z     vdW  Elec       q    Type
REMARK                         _______ _______ _______ _____ _____    ______ ____
ROOT
ATOM      1  N   UNL     1       6.991   6.243  18.182  0.00  0.00    +0.000 N 
ATOM      2  C   UNL     1       6.406   5.556  19.215  0.00  0.00    +0.000 A 
ATOM      3  O   UNL     1       7.005   5.026  20.141  0.00  0.00    +0.000 OA
ATOM      4  N   UNL     1       5.070   5.425  19.084  0.00  0.00    +0.000 NA
ATOM      5  C   UNL     1       4.613   5.089  17.941  0.00  0.00    +0.000 A 
ATOM      6  C   UNL     1       5.387   5.260  16.682  0.00  0.00    +0.000 A 
ATOM      7  C   UNL     1       4.894   4.815  15.444  0.00  0.00    +0.000 A 
ATOM      8  C   UNL     1       5.784   4.462  14.447  0.00  0.00    +0.000 A 
ATOM      9 CL   UNL     1       5.181   3.710  13.015  0.00  0.00    +0.000 Cl
ATOM     10  C   UNL     1       7.148   4.615  14.681  0.00  0.00    +0.000 A 
ATOM     11  C   UNL     1       7.623   5.265  15.867  0.00  0.00    +0.000 A 
ATOM     12  C   UNL     1       6.726   5.662  16.878  0.00  0.00    +0.000 A 
ENDROOT
BRANCH   5  13
ATOM     13  C   UNL     1       3.596   4.037  18.029  0.00  0.00    +0.000 A 
ATOM     14  C   UNL     1       3.801   2.671  18.062  0.00  0.00    +0.000 A 
ATOM     15  C   UNL     1       2.721   1.844  18.370  0.00  0.00    +0.000 A 
ATOM     16  C   UNL     1       1.451   2.379  18.615  0.00  0.00    +0.000 A 
ATOM     17  C   UNL     1       1.237   3.757  18.556  0.00  0.00    +0.000 A 
ATOM     18  C   UNL     1       2.309   4.575  18.278  0.00  0.00    +0.000 A 
ENDBRANCH   5  13
BRANCH   1  19
ATOM     19  C   UNL     1       8.017   7.142  18.665  0.00  0.00    +0.000 C 
BRANCH  19  24
ATOM     20  N   UNL     1       9.589  12.517  19.403  0.00  0.00    +0.000 N 
ATOM     21  C   UNL     1       8.311  12.348  18.688  0.00  0.00    +0.000 C 
ATOM     22  C   UNL     1       8.353  11.065  17.807  0.00  0.00    +0.000 C 
ATOM     23  N   UNL     1       8.629   9.807  18.570  0.00  0.00    +0.000 N 
ATOM     24  C   UNL     1       8.197   8.607  17.950  0.00  0.00    +0.000 C 
ATOM     25  O   UNL     1       7.740   8.698  16.795  0.00  0.00    +0.000 OA
ATOM     26  C   UNL     1       9.879   9.957  19.341  0.00  0.00    +0.000 C 
ATOM     27  C   UNL     1       9.958  11.299  20.186  0.00  0.00    +0.000 C 
BRANCH  20  33
ATOM     28  C   UNL     1       9.472  14.445  21.070  0.00  0.00    +0.000 A 
ATOM     29  C   UNL     1       9.838  15.787  21.359  0.00  0.00    +0.000 A 
ATOM     30  C   UNL     1      10.710  16.501  20.547  0.00  0.00    +0.000 A 
ATOM     31  C   UNL     1      11.220  15.881  19.422  0.00  0.00    +0.000 A 
ATOM     32  C   UNL     1      10.845  14.559  19.106  0.00  0.00    +0.000 A 
ATOM     33  C   UNL     1       9.956  13.792  19.896  0.00  0.00    +0.000 A 
BRANCH  28  35
ATOM     34  C   UNL     1       8.631  14.191  23.283  0.00  0.00    +0.000 C 
ATOM     35  O   UNL     1       8.629  13.761  21.918  0.00  0.00    +0.000 OA
ENDBRANCH  28  35
ENDBRANCH  20  33
ENDBRANCH  19  24
ENDBRANCH   1  19
TORSDOF 5
ENDMDL
MODEL 3
REMARK VINA RESULT:      -8.1      7.864     11.300
REMARK  Name = 
REMARK  6 active torsions:
REMARK  status: ('A' for Active; 'I' for Inactive)
REMARK    1  A    between atoms: C_1  and  O_2
REMARK    2  A    between atoms: O_2  and  C_3
REMARK    3  A    between atoms: C_8  and  N_9
REMARK    4  A    between atoms: C_13  and  C_15
REMARK    5  A    between atoms: C_15  and  N_16
REMARK    6  A    between atoms: C_20  and  C_21
REMARK                            x       y       z     vdW  Elec       q    Type
REMARK                         _______ _______ _______ _____ _____    ______ ____
ROOT
ATOM      1  N   UNL     1      -1.040  11.766  19.949  0.00  0.00    +0.000 N 
ATOM      2  C   UNL     1      -1.962  11.907  20.954  0.00  0.00    +0.000 A 
ATOM      3  O   UNL     1      -1.916  11.344  22.039  0.00  0.00    +0.000 OA
ATOM      4  N   UNL     1      -3.016  12.676  20.612  0.00  0.00    +0.000 NA
ATOM      5  C   UNL     1      -3.551  12.481  19.470  0.00  0.00    +0.000 A 
ATOM      6  C   UNL     1      -2.842  11.796  18.355  0.00  0.00    +0.000 A 
ATOM      7  C   UNL     1      -3.476  11.526  17.131  0.00  0.00    +0.000 A 
ATOM      8  C   UNL     1      -3.051  10.454  16.369  0.00  0.00    +0.000 A 
ATOM      9 CL   UNL     1      -3.971   9.996  14.983  0.00  0.00    +0.000 Cl
ATOM     10  C   UNL     1      -1.964   9.706  16.813  0.00  0.00    +0.000 A 
ATOM     11  C   UNL     1      -1.200  10.121  17.953  0.00  0.00    +0.000 A 
ATOM     12  C   UNL     1      -1.601  11.233  18.721  0.00  0.00    +0.000 A 
ENDROOT
BRANCH   5  13
ATOM     13  C   UNL     1      -5.014  12.435  19.534  0.00  0.00    +0.000 A 
ATOM     14  C   UNL     1      -5.829  11.332  19.360  0.00  0.00    +0.000 A 
ATOM     15  C   UNL     1      -7.181  11.447  19.679  0.00  0.00    +0.000 A 
ATOM     16  C   UNL     1      -7.712  12.658  20.140  0.00  0.00    +0.000 A 
ATOM     17  C   UNL     1      -6.896  13.780  20.291  0.00  0.00    +0.000 A 
ATOM     18  C   UNL     1      -5.554  13.658  20.001  0.00  0.00    +0.000 A 
ENDBRANCH   5  13
BRANCH   1  19
ATOM     19  C   UNL     1       0.311  11.828  20.464  0.00  0.00    +0.000 C 
BRANCH  19  24
ATOM     20  N   UNL     1       2.245   6.690  19.133  0.00  0.00    +0.000 N 
ATOM     21  C   UNL     1       1.391   6.728  20.334  0.00  0.00    +0.000 C 
ATOM     22  C   UNL     1       1.604   8.065  21.103  0.00  0.00    +0.000 C 
ATOM     23  N   UNL     1       1.319   9.290  20.292  0.00  0.00    +0.000 N 
ATOM     24  C   UNL     1       1.012  10.459  21.034  0.00  0.00    +0.000 C 
ATOM     25  O   UNL     1       1.119  10.389  22.273  0.00  0.00    +0.000 OA
ATOM     26  C   UNL     1       2.121   9.262  19.053  0.00  0.00    +0.000 C 
ATOM     27  C   UNL     1       2.041   7.888  18.263  0.00  0.00    +0.000 C 
BRANCH  20  33
ATOM     28  C   UNL     1       3.662   5.150  17.674  0.00  0.00    +0.000 A 
ATOM     29  C   UNL     1       3.768   3.882  17.040  0.00  0.00    +0.000 A 
ATOM     30  C   UNL     1       2.843   2.871  17.263  0.00  0.00    +0.000 A 
ATOM     31  C   UNL     1       1.786   3.121  18.118  0.00  0.00    +0.000 A 
ATOM     32  C   UNL     1       1.650   4.382  18.733  0.00  0.00    +0.000 A 
ATOM     33  C   UNL     1       2.562   5.447  18.534  0.00  0.00    +0.000 A 
BRANCH  28  35
ATOM     34  C   UNL     1       5.233   6.102  16.159  0.00  0.00    +0.000 C 
ATOM     35  O   UNL     1       4.619   6.116  17.451  0.00  0.00    +0.000 OA
ENDBRANCH  28  35
ENDBRANCH  20  33
ENDBRANCH  19  24
ENDBRANCH   1  19
TORSDOF 5
ENDMDL
MODEL 4
REMARK VINA RESULT:      -7.9      8.758     12.374
REMARK  Name = 
REMARK  6 active torsions:
REMARK  status: ('A' for Active; 'I' for Inactive)
REMARK    1  A    between atoms: C_1  and  O_2
REMARK    2  A    between atoms: O_2  and  C_3
REMARK    3  A    between atoms: C_8  and  N_9
REMARK    4  A    between atoms: C_13  and  C_15
REMARK    5  A    between atoms: C_15  and  N_16
REMARK    6  A    between atoms: C_20  and  C_21
REMARK                            x       y       z     vdW  Elec       q    Type
REMARK                         _______ _______ _______ _____ _____    ______ ____
ROOT
ATOM      1  N   UNL     1      -0.963  12.006  20.239  0.00  0.00    +0.000 N 
ATOM      2  C   UNL     1      -1.827  12.291  19.214  0.00  0.00    +0.000 A 
ATOM      3  O   UNL     1      -1.519  12.827  18.158  0.00  0.00    +0.000 OA
ATOM      4  N   UNL     1      -3.114  12.005  19.500  0.00  0.00    +0.000 NA
ATOM      5  C   UNL     1      -3.562  12.358  20.642  0.00  0.00    +0.000 A 
ATOM      6  C   UNL     1      -2.676  12.652  21.801  0.00  0.00    +0.000 A 
ATOM      7  C   UNL     1      -3.188  13.110  23.026  0.00  0.00    +0.000 A 
ATOM      8  C   UNL     1      -2.391  13.887  23.846  0.00  0.00    +0.000 A 
ATOM      9 CL   UNL     1      -3.093  14.627  25.237  0.00  0.00    +0.000 Cl
ATOM     10  C   UNL     1      -1.079  14.144  23.456  0.00  0.00    +0.000 A 
ATOM     11  C   UNL     1      -0.511  13.498  22.310  0.00  0.00    +0.000 A 
ATOM     12  C   UNL     1      -1.301  12.675  21.483  0.00  0.00    +0.000 A 
ENDROOT
BRANCH   5  13
ATOM     13  C   UNL     1      -4.878  12.998  20.556  0.00  0.00    +0.000 A 
ATOM     14  C   UNL     1      -5.151  14.322  20.269  0.00  0.00    +0.000 A 
ATOM     15  C   UNL     1      -6.473  14.688  20.015  0.00  0.00    +0.000 A 
ATOM     16  C   UNL     1      -7.505  13.745  20.074  0.00  0.00    +0.000 A 
ATOM     17  C   UNL     1      -7.234  12.413  20.390  0.00  0.00    +0.000 A 
ATOM     18  C   UNL     1      -5.926  12.046  20.615  0.00  0.00    +0.000 A 
ENDBRANCH   5  13
BRANCH   1  19
ATOM     19  C   UNL     1       0.264  11.419  19.744  0.00  0.00    +0.000 C 
BRANCH  19  24
ATOM     20  N   UNL     1       2.244   6.142  19.367  0.00  0.00    +0.000 N 
ATOM     21  C   UNL     1       1.340   6.374  20.507  0.00  0.00    +0.000 C 
ATOM     22  C   UNL     1       1.523   7.821  21.052  0.00  0.00    +0.000 C 
ATOM     23  N   UNL     1       1.274   8.894  20.038  0.00  0.00    +0.000 N 
ATOM     24  C   UNL     1       0.938  10.167  20.562  0.00  0.00    +0.000 C 
ATOM     25  O   UNL     1       0.992  10.304  21.799  0.00  0.00    +0.000 OA
ATOM     26  C   UNL     1       2.128   8.665  18.855  0.00  0.00    +0.000 C 
ATOM     27  C   UNL     1       2.080   7.178  18.302  0.00  0.00    +0.000 C 
BRANCH  20  33
ATOM     28  C   UNL     1       3.870   4.321  18.625  0.00  0.00    +0.000 A 
ATOM     29  C   UNL     1       4.025   2.993  18.145  0.00  0.00    +0.000 A 
ATOM     30  C   UNL     1       2.953   2.113  18.061  0.00  0.00    +0.000 A 
ATOM     31  C   UNL     1       1.703   2.559  18.446  0.00  0.00    +0.000 A 
ATOM     32  C   UNL     1       1.527   3.883  18.898  0.00  0.00    +0.000 A 
ATOM     33  C   UNL     1       2.584   4.819  18.996  0.00  0.00    +0.000 A 
BRANCH  28  35
ATOM     34  C   UNL     1       6.195   4.629  18.212  0.00  0.00    +0.000 C 
ATOM     35  O   UNL     1       4.965   5.152  18.723  0.00  0.00    +0.000 OA
ENDBRANCH  28  35
ENDBRANCH  20  33
ENDBRANCH  19  24
ENDBRANCH   1  19
TORSDOF 5
ENDMDL
MODEL 5
REMARK VINA RESULT:      -7.8      9.615     12.623
REMARK  Name = 
REMARK  6 active torsions:
REMARK  status: ('A' for Active; 'I' for Inactive)
REMARK    1  A    between atoms: C_1  and  O_2
REMARK    2  A    between atoms: O_2  and  C_3
REMARK    3  A    between atoms: C_8  and  N_9
REMARK    4  A    between atoms: C_13  and  C_15
REMARK    5  A    between atoms: C_15  and  N_16
REMARK    6  A    between atoms: C_20  and  C_21
REMARK                            x       y       z     vdW  Elec       q    Type
REMARK                         _______ _______ _______ _____ _____    ______ ____
ROOT
ATOM      1  N   UNL     1      -2.069  12.769  20.834  0.00  0.00    +0.000 N 
ATOM      2  C   UNL     1      -2.251  12.732  22.193  0.00  0.00    +0.000 A 
ATOM      3  O   UNL     1      -1.806  11.873  22.943  0.00  0.00    +0.000 OA
ATOM      4  N   UNL     1      -3.063  13.705  22.653  0.00  0.00    +0.000 NA
ATOM      5  C   UNL     1      -4.144  13.931  22.013  0.00  0.00    +0.000 A 
ATOM      6  C   UNL     1      -4.345  13.515  20.598  0.00  0.00    +0.000 A 
ATOM      7  C   UNL     1      -5.569  13.708  19.937  0.00  0.00    +0.000 A 
ATOM      8  C   UNL     1      -5.922  12.861  18.903  0.00  0.00    +0.000 A 
ATOM      9 CL   UNL     1      -7.514  12.963  18.246  0.00  0.00    +0.000 Cl
ATOM     10  C   UNL     1      -5.024  11.873  18.510  0.00  0.00    +0.000 A 
ATOM     11  C   UNL     1      -3.698  11.824  19.054  0.00  0.00    +0.000 A 
ATOM     12  C   UNL     1      -3.311  12.704  20.084  0.00  0.00    +0.000 A 
ENDROOT
BRANCH   5  13
ATOM     13  C   UNL     1      -5.304  14.069  22.898  0.00  0.00    +0.000 A 
ATOM     14  C   UNL     1      -6.015  15.221  23.176  0.00  0.00    +0.000 A 
ATOM     15  C   UNL     1      -7.221  15.107  23.868  0.00  0.00    +0.000 A 
ATOM     16  C   UNL     1      -7.691  13.860  24.296  0.00  0.00    +0.000 A 
ATOM     17  C   UNL     1      -6.960  12.699  24.038  0.00  0.00    +0.000 A 
ATOM     18  C   UNL     1      -5.783  12.808  23.332  0.00  0.00    +0.000 A 
ENDBRANCH   5  13
BRANCH   1  19
ATOM     19  C   UNL     1      -0.694  12.490  20.481  0.00  0.00    +0.000 C 
BRANCH  19  24
ATOM     20  N   UNL     1       2.003   7.736  19.056  0.00  0.00    +0.000 N 
ATOM     21  C   UNL     1       2.168   8.841  18.095  0.00  0.00    +0.000 C 
ATOM     22  C   UNL     1       0.868   9.696  18.032  0.00  0.00    +0.000 C 
ATOM     23  N   UNL     1       0.455  10.281  19.347  0.00  0.00    +0.000 N 
ATOM     24  C   UNL     1      -0.380  11.425  19.274  0.00  0.00    +0.000 C 
ATOM     25  O   UNL     1      -0.781  11.764  18.144  0.00  0.00    +0.000 OA
ATOM     26  C   UNL     1       0.329   9.206  20.350  0.00  0.00    +0.000 C 
ATOM     27  C   UNL     1       1.575   8.222  20.402  0.00  0.00    +0.000 C 
BRANCH  20  33
ATOM     28  C   UNL     1       2.672   5.340  19.624  0.00  0.00    +0.000 A 
ATOM     29  C   UNL     1       3.675   4.337  19.541  0.00  0.00    +0.000 A 
ATOM     30  C   UNL     1       4.829   4.513  18.788  0.00  0.00    +0.000 A 
ATOM     31  C   UNL     1       5.000   5.707  18.114  0.00  0.00    +0.000 A 
ATOM     32  C   UNL     1       4.028   6.724  18.209  0.00  0.00    +0.000 A 
ATOM     33  C   UNL     1       2.840   6.597  18.968  0.00  0.00    +0.000 A 
BRANCH  28  35
ATOM     34  C   UNL     1       1.346   3.778  20.836  0.00  0.00    +0.000 C 
ATOM     35  O   UNL     1       1.528   5.114  20.357  0.00  0.00    +0.000 OA
ENDBRANCH  28  35
ENDBRANCH  20  33
ENDBRANCH  19  24
ENDBRANCH   1  19
TORSDOF 5
ENDMDL
MODEL 6
REMARK VINA RESULT:      -7.8      5.832      7.755
REMARK  Name = 
REMARK  6 active torsions:
REMARK  status: ('A' for Active; 'I' for Inactive)
REMARK    1  A    between atoms: C_1  and  O_2
REMARK    2  A    between atoms: O_2  and  C_3
REMARK    3  A    between atoms: C_8  and  N_9
REMARK    4  A    between atoms: C_13  and  C_15
REMARK    5  A    between atoms: C_15  and  N_16
REMARK    6  A    between atoms: C_20  and  C_21
REMARK                            x       y       z     vdW  Elec       q    Type
REMARK                         _______ _______ _______ _____ _____    ______ ____
ROOT
ATOM      1  N   UNL     1       4.303   4.018  18.473  0.00  0.00    +0.000 N 
ATOM      2  C   UNL     1       4.351   3.113  17.444  0.00  0.00    +0.000 A 
ATOM      3  O   UNL     1       4.511   1.907  17.570  0.00  0.00    +0.000 OA
ATOM      4  N   UNL     1       4.292   3.684  16.224  0.00  0.00    +0.000 NA
ATOM      5  C   UNL     1       5.014   4.715  16.013  0.00  0.00    +0.000 A 
ATOM      6  C   UNL     1       5.554   5.560  17.114  0.00  0.00    +0.000 A 
ATOM      7  C   UNL     1       6.408   6.646  16.862  0.00  0.00    +0.000 A 
ATOM      8  C   UNL     1       7.312   7.037  17.831  0.00  0.00    +0.000 A 
ATOM      9 CL   UNL     1       8.502   8.222  17.435  0.00  0.00    +0.000 Cl
ATOM     10  C   UNL     1       7.310   6.375  19.055  0.00  0.00    +0.000 A 
ATOM     11  C   UNL     1       6.296   5.412  19.370  0.00  0.00    +0.000 A 
ATOM     12  C   UNL     1       5.345   5.027  18.404  0.00  0.00    +0.000 A 
ENDROOT
BRANCH   5  13
ATOM     13  C   UNL     1       5.725   4.653  14.734  0.00  0.00    +0.000 A 
ATOM     14  C   UNL     1       6.990   5.133  14.451  0.00  0.00    +0.000 A 
ATOM     15  C   UNL     1       7.579   4.781  13.236  0.00  0.00    +0.000 A 
ATOM     16  C   UNL     1       6.898   3.981  12.311  0.00  0.00    +0.000 A 
ATOM     17  C   UNL     1       5.610   3.518  12.584  0.00  0.00    +0.000 A 
ATOM     18  C   UNL     1       5.039   3.843  13.795  0.00  0.00    +0.000 A 
ENDBRANCH   5  13
BRANCH   1  19
ATOM     19  C   UNL     1       3.477   3.536  19.559  0.00  0.00    +0.000 C 
BRANCH  19  24
ATOM     20  N   UNL     1       1.360   8.772  19.647  0.00  0.00    +0.000 N 
ATOM     21  C   UNL     1       1.491   8.145  20.974  0.00  0.00    +0.000 C 
ATOM     22  C   UNL     1       1.231   6.613  20.873  0.00  0.00    +0.000 C 
ATOM     23  N   UNL     1       2.147   5.898  19.929  0.00  0.00    +0.000 N 
ATOM     24  C   UNL     1       2.299   4.507  20.159  0.00  0.00    +0.000 C 
ATOM     25  O   UNL     1       1.580   3.995  21.038  0.00  0.00    +0.000 OA
ATOM     26  C   UNL     1       2.081   6.532  18.598  0.00  0.00    +0.000 C 
ATOM     27  C   UNL     1       2.231   8.112  18.627  0.00  0.00    +0.000 C 
BRANCH  20  33
ATOM     28  C   UNL     1       0.078  10.911  20.186  0.00  0.00    +0.000 A 
ATOM     29  C   UNL     1      -0.123  12.284  19.877  0.00  0.00    +0.000 A 
ATOM     30  C   UNL     1       0.697  12.963  18.985  0.00  0.00    +0.000 A 
ATOM     31  C   UNL     1       1.727  12.270  18.378  0.00  0.00    +0.000 A 
ATOM     32  C   UNL     1       1.923  10.901  18.652  0.00  0.00    +0.000 A 
ATOM     33  C   UNL     1       1.113  10.162  19.547  0.00  0.00    +0.000 A 
BRANCH  28  35
ATOM     34  C   UNL     1      -0.603  10.712  22.459  0.00  0.00    +0.000 C 
ATOM     35  O   UNL     1      -0.738  10.282  21.101  0.00  0.00    +0.000 OA
ENDBRANCH  28  35
ENDBRANCH  20  33
ENDBRANCH  19  24
ENDBRANCH   1  19
TORSDOF 5
ENDMDL
MODEL 7
REMARK VINA RESULT:      -7.7      7.915     11.425
REMARK  Name = 
REMARK  6 active torsions:
REMARK  status: ('A' for Active; 'I' for Inactive)
REMARK    1  A    between atoms: C_1  and  O_2
REMARK    2  A    between atoms: O_2  and  C_3
REMARK    3  A    between atoms: C_8  and  N_9
REMARK    4  A    between atoms: C_13  and  C_15
REMARK    5  A    between atoms: C_15  and  N_16
REMARK    6  A    between atoms: C_20  and  C_21
REMARK                            x       y       z     vdW  Elec       q    Type
REMARK                         _______ _______ _______ _____ _____    ______ ____
ROOT
ATOM      1  N   UNL     1       0.171  11.893  19.765  0.00  0.00    +0.000 N 
ATOM      2  C   UNL     1       0.252  11.942  21.134  0.00  0.00    +0.000 A 
ATOM      3  O   UNL     1       0.894  11.170  21.832  0.00  0.00    +0.000 OA
ATOM      4  N   UNL     1      -0.533  12.891  21.684  0.00  0.00    +0.000 NA
ATOM      5  C   UNL     1      -1.729  13.000  21.252  0.00  0.00    +0.000 A 
ATOM      6  C   UNL     1      -2.159  12.471  19.929  0.00  0.00    +0.000 A 
ATOM      7  C   UNL     1      -3.496  12.537  19.505  0.00  0.00    +0.000 A 
ATOM      8  C   UNL     1      -3.971  11.596  18.611  0.00  0.00    +0.000 A 
ATOM      9 CL   UNL     1      -5.662  11.547  18.267  0.00  0.00    +0.000 Cl
ATOM     10  C   UNL     1      -3.089  10.642  18.110  0.00  0.00    +0.000 A 
ATOM     11  C   UNL     1      -1.686  10.719  18.390  0.00  0.00    +0.000 A 
ATOM     12  C   UNL     1      -1.180  11.694  19.273  0.00  0.00    +0.000 A 
ENDROOT
BRANCH   5  13
ATOM     13  C   UNL     1      -2.709  13.127  22.334  0.00  0.00    +0.000 A 
ATOM     14  C   UNL     1      -3.135  12.139  23.202  0.00  0.00    +0.000 A 
ATOM     15  C   UNL     1      -3.906  12.509  24.303  0.00  0.00    +0.000 A 
ATOM     16  C   UNL     1      -4.265  13.845  24.515  0.00  0.00    +0.000 A 
ATOM     17  C   UNL     1      -3.858  14.840  23.624  0.00  0.00    +0.000 A 
ATOM     18  C   UNL     1      -3.074  14.478  22.551  0.00  0.00    +0.000 A 
ENDBRANCH   5  13
BRANCH   1  19
ATOM     19  C   UNL     1       1.473  11.678  19.171  0.00  0.00    +0.000 C 
BRANCH  19  24
ATOM     20  N   UNL     1       2.464   6.143  19.709  0.00  0.00    +0.000 N 
ATOM     21  C   UNL     1       3.371   6.837  18.777  0.00  0.00    +0.000 C 
ATOM     22  C   UNL     1       2.613   7.982  18.042  0.00  0.00    +0.000 C 
ATOM     23  N   UNL     1       2.014   9.005  18.955  0.00  0.00    +0.000 N 
ATOM     24  C   UNL     1       1.766  10.275  18.374  0.00  0.00    +0.000 C 
ATOM     25  O   UNL     1       1.959  10.385  17.149  0.00  0.00    +0.000 OA
ATOM     26  C   UNL     1       1.136   8.339  19.938  0.00  0.00    +0.000 C 
ATOM     27  C   UNL     1       1.802   7.091  20.657  0.00  0.00    +0.000 C 
BRANCH  20  33
ATOM     28  C   UNL     1       3.671   3.901  19.542  0.00  0.00    +0.000 A 
ATOM     29  C   UNL     1       3.770   2.569  20.025  0.00  0.00    +0.000 A 
ATOM     30  C   UNL     1       3.043   2.131  21.124  0.00  0.00    +0.000 A 
ATOM     31  C   UNL     1       2.191   3.022  21.749  0.00  0.00    +0.000 A 
ATOM     32  C   UNL     1       2.059   4.339  21.265  0.00  0.00    +0.000 A 
ATOM     33  C   UNL     1       2.773   4.833  20.146  0.00  0.00    +0.000 A 
BRANCH  28  35
ATOM     34  C   UNL     1       4.233   3.582  17.251  0.00  0.00    +0.000 C 
ATOM     35  O   UNL     1       4.434   4.305  18.468  0.00  0.00    +0.000 OA
ENDBRANCH  28  35
ENDBRANCH  20  33
ENDBRANCH  19  24
ENDBRANCH   1  19
TORSDOF 5
ENDMDL
MODEL 8
REMARK VINA RESULT:      -7.7      7.814     11.286
REMARK  Name = 
REMARK  6 active torsions:
REMARK  status: ('A' for Active; 'I' for Inactive)
REMARK    1  A    between atoms: C_1  and  O_2
REMARK    2  A    between atoms: O_2  and  C_3
REMARK    3  A    between atoms: C_8  and  N_9
REMARK    4  A    between atoms: C_13  and  C_15
REMARK    5  A    between atoms: C_15  and  N_16
REMARK    6  A    between atoms: C_20  and  C_21
REMARK                            x       y       z     vdW  Elec       q    Type
REMARK                         _______ _______ _______ _____ _____    ______ ____
ROOT
ATOM      1  N   UNL     1       0.080  11.794  20.032  0.00  0.00    +0.000 N 
ATOM      2  C   UNL     1       0.015  11.754  21.401  0.00  0.00    +0.000 A 
ATOM      3  O   UNL     1       0.594  10.945  22.113  0.00  0.00    +0.000 OA
ATOM      4  N   UNL     1      -0.842  12.654  21.925  0.00  0.00    +0.000 NA
ATOM      5  C   UNL     1      -1.988  12.776  21.375  0.00  0.00    +0.000 A 
ATOM      6  C   UNL     1      -2.265  12.331  19.982  0.00  0.00    +0.000 A 
ATOM      7  C   UNL     1      -3.551  12.408  19.423  0.00  0.00    +0.000 A 
ATOM      8  C   UNL     1      -3.910  11.523  18.423  0.00  0.00    +0.000 A 
ATOM      9 CL   UNL     1      -5.553  11.475  17.899  0.00  0.00    +0.000 Cl
ATOM     10  C   UNL     1      -2.961  10.616  17.959  0.00  0.00    +0.000 A 
ATOM     11  C   UNL     1      -1.597  10.691  18.392  0.00  0.00    +0.000 A 
ATOM     12  C   UNL     1      -1.207  11.612  19.386  0.00  0.00    +0.000 A 
ENDROOT
BRANCH   5  13
ATOM     13  C   UNL     1      -3.079  12.818  22.352  0.00  0.00    +0.000 A 
ATOM     14  C   UNL     1      -3.171  12.118  23.540  0.00  0.00    +0.000 A 
ATOM     15  C   UNL     1      -4.182  12.461  24.437  0.00  0.00    +0.000 A 
ATOM     16  C   UNL     1      -5.102  13.472  24.134  0.00  0.00    +0.000 A 
ATOM     17  C   UNL     1      -5.027  14.161  22.923  0.00  0.00    +0.000 A 
ATOM     18  C   UNL     1      -4.012  13.841  22.048  0.00  0.00    +0.000 A 
ENDBRANCH   5  13
BRANCH   1  19
ATOM     19  C   UNL     1       1.442  11.637  19.567  0.00  0.00    +0.000 C 
BRANCH  19  24
ATOM     20  N   UNL     1       2.646   6.163  18.863  0.00  0.00    +0.000 N 
ATOM     21  C   UNL     1       3.520   7.081  18.111  0.00  0.00    +0.000 C 
ATOM     22  C   UNL     1       2.715   8.330  17.647  0.00  0.00    +0.000 C 
ATOM     23  N   UNL     1       2.082   9.101  18.764  0.00  0.00    +0.000 N 
ATOM     24  C   UNL     1       1.783  10.458  18.479  0.00  0.00    +0.000 C 
ATOM     25  O   UNL     1       1.964  10.846  17.310  0.00  0.00    +0.000 OA
ATOM     26  C   UNL     1       1.237   8.200  19.572  0.00  0.00    +0.000 C 
ATOM     27  C   UNL     1       1.955   6.850  19.996  0.00  0.00    +0.000 C 
BRANCH  20  33
ATOM     28  C   UNL     1       4.304   4.265  19.259  0.00  0.00    +0.000 A 
ATOM     29  C   UNL     1       4.531   2.862  19.232  0.00  0.00    +0.000 A 
ATOM     30  C   UNL     1       3.503   1.957  18.999  0.00  0.00    +0.000 A 
ATOM     31  C   UNL     1       2.230   2.448  18.778  0.00  0.00    +0.000 A 
ATOM     32  C   UNL     1       1.994   3.838  18.774  0.00  0.00    +0.000 A 
ATOM     33  C   UNL     1       3.007   4.801  18.998  0.00  0.00    +0.000 A 
BRANCH  28  35
ATOM     34  C   UNL     1       6.483   5.018  18.665  0.00  0.00    +0.000 C 
ATOM     35  O   UNL     1       5.345   5.128  19.525  0.00  0.00    +0.000 OA
ENDBRANCH  28  35
ENDBRANCH  20  33
ENDBRANCH  19  24
ENDBRANCH   1  19
TORSDOF 5
ENDMDL
MODEL 9
REMARK VINA RESULT:      -7.6      8.038     11.538
REMARK  Name = 
REMARK  6 active torsions:
REMARK  status: ('A' for Active; 'I' for Inactive)
REMARK    1  A    between atoms: C_1  and  O_2
REMARK    2  A    between atoms: O_2  and  C_3
REMARK    3  A    between atoms: C_8  and  N_9
REMARK    4  A    between atoms: C_13  and  C_15
REMARK    5  A    between atoms: C_15  and  N_16
REMARK    6  A    between atoms: C_20  and  C_21
REMARK                            x       y       z     vdW  Elec       q    Type
REMARK                         _______ _______ _______ _____ _____    ______ ____
ROOT
ATOM      1  N   UNL     1      -1.209  11.893  19.993  0.00  0.00    +0.000 N 
ATOM      2  C   UNL     1      -2.151  12.032  20.980  0.00  0.00    +0.000 A 
ATOM      3  O   UNL     1      -2.110  11.491  22.077  0.00  0.00    +0.000 OA
ATOM      4  N   UNL     1      -3.216  12.769  20.607  0.00  0.00    +0.000 NA
ATOM      5  C   UNL     1      -3.728  12.539  19.460  0.00  0.00    +0.000 A 
ATOM      6  C   UNL     1      -2.986  11.849  18.370  0.00  0.00    +0.000 A 
ATOM      7  C   UNL     1      -3.593  11.541  17.142  0.00  0.00    +0.000 A 
ATOM      8  C   UNL     1      -3.130  10.464  16.408  0.00  0.00    +0.000 A 
ATOM      9 CL   UNL     1      -4.017   9.957  15.017  0.00  0.00    +0.000 Cl
ATOM     10  C   UNL     1      -2.034   9.750  16.885  0.00  0.00    +0.000 A 
ATOM     11  C   UNL     1      -1.299  10.205  18.028  0.00  0.00    +0.000 A 
ATOM     12  C   UNL     1      -1.738  11.323  18.767  0.00  0.00    +0.000 A 
ENDROOT
BRANCH   5  13
ATOM     13  C   UNL     1      -5.190  12.460  19.502  0.00  0.00    +0.000 A 
ATOM     14  C   UNL     1      -5.965  11.342  19.750  0.00  0.00    +0.000 A 
ATOM     15  C   UNL     1      -7.332  11.515  19.967  0.00  0.00    +0.000 A 
ATOM     16  C   UNL     1      -7.915  12.786  19.909  0.00  0.00    +0.000 A 
ATOM     17  C   UNL     1      -7.139  13.912  19.632  0.00  0.00    +0.000 A 
ATOM     18  C   UNL     1      -5.784  13.745  19.445  0.00  0.00    +0.000 A 
ENDBRANCH   5  13
BRANCH   1  19
ATOM     19  C   UNL     1       0.131  11.997  20.528  0.00  0.00    +0.000 C 
BRANCH  19  24
ATOM     20  N   UNL     1       2.388   7.044  19.016  0.00  0.00    +0.000 N 
ATOM     21  C   UNL     1       1.495   6.975  20.187  0.00  0.00    +0.000 C 
ATOM     22  C   UNL     1       1.609   8.281  21.027  0.00  0.00    +0.000 C 
ATOM     23  N   UNL     1       1.283   9.529  20.267  0.00  0.00    +0.000 N 
ATOM     24  C   UNL     1       0.888  10.640  21.054  0.00  0.00    +0.000 C 
ATOM     25  O   UNL     1       0.959  10.513  22.291  0.00  0.00    +0.000 OA
ATOM     26  C   UNL     1       2.125   9.607  19.057  0.00  0.00    +0.000 C 
ATOM     27  C   UNL     1       2.146   8.272  18.199  0.00  0.00    +0.000 C 
BRANCH  20  33
ATOM     28  C   UNL     1       2.250   4.542  18.538  0.00  0.00    +0.000 A 
ATOM     29  C   UNL     1       2.857   3.418  17.914  0.00  0.00    +0.000 A 
ATOM     30  C   UNL     1       3.963   3.548  17.083  0.00  0.00    +0.000 A 
ATOM     31  C   UNL     1       4.486   4.809  16.875  0.00  0.00    +0.000 A 
ATOM     32  C   UNL     1       3.914   5.931  17.509  0.00  0.00    +0.000 A 
ATOM     33  C   UNL     1       2.792   5.852  18.369  0.00  0.00    +0.000 A 
BRANCH  28  35
ATOM     34  C   UNL     1       1.020   3.109  19.988  0.00  0.00    +0.000 C 
ATOM     35  O   UNL     1       1.135   4.374  19.329  0.00  0.00    +0.000 OA
ENDBRANCH  28  35
ENDBRANCH  20  33
ENDBRANCH  19  24
ENDBRANCH   1  19
TORSDOF 5
ENDMDL
