MODEL 1
REMARK VINA RESULT:      -8.8      0.000      0.000
REMARK  Name = 
REMARK  9 active torsions:
REMARK  status: ('A' for Active; 'I' for Inactive)
REMARK    1  A    between atoms: C_1  and  N_2
REMARK    2  A    between atoms: N_2  and  C_3
REMARK    3  A    between atoms: C_3  and  C_4
REMARK    4  A    between atoms: C_10  and  C_12
REMARK    5  A    between atoms: C_12  and  C_13
REMARK    6  A    between atoms: C_13  and  C_14
REMARK    7  A    between atoms: C_14  and  C_15
REMARK    8  A    between atoms: N_26  and  C_27
REMARK    9  A    between atoms: C_27  and  C_28
REMARK                            x       y       z     vdW  Elec       q    Type
REMARK                         _______ _______ _______ _____ _____    ______ ____
ROOT
ATOM      1  C   UNL     1       3.160   5.742  17.758  0.00  0.00    +0.000 C 
ATOM      2  C   UNL     1       3.410   5.363  19.265  0.00  0.00    +0.000 C 
ATOM      3  C   UNL     1       2.476   6.078  20.284  0.00  0.00    +0.000 C 
ATOM      4  C   UNL     1       1.428   5.224  20.996  0.00  0.00    +0.000 C 
ATOM      5  C   UNL     1       2.006   3.905  21.453  0.00  0.00    +0.000 C 
ATOM      6  N   UNL     1       2.479   3.138  20.320  0.00  0.00    +0.000 NA
ATOM      7  C   UNL     1       1.420   2.594  19.475  0.00  0.00    +0.000 C 
ATOM      8  C   UNL     1       1.965   1.419  18.657  0.00  0.00    +0.000 C 
ATOM      9  C   UNL     1       3.483   1.477  18.501  0.00  0.00    +0.000 C 
ATOM     10  C   UNL     1       3.974   2.927  18.360  0.00  0.00    +0.000 C 
ATOM     11  C   UNL     1       3.516   3.491  17.016  0.00  0.00    +0.000 C 
ATOM     12  N   UNL     1       3.951   4.875  16.823  0.00  0.00    +0.000 NA
ATOM     13  C   UNL     1       3.552   3.812  19.565  0.00  0.00    +0.000 C 
ENDROOT
BRANCH   1  14
ATOM     14  C   UNL     1       3.396   7.227  17.320  0.00  0.00    +0.000 C 
BRANCH  14  15
ATOM     15  C   UNL     1       2.914   8.418  18.176  0.00  0.00    +0.000 C 
BRANCH  15  16
ATOM     16  C   UNL     1       1.577   9.070  17.781  0.00  0.00    +0.000 C 
BRANCH  16  19
ATOM     17  C   UNL     1       0.306  12.515  18.948  0.00  0.00    +0.000 C 
ATOM     18  N   UNL     1       0.327  11.101  18.593  0.00  0.00    +0.000 N 
ATOM     19  C   UNL     1       1.537  10.562  18.156  0.00  0.00    +0.000 C 
ATOM     20  O   UNL     1       2.540  11.271  18.051  0.00  0.00    +0.000 OA
BRANCH  18  21
ATOM     21  C   UNL     1      -0.870  10.315  18.887  0.00  0.00    +0.000 C 
BRANCH  21  22
ATOM     22  C   UNL     1      -2.012  10.524  17.926  0.00  0.00    +0.000 A 
ATOM     23  C   UNL     1      -2.095   9.923  16.667  0.00  0.00    +0.000 A 
ATOM     24  C   UNL     1      -3.192  10.171  15.846  0.00  0.00    +0.000 A 
ATOM     25  C   UNL     1      -4.190  11.005  16.319  0.00  0.00    +0.000 A 
ATOM     26  N   UNL     1      -4.163  11.586  17.536  0.00  0.00    +0.000 NA
ATOM     27  C   UNL     1      -3.086  11.325  18.311  0.00  0.00    +0.000 A 
ENDBRANCH  21  22
ENDBRANCH  18  21
ENDBRANCH  16  19
ENDBRANCH  15  16
ENDBRANCH  14  15
ENDBRANCH   1  14
BRANCH  12  28
ATOM     28  C   UNL     1       5.433   5.001  16.845  0.00  0.00    +0.000 C 
BRANCH  28  29
ATOM     29  C   UNL     1       6.073   4.879  15.468  0.00  0.00    +0.000 A 
ATOM     30  C   UNL     1       5.542   4.035  14.487  0.00  0.00    +0.000 A 
ATOM     31  C   UNL     1       6.176   3.896  13.252  0.00  0.00    +0.000 A 
ATOM     32  C   UNL     1       7.338   4.617  13.028  0.00  0.00    +0.000 A 
ATOM     33  N   UNL     1       7.883   5.455  13.932  0.00  0.00    +0.000 NA
ATOM     34  C   UNL     1       7.241   5.566  15.125  0.00  0.00    +0.000 A 
ENDBRANCH  28  29
ENDBRANCH  12  28
TORSDOF 8
ENDMDL
MODEL 2
REMARK VINA RESULT:      -8.6      1.685      2.551
REMARK  Name = 
REMARK  9 active torsions:
REMARK  status: ('A' for Active; 'I' for Inactive)
REMARK    1  A    between atoms: C_1  and  N_2
REMARK    2  A    between atoms: N_2  and  C_3
REMARK    3  A    between atoms: C_3  and  C_4
REMARK    4  A    between atoms: C_10  and  C_12
REMARK    5  A    between atoms: C_12  and  C_13
REMARK    6  A    between atoms: C_13  and  C_14
REMARK    7  A    between atoms: C_14  and  C_15
REMARK    8  A    between atoms: N_26  and  C_27
REMARK    9  A    between atoms: C_27  and  C_28
REMARK                            x       y       z     vdW  Elec       q    Type
REMARK                         _______ _______ _______ _____ _____    ______ ____
ROOT
ATOM      1  C   UNL     1       2.945   5.887  18.104  0.00  0.00    +0.000 C 
ATOM      2  C   UNL     1       3.244   5.327  19.544  0.00  0.00    +0.000 C 
ATOM      3  C   UNL     1       2.256   5.802  20.649  0.00  0.00    +0.000 C 
ATOM      4  C   UNL     1       1.299   4.763  21.231  0.00  0.00    +0.000 C 
ATOM      5  C   UNL     1       2.002   3.454  21.503  0.00  0.00    +0.000 C 
ATOM      6  N   UNL     1       2.534   2.900  20.276  0.00  0.00    +0.000 NA
ATOM      7  C   UNL     1       1.524   2.381  19.359  0.00  0.00    +0.000 C 
ATOM      8  C   UNL     1       2.168   1.387  18.388  0.00  0.00    +0.000 C 
ATOM      9  C   UNL     1       3.673   1.609  18.248  0.00  0.00    +0.000 C 
ATOM     10  C   UNL     1       4.024   3.104  18.311  0.00  0.00    +0.000 C 
ATOM     11  C   UNL     1       3.504   3.804  17.057  0.00  0.00    +0.000 C 
ATOM     12  N   UNL     1       3.805   5.235  17.061  0.00  0.00    +0.000 NA
ATOM     13  C   UNL     1       3.533   3.770  19.626  0.00  0.00    +0.000 C 
ENDROOT
BRANCH   1  14
ATOM     14  C   UNL     1       3.038   7.434  17.877  0.00  0.00    +0.000 C 
BRANCH  14  15
ATOM     15  C   UNL     1       2.085   8.421  18.585  0.00  0.00    +0.000 C 
BRANCH  15  16
ATOM     16  C   UNL     1       1.344   9.438  17.698  0.00  0.00    +0.000 C 
BRANCH  16  19
ATOM     17  C   UNL     1       1.033  12.996  19.145  0.00  0.00    +0.000 C 
ATOM     18  N   UNL     1       0.703  11.625  18.773  0.00  0.00    +0.000 N 
ATOM     19  C   UNL     1       1.674  10.888  18.094  0.00  0.00    +0.000 C 
ATOM     20  O   UNL     1       2.758  11.397  17.799  0.00  0.00    +0.000 OA
BRANCH  18  21
ATOM     21  C   UNL     1      -0.545  11.068  19.291  0.00  0.00    +0.000 C 
BRANCH  21  22
ATOM     22  C   UNL     1      -0.455  10.518  20.691  0.00  0.00    +0.000 A 
ATOM     23  C   UNL     1      -0.150   9.187  20.991  0.00  0.00    +0.000 A 
ATOM     24  C   UNL     1      -0.084   8.768  22.318  0.00  0.00    +0.000 A 
ATOM     25  C   UNL     1      -0.309   9.703  23.313  0.00  0.00    +0.000 A 
ATOM     26  N   UNL     1      -0.581  11.002  23.070  0.00  0.00    +0.000 NA
ATOM     27  C   UNL     1      -0.637  11.379  21.773  0.00  0.00    +0.000 A 
ENDBRANCH  21  22
ENDBRANCH  18  21
ENDBRANCH  16  19
ENDBRANCH  15  16
ENDBRANCH  14  15
ENDBRANCH   1  14
BRANCH  12  28
ATOM     28  C   UNL     1       5.269   5.496  17.106  0.00  0.00    +0.000 C 
BRANCH  28  29
ATOM     29  C   UNL     1       5.976   5.222  15.784  0.00  0.00    +0.000 A 
ATOM     30  C   UNL     1       5.412   4.387  14.813  0.00  0.00    +0.000 A 
ATOM     31  C   UNL     1       6.102   4.104  13.634  0.00  0.00    +0.000 A 
ATOM     32  C   UNL     1       7.352   4.674  13.455  0.00  0.00    +0.000 A 
ATOM     33  N   UNL     1       7.934   5.497  14.350  0.00  0.00    +0.000 NA
ATOM     34  C   UNL     1       7.236   5.750  15.488  0.00  0.00    +0.000 A 
ENDBRANCH  28  29
ENDBRANCH  12  28
TORSDOF 8
ENDMDL
MODEL 3
REMARK VINA RESULT:      -8.4      2.801      8.000
REMARK  Name = 
REMARK  9 active torsions:
REMARK  status: ('A' for Active; 'I' for Inactive)
REMARK    1  A    between atoms: C_1  and  N_2
REMARK    2  A    between atoms: N_2  and  C_3
REMARK    3  A    between atoms: C_3  and  C_4
REMARK    4  A    between atoms: C_10  and  C_12
REMARK    5  A    between atoms: C_12  and  C_13
REMARK    6  A    between atoms: C_13  and  C_14
REMARK    7  A    between atoms: C_14  and  C_15
REMARK    8  A    between atoms: N_26  and  C_27
REMARK    9  A    between atoms: C_27  and  C_28
REMARK                            x       y       z     vdW  Elec       q    Type
REMARK                         _______ _______ _______ _____ _____    ______ ____
ROOT
ATOM      1  C   UNL     1       2.635   5.948  18.814  0.00  0.00    +0.000 C 
ATOM      2  C   UNL     1       1.794   4.724  18.295  0.00  0.00    +0.000 C 
ATOM      3  C   UNL     1       2.329   4.069  16.989  0.00  0.00    +0.000 C 
ATOM      4  C   UNL     1       2.941   2.673  17.102  0.00  0.00    +0.000 C 
ATOM      5  C   UNL     1       2.113   1.776  17.991  0.00  0.00    +0.000 C 
ATOM      6  N   UNL     1       2.041   2.316  19.332  0.00  0.00    +0.000 NA
ATOM      7  C   UNL     1       3.287   2.228  20.086  0.00  0.00    +0.000 C 
ATOM      8  C   UNL     1       2.992   2.326  21.586  0.00  0.00    +0.000 C 
ATOM      9  C   UNL     1       1.661   3.020  21.869  0.00  0.00    +0.000 C 
ATOM     10  C   UNL     1       1.398   4.152  20.862  0.00  0.00    +0.000 C 
ATOM     11  C   UNL     1       2.385   5.292  21.106  0.00  0.00    +0.000 C 
ATOM     12  N   UNL     1       2.186   6.401  20.173  0.00  0.00    +0.000 NA
ATOM     13  C   UNL     1       1.405   3.647  19.393  0.00  0.00    +0.000 C 
ENDROOT
BRANCH   1  14
ATOM     14  C   UNL     1       2.723   7.224  17.909  0.00  0.00    +0.000 C 
BRANCH  14  15
ATOM     15  C   UNL     1       4.070   7.752  17.371  0.00  0.00    +0.000 C 
BRANCH  15  16
ATOM     16  C   UNL     1       4.869   6.819  16.444  0.00  0.00    +0.000 C 
BRANCH  16  19
ATOM     17  C   UNL     1       7.714   4.473  17.562  0.00  0.00    +0.000 C 
ATOM     18  N   UNL     1       6.503   4.958  16.912  0.00  0.00    +0.000 N 
ATOM     19  C   UNL     1       6.142   6.289  17.126  0.00  0.00    +0.000 C 
ATOM     20  O   UNL     1       6.816   7.012  17.864  0.00  0.00    +0.000 OA
BRANCH  18  21
ATOM     21  C   UNL     1       5.855   4.072  15.946  0.00  0.00    +0.000 C 
BRANCH  21  22
ATOM     22  C   UNL     1       6.351   4.214  14.530  0.00  0.00    +0.000 A 
ATOM     23  C   UNL     1       5.849   3.485  13.448  0.00  0.00    +0.000 A 
ATOM     24  C   UNL     1       6.366   3.687  12.171  0.00  0.00    +0.000 A 
ATOM     25  C   UNL     1       7.365   4.631  12.009  0.00  0.00    +0.000 A 
ATOM     26  N   UNL     1       7.861   5.374  13.020  0.00  0.00    +0.000 NA
ATOM     27  C   UNL     1       7.338   5.157  14.248  0.00  0.00    +0.000 A 
ENDBRANCH  21  22
ENDBRANCH  18  21
ENDBRANCH  16  19
ENDBRANCH  15  16
ENDBRANCH  14  15
ENDBRANCH   1  14
BRANCH  12  28
ATOM     28  C   UNL     1       0.827   6.994  20.293  0.00  0.00    +0.000 C 
BRANCH  28  29
ATOM     29  C   UNL     1       0.840   8.481  20.624  0.00  0.00    +0.000 A 
ATOM     30  C   UNL     1       0.738   9.454  19.624  0.00  0.00    +0.000 A 
ATOM     31  C   UNL     1       0.808  10.810  19.944  0.00  0.00    +0.000 A 
ATOM     32  C   UNL     1       0.978  11.161  21.274  0.00  0.00    +0.000 A 
ATOM     33  N   UNL     1       1.067  10.265  22.277  0.00  0.00    +0.000 NA
ATOM     34  C   UNL     1       0.996   8.953  21.930  0.00  0.00    +0.000 A 
ENDBRANCH  28  29
ENDBRANCH  12  28
TORSDOF 8
ENDMDL
MODEL 4
REMARK VINA RESULT:      -8.3      1.871      2.808
REMARK  Name = 
REMARK  9 active torsions:
REMARK  status: ('A' for Active; 'I' for Inactive)
REMARK    1  A    between atoms: C_1  and  N_2
REMARK    2  A    between atoms: N_2  and  C_3
REMARK    3  A    between atoms: C_3  and  C_4
REMARK    4  A    between atoms: C_10  and  C_12
REMARK    5  A    between atoms: C_12  and  C_13
REMARK    6  A    between atoms: C_13  and  C_14
REMARK    7  A    between atoms: C_14  and  C_15
REMARK    8  A    between atoms: N_26  and  C_27
REMARK    9  A    between atoms: C_27  and  C_28
REMARK                            x       y       z     vdW  Elec       q    Type
REMARK                         _______ _______ _______ _____ _____    ______ ____
ROOT
ATOM      1  C   UNL     1       2.546   6.008  18.813  0.00  0.00    +0.000 C 
ATOM      2  C   UNL     1       3.046   5.137  20.024  0.00  0.00    +0.000 C 
ATOM      3  C   UNL     1       2.093   5.116  21.254  0.00  0.00    +0.000 C 
ATOM      4  C   UNL     1       1.360   3.810  21.554  0.00  0.00    +0.000 C 
ATOM      5  C   UNL     1       2.276   2.617  21.418  0.00  0.00    +0.000 C 
ATOM      6  N   UNL     1       2.782   2.517  20.065  0.00  0.00    +0.000 NA
ATOM      7  C   UNL     1       1.790   2.104  19.078  0.00  0.00    +0.000 C 
ATOM      8  C   UNL     1       2.496   1.538  17.841  0.00  0.00    +0.000 C 
ATOM      9  C   UNL     1       3.931   2.043  17.713  0.00  0.00    +0.000 C 
ATOM     10  C   UNL     1       4.053   3.501  18.184  0.00  0.00    +0.000 C 
ATOM     11  C   UNL     1       3.327   4.417  17.199  0.00  0.00    +0.000 C 
ATOM     12  N   UNL     1       3.405   5.823  17.596  0.00  0.00    +0.000 NA
ATOM     13  C   UNL     1       3.577   3.689  19.651  0.00  0.00    +0.000 C 
ENDROOT
BRANCH   1  14
ATOM     14  C   UNL     1       2.380   7.551  19.029  0.00  0.00    +0.000 C 
BRANCH  14  15
ATOM     15  C   UNL     1       2.285   8.535  17.844  0.00  0.00    +0.000 C 
BRANCH  15  16
ATOM     16  C   UNL     1       1.091   9.507  17.834  0.00  0.00    +0.000 C 
BRANCH  16  19
ATOM     17  C   UNL     1       1.012  13.129  19.145  0.00  0.00    +0.000 C 
ATOM     18  N   UNL     1       0.589  11.774  18.813  0.00  0.00    +0.000 N 
ATOM     19  C   UNL     1       1.519  10.941  18.189  0.00  0.00    +0.000 C 
ATOM     20  O   UNL     1       2.646  11.357  17.908  0.00  0.00    +0.000 OA
BRANCH  18  21
ATOM     21  C   UNL     1      -0.711  11.332  19.313  0.00  0.00    +0.000 C 
BRANCH  21  22
ATOM     22  C   UNL     1      -0.711  10.878  20.750  0.00  0.00    +0.000 A 
ATOM     23  C   UNL     1      -1.233  11.628  21.808  0.00  0.00    +0.000 A 
ATOM     24  C   UNL     1      -1.193  11.125  23.106  0.00  0.00    +0.000 A 
ATOM     25  C   UNL     1      -0.645   9.870  23.307  0.00  0.00    +0.000 A 
ATOM     26  N   UNL     1      -0.154   9.102  22.313  0.00  0.00    +0.000 NA
ATOM     27  C   UNL     1      -0.208   9.616  21.064  0.00  0.00    +0.000 A 
ENDBRANCH  21  22
ENDBRANCH  18  21
ENDBRANCH  16  19
ENDBRANCH  15  16
ENDBRANCH  14  15
ENDBRANCH   1  14
BRANCH  12  28
ATOM     28  C   UNL     1       4.810   6.308  17.658  0.00  0.00    +0.000 C 
BRANCH  28  29
ATOM     29  C   UNL     1       5.699   5.737  16.560  0.00  0.00    +0.000 A 
ATOM     30  C   UNL     1       5.305   5.753  15.218  0.00  0.00    +0.000 A 
ATOM     31  C   UNL     1       6.109   5.175  14.236  0.00  0.00    +0.000 A 
ATOM     32  C   UNL     1       7.302   4.591  14.628  0.00  0.00    +0.000 A 
ATOM     33  N   UNL     1       7.736   4.561  15.904  0.00  0.00    +0.000 NA
ATOM     34  C   UNL     1       6.928   5.132  16.835  0.00  0.00    +0.000 A 
ENDBRANCH  28  29
ENDBRANCH  12  28
TORSDOF 8
ENDMDL
MODEL 5
REMARK VINA RESULT:      -8.2      1.716      2.473
REMARK  Name = 
REMARK  9 active torsions:
REMARK  status: ('A' for Active; 'I' for Inactive)
REMARK    1  A    between atoms: C_1  and  N_2
REMARK    2  A    between atoms: N_2  and  C_3
REMARK    3  A    between atoms: C_3  and  C_4
REMARK    4  A    between atoms: C_10  and  C_12
REMARK    5  A    between atoms: C_12  and  C_13
REMARK    6  A    between atoms: C_13  and  C_14
REMARK    7  A    between atoms: C_14  and  C_15
REMARK    8  A    between atoms: N_26  and  C_27
REMARK    9  A    between atoms: C_27  and  C_28
REMARK                            x       y       z     vdW  Elec       q    Type
REMARK                         _______ _______ _______ _____ _____    ______ ____
ROOT
ATOM      1  C   UNL     1       3.410   5.687  17.888  0.00  0.00    +0.000 C 
ATOM      2  C   UNL     1       3.604   5.216  19.377  0.00  0.00    +0.000 C 
ATOM      3  C   UNL     1       2.766   6.002  20.426  0.00  0.00    +0.000 C 
ATOM      4  C   UNL     1       1.614   5.262  21.104  0.00  0.00    +0.000 C 
ATOM      5  C   UNL     1       2.015   3.862  21.505  0.00  0.00    +0.000 C 
ATOM      6  N   UNL     1       2.388   3.088  20.340  0.00  0.00    +0.000 NA
ATOM      7  C   UNL     1       1.271   2.721  19.475  0.00  0.00    +0.000 C 
ATOM      8  C   UNL     1       1.662   1.520  18.607  0.00  0.00    +0.000 C 
ATOM      9  C   UNL     1       3.176   1.388  18.451  0.00  0.00    +0.000 C 
ATOM     10  C   UNL     1       3.850   2.767  18.369  0.00  0.00    +0.000 C 
ATOM     11  C   UNL     1       3.474   3.441  17.051  0.00  0.00    +0.000 C 
ATOM     12  N   UNL     1       4.085   4.764  16.916  0.00  0.00    +0.000 NA
ATOM     13  C   UNL     1       3.543   3.648  19.611  0.00  0.00    +0.000 C 
ENDROOT
BRANCH   1  14
ATOM     14  C   UNL     1       3.838   7.146  17.511  0.00  0.00    +0.000 C 
BRANCH  14  15
ATOM     15  C   UNL     1       2.800   8.249  17.214  0.00  0.00    +0.000 C 
BRANCH  15  16
ATOM     16  C   UNL     1       2.017   8.816  18.411  0.00  0.00    +0.000 C 
BRANCH  16  19
ATOM     17  C   UNL     1       0.463  12.334  18.642  0.00  0.00    +0.000 C 
ATOM     18  N   UNL     1       0.626  10.890  18.752  0.00  0.00    +0.000 N 
ATOM     19  C   UNL     1       1.825  10.339  18.300  0.00  0.00    +0.000 C 
ATOM     20  O   UNL     1       2.698  11.054  17.801  0.00  0.00    +0.000 OA
BRANCH  18  21
ATOM     21  C   UNL     1      -0.399  10.149  19.485  0.00  0.00    +0.000 C 
BRANCH  21  22
ATOM     22  C   UNL     1      -0.796  10.763  20.803  0.00  0.00    +0.000 A 
ATOM     23  C   UNL     1      -1.749  11.777  20.939  0.00  0.00    +0.000 A 
ATOM     24  C   UNL     1      -2.056  12.281  22.200  0.00  0.00    +0.000 A 
ATOM     25  C   UNL     1      -1.410  11.741  23.298  0.00  0.00    +0.000 A 
ATOM     26  N   UNL     1      -0.504  10.744  23.216  0.00  0.00    +0.000 NA
ATOM     27  C   UNL     1      -0.228  10.275  21.978  0.00  0.00    +0.000 A 
ENDBRANCH  21  22
ENDBRANCH  18  21
ENDBRANCH  16  19
ENDBRANCH  15  16
ENDBRANCH  14  15
ENDBRANCH   1  14
BRANCH  12  28
ATOM     28  C   UNL     1       5.571   4.696  16.940  0.00  0.00    +0.000 C 
BRANCH  28  29
ATOM     29  C   UNL     1       6.202   4.706  15.553  0.00  0.00    +0.000 A 
ATOM     30  C   UNL     1       5.740   3.867  14.534  0.00  0.00    +0.000 A 
ATOM     31  C   UNL     1       6.367   3.852  13.288  0.00  0.00    +0.000 A 
ATOM     32  C   UNL     1       7.454   4.689  13.093  0.00  0.00    +0.000 A 
ATOM     33  N   UNL     1       7.930   5.527  14.035  0.00  0.00    +0.000 NA
ATOM     34  C   UNL     1       7.296   5.516  15.237  0.00  0.00    +0.000 A 
ENDBRANCH  28  29
ENDBRANCH  12  28
TORSDOF 8
ENDMDL
MODEL 6
REMARK VINA RESULT:      -8.1      2.050      3.070
REMARK  Name = 
REMARK  9 active torsions:
REMARK  status: ('A' for Active; 'I' for Inactive)
REMARK    1  A    between atoms: C_1  and  N_2
REMARK    2  A    between atoms: N_2  and  C_3
REMARK    3  A    between atoms: C_3  and  C_4
REMARK    4  A    between atoms: C_10  and  C_12
REMARK    5  A    between atoms: C_12  and  C_13
REMARK    6  A    between atoms: C_13  and  C_14
REMARK    7  A    between atoms: C_14  and  C_15
REMARK    8  A    between atoms: N_26  and  C_27
REMARK    9  A    between atoms: C_27  and  C_28
REMARK                            x       y       z     vdW  Elec       q    Type
REMARK                         _______ _______ _______ _____ _____    ______ ____
ROOT
ATOM      1  C   UNL     1       2.505   6.118  18.533  0.00  0.00    +0.000 C 
ATOM      2  C   UNL     1       2.969   5.368  19.836  0.00  0.00    +0.000 C 
ATOM      3  C   UNL     1       1.966   5.438  21.025  0.00  0.00    +0.000 C 
ATOM      4  C   UNL     1       1.242   4.150  21.411  0.00  0.00    +0.000 C 
ATOM      5  C   UNL     1       2.182   2.967  21.419  0.00  0.00    +0.000 C 
ATOM      6  N   UNL     1       2.745   2.758  20.102  0.00  0.00    +0.000 NA
ATOM      7  C   UNL     1       1.801   2.239  19.117  0.00  0.00    +0.000 C 
ATOM      8  C   UNL     1       2.566   1.579  17.965  0.00  0.00    +0.000 C 
ATOM      9  C   UNL     1       3.997   2.099  17.849  0.00  0.00    +0.000 C 
ATOM     10  C   UNL     1       4.077   3.595  18.192  0.00  0.00    +0.000 C 
ATOM     11  C   UNL     1       3.378   4.406  17.101  0.00  0.00    +0.000 C 
ATOM     12  N   UNL     1       3.416   5.842  17.373  0.00  0.00    +0.000 NA
ATOM     13  C   UNL     1       3.538   3.903  19.616  0.00  0.00    +0.000 C 
ENDROOT
BRANCH   1  14
ATOM     14  C   UNL     1       2.306   7.670  18.604  0.00  0.00    +0.000 C 
BRANCH  14  15
ATOM     15  C   UNL     1       1.313   8.409  17.680  0.00  0.00    +0.000 C 
BRANCH  15  16
ATOM     16  C   UNL     1       0.999   9.877  18.019  0.00  0.00    +0.000 C 
BRANCH  16  19
ATOM     17  C   UNL     1      -2.528  11.261  18.718  0.00  0.00    +0.000 C 
ATOM     18  N   UNL     1      -1.106  10.974  18.863  0.00  0.00    +0.000 N 
ATOM     19  C   UNL     1      -0.502  10.186  17.884  0.00  0.00    +0.000 C 
ATOM     20  O   UNL     1      -1.163   9.729  16.948  0.00  0.00    +0.000 OA
BRANCH  18  21
ATOM     21  C   UNL     1      -0.382  11.676  19.922  0.00  0.00    +0.000 C 
BRANCH  21  22
ATOM     22  C   UNL     1      -0.182  10.876  21.183  0.00  0.00    +0.000 A 
ATOM     23  C   UNL     1       0.780   9.872  21.329  0.00  0.00    +0.000 A 
ATOM     24  C   UNL     1       0.897   9.187  22.536  0.00  0.00    +0.000 A 
ATOM     25  C   UNL     1       0.054   9.541  23.575  0.00  0.00    +0.000 A 
ATOM     26  N   UNL     1      -0.870  10.520  23.487  0.00  0.00    +0.000 NA
ATOM     27  C   UNL     1      -0.959  11.168  22.303  0.00  0.00    +0.000 A 
ENDBRANCH  21  22
ENDBRANCH  18  21
ENDBRANCH  16  19
ENDBRANCH  15  16
ENDBRANCH  14  15
ENDBRANCH   1  14
BRANCH  12  28
ATOM     28  C   UNL     1       4.810   6.358  17.447  0.00  0.00    +0.000 C 
BRANCH  28  29
ATOM     29  C   UNL     1       5.735   5.762  16.394  0.00  0.00    +0.000 A 
ATOM     30  C   UNL     1       5.366   5.701  15.046  0.00  0.00    +0.000 A 
ATOM     31  C   UNL     1       6.205   5.101  14.107  0.00  0.00    +0.000 A 
ATOM     32  C   UNL     1       7.407   4.571  14.548  0.00  0.00    +0.000 A 
ATOM     33  N   UNL     1       7.818   4.616  15.831  0.00  0.00    +0.000 NA
ATOM     34  C   UNL     1       6.976   5.208  16.719  0.00  0.00    +0.000 A 
ENDBRANCH  28  29
ENDBRANCH  12  28
TORSDOF 8
ENDMDL
MODEL 7
REMARK VINA RESULT:      -8.0      1.160      1.494
REMARK  Name = 
REMARK  9 active torsions:
REMARK  status: ('A' for Active; 'I' for Inactive)
REMARK    1  A    between atoms: C_1  and  N_2
REMARK    2  A    between atoms: N_2  and  C_3
REMARK    3  A    between atoms: C_3  and  C_4
REMARK    4  A    between atoms: C_10  and  C_12
REMARK    5  A    between atoms: C_12  and  C_13
REMARK    6  A    between atoms: C_13  and  C_14
REMARK    7  A    between atoms: C_14  and  C_15
REMARK    8  A    between atoms: N_26  and  C_27
REMARK    9  A    between atoms: C_27  and  C_28
REMARK                            x       y       z     vdW  Elec       q    Type
REMARK                         _______ _______ _______ _____ _____    ______ ____
ROOT
ATOM      1  C   UNL     1       2.590   6.064  18.874  0.00  0.00    +0.000 C 
ATOM      2  C   UNL     1       3.084   5.134  20.044  0.00  0.00    +0.000 C 
ATOM      3  C   UNL     1       2.142   5.084  21.282  0.00  0.00    +0.000 C 
ATOM      4  C   UNL     1       1.385   3.782  21.537  0.00  0.00    +0.000 C 
ATOM      5  C   UNL     1       2.275   2.576  21.344  0.00  0.00    +0.000 C 
ATOM      6  N   UNL     1       2.766   2.521  19.983  0.00  0.00    +0.000 NA
ATOM      7  C   UNL     1       1.756   2.168  18.990  0.00  0.00    +0.000 C 
ATOM      8  C   UNL     1       2.438   1.638  17.724  0.00  0.00    +0.000 C 
ATOM      9  C   UNL     1       3.883   2.119  17.602  0.00  0.00    +0.000 C 
ATOM     10  C   UNL     1       4.039   3.554  18.129  0.00  0.00    +0.000 C 
ATOM     11  C   UNL     1       3.323   4.523  17.190  0.00  0.00    +0.000 C 
ATOM     12  N   UNL     1       3.434   5.910  17.642  0.00  0.00    +0.000 NA
ATOM     13  C   UNL     1       3.581   3.692  19.607  0.00  0.00    +0.000 C 
ENDROOT
BRANCH   1  14
ATOM     14  C   UNL     1       2.458   7.599  19.154  0.00  0.00    +0.000 C 
BRANCH  14  15
ATOM     15  C   UNL     1       1.791   8.558  18.145  0.00  0.00    +0.000 C 
BRANCH  15  16
ATOM     16  C   UNL     1       0.638   9.434  18.667  0.00  0.00    +0.000 C 
BRANCH  16  19
ATOM     17  C   UNL     1       0.280  13.270  18.721  0.00  0.00    +0.000 C 
ATOM     18  N   UNL     1      -0.049  11.853  18.823  0.00  0.00    +0.000 N 
ATOM     19  C   UNL     1       0.966  10.933  18.561  0.00  0.00    +0.000 C 
ATOM     20  O   UNL     1       2.091  11.316  18.227  0.00  0.00    +0.000 OA
BRANCH  18  21
ATOM     21  C   UNL     1      -1.362  11.504  19.362  0.00  0.00    +0.000 C 
BRANCH  21  22
ATOM     22  C   UNL     1      -2.466  11.441  18.338  0.00  0.00    +0.000 A 
ATOM     23  C   UNL     1      -3.801  11.758  18.605  0.00  0.00    +0.000 A 
ATOM     24  C   UNL     1      -4.754  11.675  17.593  0.00  0.00    +0.000 A 
ATOM     25  C   UNL     1      -4.338  11.292  16.330  0.00  0.00    +0.000 A 
ATOM     26  N   UNL     1      -3.057  11.002  16.021  0.00  0.00    +0.000 NA
ATOM     27  C   UNL     1      -2.155  11.093  17.024  0.00  0.00    +0.000 A 
ENDBRANCH  21  22
ENDBRANCH  18  21
ENDBRANCH  16  19
ENDBRANCH  15  16
ENDBRANCH  14  15
ENDBRANCH   1  14
BRANCH  12  28
ATOM     28  C   UNL     1       4.849   6.364  17.709  0.00  0.00    +0.000 C 
BRANCH  28  29
ATOM     29  C   UNL     1       5.726   5.782  16.608  0.00  0.00    +0.000 A 
ATOM     30  C   UNL     1       5.333   5.814  15.266  0.00  0.00    +0.000 A 
ATOM     31  C   UNL     1       6.125   5.226  14.280  0.00  0.00    +0.000 A 
ATOM     32  C   UNL     1       7.307   4.615  14.668  0.00  0.00    +0.000 A 
ATOM     33  N   UNL     1       7.739   4.569  15.944  0.00  0.00    +0.000 NA
ATOM     34  C   UNL     1       6.943   5.150  16.879  0.00  0.00    +0.000 A 
ENDBRANCH  28  29
ENDBRANCH  12  28
TORSDOF 8
ENDMDL
MODEL 8
REMARK VINA RESULT:      -8.0      2.876      8.150
REMARK  Name = 
REMARK  9 active torsions:
REMARK  status: ('A' for Active; 'I' for Inactive)
REMARK    1  A    between atoms: C_1  and  N_2
REMARK    2  A    between atoms: N_2  and  C_3
REMARK    3  A    between atoms: C_3  and  C_4
REMARK    4  A    between atoms: C_10  and  C_12
REMARK    5  A    between atoms: C_12  and  C_13
REMARK    6  A    between atoms: C_13  and  C_14
REMARK    7  A    between atoms: C_14  and  C_15
REMARK    8  A    between atoms: N_26  and  C_27
REMARK    9  A    between atoms: C_27  and  C_28
REMARK                            x       y       z     vdW  Elec       q    Type
REMARK                         _______ _______ _______ _____ _____    ______ ____
ROOT
ATOM      1  C   UNL     1       2.572   5.985  18.912  0.00  0.00    +0.000 C 
ATOM      2  C   UNL     1       1.801   4.743  18.328  0.00  0.00    +0.000 C 
ATOM      3  C   UNL     1       2.419   4.140  17.033  0.00  0.00    +0.000 C 
ATOM      4  C   UNL     1       3.078   2.766  17.142  0.00  0.00    +0.000 C 
ATOM      5  C   UNL     1       2.247   1.817  17.973  0.00  0.00    +0.000 C 
ATOM      6  N   UNL     1       2.095   2.322  19.321  0.00  0.00    +0.000 NA
ATOM      7  C   UNL     1       3.309   2.262  20.129  0.00  0.00    +0.000 C 
ATOM      8  C   UNL     1       2.944   2.313  21.616  0.00  0.00    +0.000 C 
ATOM      9  C   UNL     1       1.577   2.950  21.854  0.00  0.00    +0.000 C 
ATOM     10  C   UNL     1       1.315   4.095  20.861  0.00  0.00    +0.000 C 
ATOM     11  C   UNL     1       2.246   5.265  21.175  0.00  0.00    +0.000 C 
ATOM     12  N   UNL     1       2.046   6.388  20.259  0.00  0.00    +0.000 NA
ATOM     13  C   UNL     1       1.407   3.626  19.383  0.00  0.00    +0.000 C 
ENDROOT
BRANCH   1  14
ATOM     14  C   UNL     1       2.650   7.284  18.040  0.00  0.00    +0.000 C 
BRANCH  14  15
ATOM     15  C   UNL     1       3.964   7.738  17.369  0.00  0.00    +0.000 C 
BRANCH  15  16
ATOM     16  C   UNL     1       4.691   6.709  16.485  0.00  0.00    +0.000 C 
BRANCH  16  19
ATOM     17  C   UNL     1       7.696   4.499  17.451  0.00  0.00    +0.000 C 
ATOM     18  N   UNL     1       6.450   4.939  16.833  0.00  0.00    +0.000 N 
ATOM     19  C   UNL     1       6.001   6.226  17.131  0.00  0.00    +0.000 C 
ATOM     20  O   UNL     1       6.628   6.946  17.911  0.00  0.00    +0.000 OA
BRANCH  18  21
ATOM     21  C   UNL     1       5.860   4.072  15.816  0.00  0.00    +0.000 C 
BRANCH  21  22
ATOM     22  C   UNL     1       6.416   4.261  14.428  0.00  0.00    +0.000 A 
ATOM     23  C   UNL     1       7.424   5.176  14.107  0.00  0.00    +0.000 A 
ATOM     24  C   UNL     1       7.880   5.279  12.795  0.00  0.00    +0.000 A 
ATOM     25  C   UNL     1       7.324   4.446  11.840  0.00  0.00    +0.000 A 
ATOM     26  N   UNL     1       6.369   3.532  12.110  0.00  0.00    +0.000 NA
ATOM     27  C   UNL     1       5.948   3.454  13.393  0.00  0.00    +0.000 A 
ENDBRANCH  21  22
ENDBRANCH  18  21
ENDBRANCH  16  19
ENDBRANCH  15  16
ENDBRANCH  14  15
ENDBRANCH   1  14
BRANCH  12  28
ATOM     28  C   UNL     1       0.661   6.927  20.331  0.00  0.00    +0.000 C 
BRANCH  28  29
ATOM     29  C   UNL     1       0.587   8.339  20.898  0.00  0.00    +0.000 A 
ATOM     30  C   UNL     1       0.113   8.582  22.191  0.00  0.00    +0.000 A 
ATOM     31  C   UNL     1       0.001   9.887  22.672  0.00  0.00    +0.000 A 
ATOM     32  C   UNL     1       0.373  10.927  21.834  0.00  0.00    +0.000 A 
ATOM     33  N   UNL     1       0.851  10.746  20.587  0.00  0.00    +0.000 NA
ATOM     34  C   UNL     1       0.946   9.463  20.150  0.00  0.00    +0.000 A 
ENDBRANCH  28  29
ENDBRANCH  12  28
TORSDOF 8
ENDMDL
MODEL 9
REMARK VINA RESULT:      -8.0      1.866      2.205
REMARK  Name = 
REMARK  9 active torsions:
REMARK  status: ('A' for Active; 'I' for Inactive)
REMARK    1  A    between atoms: C_1  and  N_2
REMARK    2  A    between atoms: N_2  and  C_3
REMARK    3  A    between atoms: C_3  and  C_4
REMARK    4  A    between atoms: C_10  and  C_12
REMARK    5  A    between atoms: C_12  and  C_13
REMARK    6  A    between atoms: C_13  and  C_14
REMARK    7  A    between atoms: C_14  and  C_15
REMARK    8  A    between atoms: N_26  and  C_27
REMARK    9  A    between atoms: C_27  and  C_28
REMARK                            x       y       z     vdW  Elec       q    Type
REMARK                         _______ _______ _______ _____ _____    ______ ____
ROOT
ATOM      1  C   UNL     1       2.511   6.051  18.843  0.00  0.00    +0.000 C 
ATOM      2  C   UNL     1       3.032   5.169  20.037  0.00  0.00    +0.000 C 
ATOM      3  C   UNL     1       2.086   5.116  21.272  0.00  0.00    +0.000 C 
ATOM      4  C   UNL     1       1.373   3.795  21.557  0.00  0.00    +0.000 C 
ATOM      5  C   UNL     1       2.305   2.617  21.398  0.00  0.00    +0.000 C 
ATOM      6  N   UNL     1       2.805   2.545  20.041  0.00  0.00    +0.000 NA
ATOM      7  C   UNL     1       1.813   2.132  19.053  0.00  0.00    +0.000 C 
ATOM      8  C   UNL     1       2.519   1.595  17.804  0.00  0.00    +0.000 C 
ATOM      9  C   UNL     1       3.947   2.122  17.675  0.00  0.00    +0.000 C 
ATOM     10  C   UNL     1       4.050   3.575  18.167  0.00  0.00    +0.000 C 
ATOM     11  C   UNL     1       3.306   4.495  17.201  0.00  0.00    +0.000 C 
ATOM     12  N   UNL     1       3.366   5.896  17.618  0.00  0.00    +0.000 NA
ATOM     13  C   UNL     1       3.581   3.734  19.639  0.00  0.00    +0.000 C 
ENDROOT
BRANCH   1  14
ATOM     14  C   UNL     1       2.325   7.587  19.083  0.00  0.00    +0.000 C 
BRANCH  14  15
ATOM     15  C   UNL     1       1.984   8.558  17.932  0.00  0.00    +0.000 C 
BRANCH  15  16
ATOM     16  C   UNL     1       0.943   9.654  18.225  0.00  0.00    +0.000 C 
BRANCH  16  19
ATOM     17  C   UNL     1       1.828  12.899  20.102  0.00  0.00    +0.000 C 
ATOM     18  N   UNL     1       1.184  11.637  19.759  0.00  0.00    +0.000 N 
ATOM     19  C   UNL     1       1.609  10.989  18.600  0.00  0.00    +0.000 C 
ATOM     20  O   UNL     1       2.479  11.489  17.882  0.00  0.00    +0.000 OA
BRANCH  18  21
ATOM     21  C   UNL     1       0.271  11.058  20.743  0.00  0.00    +0.000 C 
BRANCH  21  22
ATOM     22  C   UNL     1      -1.105  11.673  20.762  0.00  0.00    +0.000 A 
ATOM     23  C   UNL     1      -1.907  11.831  19.628  0.00  0.00    +0.000 A 
ATOM     24  C   UNL     1      -3.170  12.407  19.743  0.00  0.00    +0.000 A 
ATOM     25  C   UNL     1      -3.603  12.795  20.999  0.00  0.00    +0.000 A 
ATOM     26  N   UNL     1      -2.873  12.637  22.122  0.00  0.00    +0.000 NA
ATOM     27  C   UNL     1      -1.653  12.074  21.980  0.00  0.00    +0.000 A 
ENDBRANCH  21  22
ENDBRANCH  18  21
ENDBRANCH  16  19
ENDBRANCH  15  16
ENDBRANCH  14  15
ENDBRANCH   1  14
BRANCH  12  28
ATOM     28  C   UNL     1       4.764   6.400  17.679  0.00  0.00    +0.000 C 
BRANCH  28  29
ATOM     29  C   UNL     1       5.672   5.804  16.611  0.00  0.00    +0.000 A 
ATOM     30  C   UNL     1       5.297   5.778  15.264  0.00  0.00    +0.000 A 
ATOM     31  C   UNL     1       6.118   5.177  14.310  0.00  0.00    +0.000 A 
ATOM     32  C   UNL     1       7.311   4.613  14.736  0.00  0.00    +0.000 A 
ATOM     33  N   UNL     1       7.727   4.625  16.017  0.00  0.00    +0.000 NA
ATOM     34  C   UNL     1       6.902   5.217  16.920  0.00  0.00    +0.000 A 
ENDBRANCH  28  29
ENDBRANCH  12  28
TORSDOF 8
ENDMDL
