MODEL 1
REMARK VINA RESULT:      -4.0      0.000      0.000
REMARK  Name = 
REMARK  5 active torsions:
REMARK  status: ('A' for Active; 'I' for Inactive)
REMARK    1  A    between atoms: C_1  and  C_2
REMARK    2  A    between atoms: C_2  and  N_3
REMARK    3  A    between atoms: N_3  and  P_4
REMARK    4  A    between atoms: P_4  and  O_6
REMARK    5  A    between atoms: P_4  and  O_7
REMARK                            x       y       z     vdW  Elec       q    Type
REMARK                         _______ _______ _______ _____ _____    ______ ____
ROOT
ATOM      1  P   UNL     1       6.760   4.948  16.301  0.00  0.00    +0.000 P 
ATOM      2  O   UNL     1       7.367   4.747  14.913  0.00  0.00    +0.000 OA
ENDROOT
BRANCH   1   3
ATOM      3  N   UNL     1       7.512   6.549  16.495  0.00  0.00    +0.000 NA
ATOM      4  H   UNL     1       8.421   6.528  16.046  0.00  0.00    +0.000 HD
BRANCH   3   6
ATOM      5  C   UNL     1       8.089   8.494  17.896  0.00  0.00    +0.000 C 
ATOM      6  C   UNL     1       7.623   7.042  17.865  0.00  0.00    +0.000 C 
ENDBRANCH   3   6
ENDBRANCH   1   3
BRANCH   1   7
ATOM      7  O   UNL     1       7.874   4.321  17.305  0.00  0.00    +0.000 OA
ATOM      8  H   UNL     1       8.191   3.496  16.900  0.00  0.00    +0.000 HD
ENDBRANCH   1   7
BRANCH   1   9
ATOM      9  O   UNL     1       6.029   3.391  16.112  0.00  0.00    +0.000 OA
ATOM     10  H   UNL     1       6.585   2.968  15.427  0.00  0.00    +0.000 HD
ENDBRANCH   1   9
TORSDOF 4
ENDMDL
MODEL 2
REMARK VINA RESULT:      -4.0      3.000      3.727
REMARK  Name = 
REMARK  5 active torsions:
REMARK  status: ('A' for Active; 'I' for Inactive)
REMARK    1  A    between atoms: C_1  and  C_2
REMARK    2  A    between atoms: C_2  and  N_3
REMARK    3  A    between atoms: N_3  and  P_4
REMARK    4  A    between atoms: P_4  and  O_6
REMARK    5  A    between atoms: P_4  and  O_7
REMARK                            x       y       z     vdW  Elec       q    Type
REMARK                         _______ _______ _______ _____ _____    ______ ____
ROOT
ATOM      1  P   UNL     1       6.844   4.789  17.095  0.00  0.00    +0.000 P 
ATOM      2  O   UNL     1       8.250   4.216  17.266  0.00  0.00    +0.000 OA
ENDROOT
BRANCH   1   3
ATOM      3  N   UNL     1       6.261   4.039  18.600  0.00  0.00    +0.000 NA
ATOM      4  H   UNL     1       6.576   3.075  18.616  0.00  0.00    +0.000 HD
BRANCH   3   6
ATOM      5  C   UNL     1       4.301   2.849  19.509  0.00  0.00    +0.000 C 
ATOM      6  C   UNL     1       4.821   4.116  18.837  0.00  0.00    +0.000 C 
ENDBRANCH   3   6
ENDBRANCH   1   3
BRANCH   1   7
ATOM      7  O   UNL     1       6.062   3.648  16.242  0.00  0.00    +0.000 OA
ATOM      8  H   UNL     1       5.937   2.886  16.832  0.00  0.00    +0.000 HD
ENDBRANCH   1   7
BRANCH   1   9
ATOM      9  O   UNL     1       7.411   5.518  15.632  0.00  0.00    +0.000 OA
ATOM     10  H   UNL     1       6.605   5.935  15.267  0.00  0.00    +0.000 HD
ENDBRANCH   1   9
TORSDOF 4
ENDMDL
MODEL 3
REMARK VINA RESULT:      -4.0      2.526      3.060
REMARK  Name = 
REMARK  5 active torsions:
REMARK  status: ('A' for Active; 'I' for Inactive)
REMARK    1  A    between atoms: C_1  and  C_2
REMARK    2  A    between atoms: C_2  and  N_3
REMARK    3  A    between atoms: N_3  and  P_4
REMARK    4  A    between atoms: P_4  and  O_6
REMARK    5  A    between atoms: P_4  and  O_7
REMARK                            x       y       z     vdW  Elec       q    Type
REMARK                         _______ _______ _______ _____ _____    ______ ____
ROOT
ATOM      1  P   UNL     1       6.785   4.740  16.964  0.00  0.00    +0.000 P 
ATOM      2  O   UNL     1       8.197   4.226  17.238  0.00  0.00    +0.000 OA
ENDROOT
BRANCH   1   3
ATOM      3  N   UNL     1       6.134   4.002  18.447  0.00  0.00    +0.000 NA
ATOM      4  H   UNL     1       6.058   3.002  18.296  0.00  0.00    +0.000 HD
BRANCH   3   6
ATOM      5  C   UNL     1       4.522   5.854  18.224  0.00  0.00    +0.000 C 
ATOM      6  C   UNL     1       4.869   4.549  18.932  0.00  0.00    +0.000 C 
ENDBRANCH   3   6
ENDBRANCH   1   3
BRANCH   1   7
ATOM      7  O   UNL     1       6.102   3.550  16.092  0.00  0.00    +0.000 OA
ATOM      8  H   UNL     1       6.712   3.344  15.363  0.00  0.00    +0.000 HD
ENDBRANCH   1   7
BRANCH   1   9
ATOM      9  O   UNL     1       7.418   5.456  15.522  0.00  0.00    +0.000 OA
ATOM     10  H   UNL     1       8.269   4.990  15.399  0.00  0.00    +0.000 HD
ENDBRANCH   1   9
TORSDOF 4
ENDMDL
MODEL 4
REMARK VINA RESULT:      -3.9      3.817      4.387
REMARK  Name = 
REMARK  5 active torsions:
REMARK  status: ('A' for Active; 'I' for Inactive)
REMARK    1  A    between atoms: C_1  and  C_2
REMARK    2  A    between atoms: C_2  and  N_3
REMARK    3  A    between atoms: N_3  and  P_4
REMARK    4  A    between atoms: P_4  and  O_6
REMARK    5  A    between atoms: P_4  and  O_7
REMARK                            x       y       z     vdW  Elec       q    Type
REMARK                         _______ _______ _______ _____ _____    ______ ____
ROOT
ATOM      1  P   UNL     1       6.919   5.080  15.582  0.00  0.00    +0.000 P 
ATOM      2  O   UNL     1       7.827   4.257  16.494  0.00  0.00    +0.000 OA
ENDROOT
BRANCH   1   3
ATOM      3  N   UNL     1       6.376   3.643  14.682  0.00  0.00    +0.000 NA
ATOM      4  H   UNL     1       7.196   3.123  14.393  0.00  0.00    +0.000 HD
BRANCH   3   6
ATOM      5  C   UNL     1       6.040   3.257  12.270  0.00  0.00    +0.000 C 
ATOM      6  C   UNL     1       5.496   3.896  13.544  0.00  0.00    +0.000 C 
ENDBRANCH   3   6
ENDBRANCH   1   3
BRANCH   1   7
ATOM      7  O   UNL     1       7.881   5.478  14.335  0.00  0.00    +0.000 OA
ATOM      8  H   UNL     1       8.466   4.718  14.171  0.00  0.00    +0.000 HD
ENDBRANCH   1   7
BRANCH   1   9
ATOM      9  O   UNL     1       7.447   6.476  16.457  0.00  0.00    +0.000 OA
ATOM     10  H   UNL     1       8.256   6.744  15.976  0.00  0.00    +0.000 HD
ENDBRANCH   1   9
TORSDOF 4
ENDMDL
MODEL 5
REMARK VINA RESULT:      -3.8      3.668      4.177
REMARK  Name = 
REMARK  5 active torsions:
REMARK  status: ('A' for Active; 'I' for Inactive)
REMARK    1  A    between atoms: C_1  and  C_2
REMARK    2  A    between atoms: C_2  and  N_3
REMARK    3  A    between atoms: N_3  and  P_4
REMARK    4  A    between atoms: P_4  and  O_6
REMARK    5  A    between atoms: P_4  and  O_7
REMARK                            x       y       z     vdW  Elec       q    Type
REMARK                         _______ _______ _______ _____ _____    ______ ____
ROOT
ATOM      1  P   UNL     1       6.799   5.253  18.574  0.00  0.00    +0.000 P 
ATOM      2  O   UNL     1       7.247   5.375  20.029  0.00  0.00    +0.000 OA
ENDROOT
BRANCH   1   3
ATOM      3  N   UNL     1       5.756   3.852  18.920  0.00  0.00    +0.000 NA
ATOM      4  H   UNL     1       6.246   3.014  18.629  0.00  0.00    +0.000 HD
BRANCH   3   6
ATOM      5  C   UNL     1       4.468   3.924  16.819  0.00  0.00    +0.000 C 
ATOM      6  C   UNL     1       4.415   3.894  18.343  0.00  0.00    +0.000 C 
ENDBRANCH   3   6
ENDBRANCH   1   3
BRANCH   1   7
ATOM      7  O   UNL     1       7.896   4.253  17.913  0.00  0.00    +0.000 OA
ATOM      8  H   UNL     1       7.823   4.347  16.948  0.00  0.00    +0.000 HD
ENDBRANCH   1   7
BRANCH   1   9
ATOM      9  O   UNL     1       7.812   6.614  18.237  0.00  0.00    +0.000 OA
ATOM     10  H   UNL     1       7.892   7.050  19.110  0.00  0.00    +0.000 HD
ENDBRANCH   1   9
TORSDOF 4
ENDMDL
MODEL 6
REMARK VINA RESULT:      -3.8      2.707      3.345
REMARK  Name = 
REMARK  5 active torsions:
REMARK  status: ('A' for Active; 'I' for Inactive)
REMARK    1  A    between atoms: C_1  and  C_2
REMARK    2  A    between atoms: C_2  and  N_3
REMARK    3  A    between atoms: N_3  and  P_4
REMARK    4  A    between atoms: P_4  and  O_6
REMARK    5  A    between atoms: P_4  and  O_7
REMARK                            x       y       z     vdW  Elec       q    Type
REMARK                         _______ _______ _______ _____ _____    ______ ____
ROOT
ATOM      1  P   UNL     1       7.313   5.740  18.252  0.00  0.00    +0.000 P 
ATOM      2  O   UNL     1       5.790   5.792  18.348  0.00  0.00    +0.000 OA
ENDROOT
BRANCH   1   3
ATOM      3  N   UNL     1       7.301   6.030  16.496  0.00  0.00    +0.000 NA
ATOM      4  H   UNL     1       6.644   6.777  16.304  0.00  0.00    +0.000 HD
BRANCH   3   6
ATOM      5  C   UNL     1       5.698   5.025  14.914  0.00  0.00    +0.000 C 
ATOM      6  C   UNL     1       7.021   4.867  15.657  0.00  0.00    +0.000 C 
ENDBRANCH   3   6
ENDBRANCH   1   3
BRANCH   1   7
ATOM      7  O   UNL     1       7.631   4.170  17.974  0.00  0.00    +0.000 OA
ATOM      8  H   UNL     1       6.961   3.655  18.456  0.00  0.00    +0.000 HD
ENDBRANCH   1   7
BRANCH   1   9
ATOM      9  O   UNL     1       7.326   5.458  19.959  0.00  0.00    +0.000 OA
ATOM     10  H   UNL     1       7.762   6.261  20.311  0.00  0.00    +0.000 HD
ENDBRANCH   1   9
TORSDOF 4
ENDMDL
MODEL 7
REMARK VINA RESULT:      -3.8      1.120      1.210
REMARK  Name = 
REMARK  5 active torsions:
REMARK  status: ('A' for Active; 'I' for Inactive)
REMARK    1  A    between atoms: C_1  and  C_2
REMARK    2  A    between atoms: C_2  and  N_3
REMARK    3  A    between atoms: N_3  and  P_4
REMARK    4  A    between atoms: P_4  and  O_6
REMARK    5  A    between atoms: P_4  and  O_7
REMARK                            x       y       z     vdW  Elec       q    Type
REMARK                         _______ _______ _______ _____ _____    ______ ____
ROOT
ATOM      1  P   UNL     1       6.292   4.889  15.286  0.00  0.00    +0.000 P 
ATOM      2  O   UNL     1       7.665   5.239  14.716  0.00  0.00    +0.000 OA
ENDROOT
BRANCH   1   3
ATOM      3  N   UNL     1       6.243   6.350  16.300  0.00  0.00    +0.000 NA
ATOM      4  H   UNL     1       6.303   7.159  15.692  0.00  0.00    +0.000 HD
BRANCH   3   6
ATOM      5  C   UNL     1       7.702   7.863  17.590  0.00  0.00    +0.000 C 
ATOM      6  C   UNL     1       7.243   6.426  17.362  0.00  0.00    +0.000 C 
ENDBRANCH   3   6
ENDBRANCH   1   3
BRANCH   1   7
ATOM      7  O   UNL     1       6.635   4.004  16.605  0.00  0.00    +0.000 OA
ATOM      8  H   UNL     1       7.174   4.563  17.191  0.00  0.00    +0.000 HD
ENDBRANCH   1   7
BRANCH   1   9
ATOM      9  O   UNL     1       6.340   3.468  14.300  0.00  0.00    +0.000 OA
ATOM     10  H   UNL     1       6.542   3.824  13.411  0.00  0.00    +0.000 HD
ENDBRANCH   1   9
TORSDOF 4
ENDMDL
MODEL 8
REMARK VINA RESULT:      -3.8      1.155      1.179
REMARK  Name = 
REMARK  5 active torsions:
REMARK  status: ('A' for Active; 'I' for Inactive)
REMARK    1  A    between atoms: C_1  and  C_2
REMARK    2  A    between atoms: C_2  and  N_3
REMARK    3  A    between atoms: N_3  and  P_4
REMARK    4  A    between atoms: P_4  and  O_6
REMARK    5  A    between atoms: P_4  and  O_7
REMARK                            x       y       z     vdW  Elec       q    Type
REMARK                         _______ _______ _______ _____ _____    ______ ____
ROOT
ATOM      1  P   UNL     1       6.850   4.923  15.601  0.00  0.00    +0.000 P 
ATOM      2  O   UNL     1       7.676   5.213  14.350  0.00  0.00    +0.000 OA
ENDROOT
BRANCH   1   3
ATOM      3  N   UNL     1       7.405   6.404  16.418  0.00  0.00    +0.000 NA
ATOM      4  H   UNL     1       8.419   6.389  16.446  0.00  0.00    +0.000 HD
BRANCH   3   6
ATOM      5  C   UNL     1       7.894   6.390  18.834  0.00  0.00    +0.000 C 
ATOM      6  C   UNL     1       6.854   6.647  17.748  0.00  0.00    +0.000 C 
ENDBRANCH   3   6
ENDBRANCH   1   3
BRANCH   1   7
ATOM      7  O   UNL     1       7.855   4.052  16.535  0.00  0.00    +0.000 OA
ATOM      8  H   UNL     1       8.666   3.903  16.020  0.00  0.00    +0.000 HD
ENDBRANCH   1   7
BRANCH   1   9
ATOM      9  O   UNL     1       6.311   3.483  14.808  0.00  0.00    +0.000 OA
ATOM     10  H   UNL     1       5.373   3.681  14.608  0.00  0.00    +0.000 HD
ENDBRANCH   1   9
TORSDOF 4
ENDMDL
MODEL 9
REMARK VINA RESULT:      -3.8      2.853      3.381
REMARK  Name = 
REMARK  5 active torsions:
REMARK  status: ('A' for Active; 'I' for Inactive)
REMARK    1  A    between atoms: C_1  and  C_2
REMARK    2  A    between atoms: C_2  and  N_3
REMARK    3  A    between atoms: N_3  and  P_4
REMARK    4  A    between atoms: P_4  and  O_6
REMARK    5  A    between atoms: P_4  and  O_7
REMARK                            x       y       z     vdW  Elec       q    Type
REMARK                         _______ _______ _______ _____ _____    ______ ____
ROOT
ATOM      1  P   UNL     1       7.097   5.591  18.094  0.00  0.00    +0.000 P 
ATOM      2  O   UNL     1       8.071   4.414  18.104  0.00  0.00    +0.000 OA
ENDROOT
BRANCH   1   3
ATOM      3  N   UNL     1       7.341   5.891  16.357  0.00  0.00    +0.000 NA
ATOM      4  H   UNL     1       6.811   6.717  16.101  0.00  0.00    +0.000 HD
BRANCH   3   6
ATOM      5  C   UNL     1       5.563   4.807  15.036  0.00  0.00    +0.000 C 
ATOM      6  C   UNL     1       7.026   4.778  15.465  0.00  0.00    +0.000 C 
ENDBRANCH   3   6
ENDBRANCH   1   3
BRANCH   1   7
ATOM      7  O   UNL     1       8.036   6.874  18.431  0.00  0.00    +0.000 OA
ATOM      8  H   UNL     1       8.363   6.757  19.340  0.00  0.00    +0.000 HD
ENDBRANCH   1   7
BRANCH   1   9
ATOM      9  O   UNL     1       6.860   5.299  19.783  0.00  0.00    +0.000 OA
ATOM     10  H   UNL     1       5.916   5.521  19.914  0.00  0.00    +0.000 HD
ENDBRANCH   1   9
TORSDOF 4
ENDMDL
