MODEL 1
REMARK VINA RESULT:      -8.5      0.000      0.000
REMARK  Name = 
REMARK  8 active torsions:
REMARK  status: ('A' for Active; 'I' for Inactive)
REMARK    1  A    between atoms: C_1  and  C_2
REMARK    2  A    between atoms: C_2  and  C_3
REMARK    3  A    between atoms: C_3  and  C_4
REMARK    4  A    between atoms: C_4  and  N_5
REMARK    5  A    between atoms: C_8  and  O_9
REMARK    6  A    between atoms: O_9  and  C_10
REMARK    7  A    between atoms: C_13  and  N_14
REMARK    8  A    between atoms: C_15  and  C_16
REMARK                            x       y       z     vdW  Elec       q    Type
REMARK                         _______ _______ _______ _____ _____    ______ ____
ROOT
ATOM      1  C   UNL     1       2.592   7.281  18.533  0.00  0.00    +0.000 A 
ATOM      2  C   UNL     1       2.233   8.439  17.828  0.00  0.00    +0.000 A 
ATOM      3  C   UNL     1       1.488   9.477  18.436  0.00  0.00    +0.000 A 
ATOM      4  C   UNL     1       1.107   9.390  19.783  0.00  0.00    +0.000 A 
ATOM      5  C   UNL     1       1.470   8.220  20.469  0.00  0.00    +0.000 A 
ATOM      6  C   UNL     1       2.180   7.172  19.857  0.00  0.00    +0.000 A 
ENDROOT
BRANCH   4   7
ATOM      7  N   UNL     1       0.335  10.398  20.480  0.00  0.00    +0.000 N 
ATOM      8  C   UNL     1      -0.294  11.363  19.750  0.00  0.00    +0.000 A 
ATOM      9  C   UNL     1      -1.666  10.887  19.226  0.00  0.00    +0.000 C 
ATOM     10  N   UNL     1      -0.160  12.602  20.087  0.00  0.00    +0.000 NA
ATOM     11  C   UNL     1      -0.692  12.774  21.378  0.00  0.00    +0.000 A 
ATOM     12  C   UNL     1      -1.482  13.903  21.630  0.00  0.00    +0.000 A 
ATOM     13  C   UNL     1      -2.502  13.815  22.568  0.00  0.00    +0.000 A 
ATOM     14  C   UNL     1      -2.700  12.617  23.273  0.00  0.00    +0.000 A 
ATOM     15  C   UNL     1      -1.799  11.550  23.142  0.00  0.00    +0.000 A 
ATOM     16  C   UNL     1      -0.756  11.655  22.228  0.00  0.00    +0.000 A 
ATOM     17  C   UNL     1       0.122  10.498  21.861  0.00  0.00    +0.000 A 
ATOM     18  O   UNL     1       0.536   9.746  22.737  0.00  0.00    +0.000 OA
ENDBRANCH   4   7
BRANCH   1  19
ATOM     19  O   UNL     1       3.312   6.343  17.844  0.00  0.00    +0.000 OA
BRANCH  19  23
ATOM     20  N   UNL     1       5.919   4.187  16.705  0.00  0.00    +0.000 NA
ATOM     21  C   UNL     1       6.114   5.412  17.504  0.00  0.00    +0.000 C 
ATOM     22  C   UNL     1       5.344   5.354  18.821  0.00  0.00    +0.000 C 
ATOM     23  C   UNL     1       3.841   5.212  18.567  0.00  0.00    +0.000 C 
ATOM     24  C   UNL     1       3.645   3.941  17.737  0.00  0.00    +0.000 C 
ATOM     25  C   UNL     1       4.484   3.948  16.453  0.00  0.00    +0.000 C 
BRANCH  20  26
ATOM     26  C   UNL     1       6.637   4.270  15.419  0.00  0.00    +0.000 C 
BRANCH  26  27
ATOM     27  C   UNL     1       5.759   4.407  14.167  0.00  0.00    +0.000 C 
BRANCH  27  29
ATOM     28  C   UNL     1       5.114   3.258  12.023  0.00  0.00    +0.000 C 
ATOM     29  C   UNL     1       6.259   3.593  12.973  0.00  0.00    +0.000 C 
ENDBRANCH  27  29
ENDBRANCH  26  27
ENDBRANCH  20  26
ENDBRANCH  19  23
ENDBRANCH   1  19
TORSDOF 6
ENDMDL
MODEL 2
REMARK VINA RESULT:      -8.5      0.760      1.228
REMARK  Name = 
REMARK  8 active torsions:
REMARK  status: ('A' for Active; 'I' for Inactive)
REMARK    1  A    between atoms: C_1  and  C_2
REMARK    2  A    between atoms: C_2  and  C_3
REMARK    3  A    between atoms: C_3  and  C_4
REMARK    4  A    between atoms: C_4  and  N_5
REMARK    5  A    between atoms: C_8  and  O_9
REMARK    6  A    between atoms: O_9  and  C_10
REMARK    7  A    between atoms: C_13  and  N_14
REMARK    8  A    between atoms: C_15  and  C_16
REMARK                            x       y       z     vdW  Elec       q    Type
REMARK                         _______ _______ _______ _____ _____    ______ ____
ROOT
ATOM      1  C   UNL     1       2.881   6.891  18.307  0.00  0.00    +0.000 A 
ATOM      2  C   UNL     1       2.432   6.695  19.621  0.00  0.00    +0.000 A 
ATOM      3  C   UNL     1       1.706   7.692  20.314  0.00  0.00    +0.000 A 
ATOM      4  C   UNL     1       1.387   8.908  19.691  0.00  0.00    +0.000 A 
ATOM      5  C   UNL     1       1.852   9.087  18.379  0.00  0.00    +0.000 A 
ATOM      6  C   UNL     1       2.604   8.111  17.701  0.00  0.00    +0.000 A 
ENDROOT
BRANCH   4   7
ATOM      7  N   UNL     1       0.661   9.987  20.329  0.00  0.00    +0.000 N 
ATOM      8  C   UNL     1       0.007  10.891  19.543  0.00  0.00    +0.000 A 
ATOM      9  C   UNL     1      -1.394  10.389  19.132  0.00  0.00    +0.000 C 
ATOM     10  N   UNL     1       0.170  12.153  19.758  0.00  0.00    +0.000 NA
ATOM     11  C   UNL     1      -0.296  12.450  21.052  0.00  0.00    +0.000 A 
ATOM     12  C   UNL     1      -1.061  13.609  21.236  0.00  0.00    +0.000 A 
ATOM     13  C   UNL     1      -2.034  13.623  22.226  0.00  0.00    +0.000 A 
ATOM     14  C   UNL     1      -2.209  12.498  23.047  0.00  0.00    +0.000 A 
ATOM     15  C   UNL     1      -1.327  11.410  22.972  0.00  0.00    +0.000 A 
ATOM     16  C   UNL     1      -0.330  11.414  22.004  0.00  0.00    +0.000 A 
ATOM     17  C   UNL     1       0.517  10.216  21.703  0.00  0.00    +0.000 A 
ATOM     18  O   UNL     1       0.966   9.541  22.624  0.00  0.00    +0.000 OA
ENDBRANCH   4   7
BRANCH   1  19
ATOM     19  O   UNL     1       3.574   5.858  17.736  0.00  0.00    +0.000 OA
BRANCH  19  23
ATOM     20  N   UNL     1       6.500   4.697  16.053  0.00  0.00    +0.000 NA
ATOM     21  C   UNL     1       6.239   6.096  16.442  0.00  0.00    +0.000 C 
ATOM     22  C   UNL     1       6.000   6.229  17.944  0.00  0.00    +0.000 C 
ATOM     23  C   UNL     1       4.785   5.403  18.375  0.00  0.00    +0.000 C 
ATOM     24  C   UNL     1       5.061   3.953  17.968  0.00  0.00    +0.000 C 
ATOM     25  C   UNL     1       5.391   3.820  16.477  0.00  0.00    +0.000 C 
BRANCH  20  26
ATOM     26  C   UNL     1       6.693   4.577  14.595  0.00  0.00    +0.000 C 
BRANCH  26  27
ATOM     27  C   UNL     1       5.509   4.000  13.806  0.00  0.00    +0.000 C 
BRANCH  27  29
ATOM     28  C   UNL     1       7.163   4.063  11.910  0.00  0.00    +0.000 C 
ATOM     29  C   UNL     1       5.903   3.400  12.456  0.00  0.00    +0.000 C 
ENDBRANCH  27  29
ENDBRANCH  26  27
ENDBRANCH  20  26
ENDBRANCH  19  23
ENDBRANCH   1  19
TORSDOF 6
ENDMDL
MODEL 3
REMARK VINA RESULT:      -8.3      1.278      1.906
REMARK  Name = 
REMARK  8 active torsions:
REMARK  status: ('A' for Active; 'I' for Inactive)
REMARK    1  A    between atoms: C_1  and  C_2
REMARK    2  A    between atoms: C_2  and  C_3
REMARK    3  A    between atoms: C_3  and  C_4
REMARK    4  A    between atoms: C_4  and  N_5
REMARK    5  A    between atoms: C_8  and  O_9
REMARK    6  A    between atoms: O_9  and  C_10
REMARK    7  A    between atoms: C_13  and  N_14
REMARK    8  A    between atoms: C_15  and  C_16
REMARK                            x       y       z     vdW  Elec       q    Type
REMARK                         _______ _______ _______ _____ _____    ______ ____
ROOT
ATOM      1  C   UNL     1       2.805   7.332  18.114  0.00  0.00    +0.000 A 
ATOM      2  C   UNL     1       2.394   7.138  19.439  0.00  0.00    +0.000 A 
ATOM      3  C   UNL     1       1.604   8.094  20.120  0.00  0.00    +0.000 A 
ATOM      4  C   UNL     1       1.181   9.264  19.472  0.00  0.00    +0.000 A 
ATOM      5  C   UNL     1       1.610   9.443  18.147  0.00  0.00    +0.000 A 
ATOM      6  C   UNL     1       2.424   8.511  17.481  0.00  0.00    +0.000 A 
ENDROOT
BRANCH   4   7
ATOM      7  N   UNL     1       0.383  10.299  20.095  0.00  0.00    +0.000 N 
ATOM      8  C   UNL     1       0.939  11.044  21.094  0.00  0.00    +0.000 A 
ATOM      9  C   UNL     1       1.768  12.223  20.540  0.00  0.00    +0.000 C 
ATOM     10  N   UNL     1       0.290  11.213  22.196  0.00  0.00    +0.000 NA
ATOM     11  C   UNL     1      -0.907  11.896  21.911  0.00  0.00    +0.000 A 
ATOM     12  C   UNL     1      -1.306  12.930  22.767  0.00  0.00    +0.000 A 
ATOM     13  C   UNL     1      -2.026  13.996  22.245  0.00  0.00    +0.000 A 
ATOM     14  C   UNL     1      -2.374  14.002  20.884  0.00  0.00    +0.000 A 
ATOM     15  C   UNL     1      -2.123  12.885  20.074  0.00  0.00    +0.000 A 
ATOM     16  C   UNL     1      -1.434  11.803  20.609  0.00  0.00    +0.000 A 
ATOM     17  C   UNL     1      -0.931  10.666  19.774  0.00  0.00    +0.000 A 
ATOM     18  O   UNL     1      -1.646  10.190  18.899  0.00  0.00    +0.000 OA
ENDBRANCH   4   7
BRANCH   1  19
ATOM     19  O   UNL     1       3.568   6.341  17.556  0.00  0.00    +0.000 OA
BRANCH  19  23
ATOM     20  N   UNL     1       6.418   4.500  16.448  0.00  0.00    +0.000 NA
ATOM     21  C   UNL     1       6.422   5.922  16.840  0.00  0.00    +0.000 C 
ATOM     22  C   UNL     1       5.915   6.115  18.267  0.00  0.00    +0.000 C 
ATOM     23  C   UNL     1       4.477   5.609  18.406  0.00  0.00    +0.000 C 
ATOM     24  C   UNL     1       4.478   4.135  17.997  0.00  0.00    +0.000 C 
ATOM     25  C   UNL     1       5.069   3.919  16.599  0.00  0.00    +0.000 C 
BRANCH  20  26
ATOM     26  C   UNL     1       6.874   4.331  15.055  0.00  0.00    +0.000 C 
BRANCH  26  27
ATOM     27  C   UNL     1       5.783   4.014  14.024  0.00  0.00    +0.000 C 
BRANCH  27  29
ATOM     28  C   UNL     1       5.260   2.994  11.783  0.00  0.00    +0.000 C 
ATOM     29  C   UNL     1       6.327   3.672  12.636  0.00  0.00    +0.000 C 
ENDBRANCH  27  29
ENDBRANCH  26  27
ENDBRANCH  20  26
ENDBRANCH  19  23
ENDBRANCH   1  19
TORSDOF 6
ENDMDL
MODEL 4
REMARK VINA RESULT:      -8.2      1.267      1.681
REMARK  Name = 
REMARK  8 active torsions:
REMARK  status: ('A' for Active; 'I' for Inactive)
REMARK    1  A    between atoms: C_1  and  C_2
REMARK    2  A    between atoms: C_2  and  C_3
REMARK    3  A    between atoms: C_3  and  C_4
REMARK    4  A    between atoms: C_4  and  N_5
REMARK    5  A    between atoms: C_8  and  O_9
REMARK    6  A    between atoms: O_9  and  C_10
REMARK    7  A    between atoms: C_13  and  N_14
REMARK    8  A    between atoms: C_15  and  C_16
REMARK                            x       y       z     vdW  Elec       q    Type
REMARK                         _______ _______ _______ _____ _____    ______ ____
ROOT
ATOM      1  C   UNL     1       2.746   7.447  18.447  0.00  0.00    +0.000 A 
ATOM      2  C   UNL     1       2.395   8.567  17.681  0.00  0.00    +0.000 A 
ATOM      3  C   UNL     1       1.562   9.588  18.197  0.00  0.00    +0.000 A 
ATOM      4  C   UNL     1       1.081   9.523  19.512  0.00  0.00    +0.000 A 
ATOM      5  C   UNL     1       1.438   8.390  20.261  0.00  0.00    +0.000 A 
ATOM      6  C   UNL     1       2.237   7.357  19.738  0.00  0.00    +0.000 A 
ENDROOT
BRANCH   4   7
ATOM      7  N   UNL     1       0.215  10.515  20.116  0.00  0.00    +0.000 N 
ATOM      8  C   UNL     1       0.702  11.272  21.142  0.00  0.00    +0.000 A 
ATOM      9  C   UNL     1       1.496  12.493  20.630  0.00  0.00    +0.000 C 
ATOM     10  N   UNL     1       0.007  11.399  22.221  0.00  0.00    +0.000 NA
ATOM     11  C   UNL     1      -1.209  12.031  21.899  0.00  0.00    +0.000 A 
ATOM     12  C   UNL     1      -1.685  13.037  22.751  0.00  0.00    +0.000 A 
ATOM     13  C   UNL     1      -2.433  14.075  22.213  0.00  0.00    +0.000 A 
ATOM     14  C   UNL     1      -2.732  14.082  20.841  0.00  0.00    +0.000 A 
ATOM     15  C   UNL     1      -2.402  12.986  20.029  0.00  0.00    +0.000 A 
ATOM     16  C   UNL     1      -1.684  11.930  20.579  0.00  0.00    +0.000 A 
ATOM     17  C   UNL     1      -1.101  10.826  19.751  0.00  0.00    +0.000 A 
ATOM     18  O   UNL     1      -1.762  10.329  18.847  0.00  0.00    +0.000 OA
ENDBRANCH   4   7
BRANCH   1  19
ATOM     19  O   UNL     1       3.556   6.522  17.846  0.00  0.00    +0.000 OA
BRANCH  19  23
ATOM     20  N   UNL     1       6.031   4.127  16.909  0.00  0.00    +0.000 NA
ATOM     21  C   UNL     1       6.253   5.273  17.810  0.00  0.00    +0.000 C 
ATOM     22  C   UNL     1       5.308   5.241  19.009  0.00  0.00    +0.000 C 
ATOM     23  C   UNL     1       3.848   5.298  18.552  0.00  0.00    +0.000 C 
ATOM     24  C   UNL     1       3.624   4.106  17.617  0.00  0.00    +0.000 C 
ATOM     25  C   UNL     1       4.626   4.079  16.457  0.00  0.00    +0.000 C 
BRANCH  20  26
ATOM     26  C   UNL     1       6.923   4.189  15.737  0.00  0.00    +0.000 C 
BRANCH  26  27
ATOM     27  C   UNL     1       6.395   4.978  14.531  0.00  0.00    +0.000 C 
BRANCH  27  29
ATOM     28  C   UNL     1       6.007   3.421  12.593  0.00  0.00    +0.000 C 
ATOM     29  C   UNL     1       6.928   4.480  13.187  0.00  0.00    +0.000 C 
ENDBRANCH  27  29
ENDBRANCH  26  27
ENDBRANCH  20  26
ENDBRANCH  19  23
ENDBRANCH   1  19
TORSDOF 6
ENDMDL
MODEL 5
REMARK VINA RESULT:      -8.0      0.907      1.395
REMARK  Name = 
REMARK  8 active torsions:
REMARK  status: ('A' for Active; 'I' for Inactive)
REMARK    1  A    between atoms: C_1  and  C_2
REMARK    2  A    between atoms: C_2  and  C_3
REMARK    3  A    between atoms: C_3  and  C_4
REMARK    4  A    between atoms: C_4  and  N_5
REMARK    5  A    between atoms: C_8  and  O_9
REMARK    6  A    between atoms: O_9  and  C_10
REMARK    7  A    between atoms: C_13  and  N_14
REMARK    8  A    between atoms: C_15  and  C_16
REMARK                            x       y       z     vdW  Elec       q    Type
REMARK                         _______ _______ _______ _____ _____    ______ ____
ROOT
ATOM      1  C   UNL     1       2.200   7.729  19.052  0.00  0.00    +0.000 A 
ATOM      2  C   UNL     1       1.845   7.555  20.397  0.00  0.00    +0.000 A 
ATOM      3  C   UNL     1       1.097   8.527  21.100  0.00  0.00    +0.000 A 
ATOM      4  C   UNL     1       0.657   9.694  20.457  0.00  0.00    +0.000 A 
ATOM      5  C   UNL     1       1.029   9.854  19.113  0.00  0.00    +0.000 A 
ATOM      6  C   UNL     1       1.803   8.905  18.423  0.00  0.00    +0.000 A 
ENDROOT
BRANCH   4   7
ATOM      7  N   UNL     1      -0.101  10.746  21.102  0.00  0.00    +0.000 N 
ATOM      8  C   UNL     1      -0.487  11.825  20.361  0.00  0.00    +0.000 A 
ATOM      9  C   UNL     1      -1.798  11.555  19.591  0.00  0.00    +0.000 C 
ATOM     10  N   UNL     1      -0.273  13.014  20.813  0.00  0.00    +0.000 NA
ATOM     11  C   UNL     1      -0.989  13.172  22.015  0.00  0.00    +0.000 A 
ATOM     12  C   UNL     1      -1.677  14.373  22.228  0.00  0.00    +0.000 A 
ATOM     13  C   UNL     1      -2.842  14.356  22.983  0.00  0.00    +0.000 A 
ATOM     14  C   UNL     1      -3.288  13.152  23.550  0.00  0.00    +0.000 A 
ATOM     15  C   UNL     1      -2.504  11.991  23.478  0.00  0.00    +0.000 A 
ATOM     16  C   UNL     1      -1.319  12.020  22.751  0.00  0.00    +0.000 A 
ATOM     17  C   UNL     1      -0.528  10.787  22.436  0.00  0.00    +0.000 A 
ATOM     18  O   UNL     1      -0.353   9.938  23.303  0.00  0.00    +0.000 OA
ENDBRANCH   4   7
BRANCH   1  19
ATOM     19  O   UNL     1       2.926   6.724  18.473  0.00  0.00    +0.000 OA
BRANCH  19  23
ATOM     20  N   UNL     1       4.817   3.908  17.362  0.00  0.00    +0.000 NA
ATOM     21  C   UNL     1       5.358   5.052  18.119  0.00  0.00    +0.000 C 
ATOM     22  C   UNL     1       4.633   5.241  19.450  0.00  0.00    +0.000 C 
ATOM     23  C   UNL     1       3.143   5.510  19.223  0.00  0.00    +0.000 C 
ATOM     24  C   UNL     1       2.588   4.320  18.436  0.00  0.00    +0.000 C 
ATOM     25  C   UNL     1       3.366   4.065  17.140  0.00  0.00    +0.000 C 
BRANCH  20  26
ATOM     26  C   UNL     1       5.501   3.758  16.063  0.00  0.00    +0.000 C 
BRANCH  26  27
ATOM     27  C   UNL     1       6.461   4.891  15.674  0.00  0.00    +0.000 C 
BRANCH  27  29
ATOM     28  C   UNL     1       6.156   3.755  13.449  0.00  0.00    +0.000 C 
ATOM     29  C   UNL     1       6.871   4.872  14.201  0.00  0.00    +0.000 C 
ENDBRANCH  27  29
ENDBRANCH  26  27
ENDBRANCH  20  26
ENDBRANCH  19  23
ENDBRANCH   1  19
TORSDOF 6
ENDMDL
MODEL 6
REMARK VINA RESULT:      -8.0      1.680      2.294
REMARK  Name = 
REMARK  8 active torsions:
REMARK  status: ('A' for Active; 'I' for Inactive)
REMARK    1  A    between atoms: C_1  and  C_2
REMARK    2  A    between atoms: C_2  and  C_3
REMARK    3  A    between atoms: C_3  and  C_4
REMARK    4  A    between atoms: C_4  and  N_5
REMARK    5  A    between atoms: C_8  and  O_9
REMARK    6  A    between atoms: O_9  and  C_10
REMARK    7  A    between atoms: C_13  and  N_14
REMARK    8  A    between atoms: C_15  and  C_16
REMARK                            x       y       z     vdW  Elec       q    Type
REMARK                         _______ _______ _______ _____ _____    ______ ____
ROOT
ATOM      1  C   UNL     1       2.203   7.878  18.913  0.00  0.00    +0.000 A 
ATOM      2  C   UNL     1       1.835   9.020  18.189  0.00  0.00    +0.000 A 
ATOM      3  C   UNL     1       1.073  10.057  18.776  0.00  0.00    +0.000 A 
ATOM      4  C   UNL     1       0.682   9.986  20.121  0.00  0.00    +0.000 A 
ATOM      5  C   UNL     1       1.053   8.830  20.826  0.00  0.00    +0.000 A 
ATOM      6  C   UNL     1       1.781   7.782  20.235  0.00  0.00    +0.000 A 
ENDROOT
BRANCH   4   7
ATOM      7  N   UNL     1      -0.109  10.994  20.797  0.00  0.00    +0.000 N 
ATOM      8  C   UNL     1      -0.671  11.992  20.056  0.00  0.00    +0.000 A 
ATOM      9  C   UNL     1      -2.018  11.562  19.438  0.00  0.00    +0.000 C 
ATOM     10  N   UNL     1      -0.530  13.218  20.433  0.00  0.00    +0.000 NA
ATOM     11  C   UNL     1      -1.135  13.371  21.695  0.00  0.00    +0.000 A 
ATOM     12  C   UNL     1      -1.913  14.511  21.928  0.00  0.00    +0.000 A 
ATOM     13  C   UNL     1      -2.990  14.424  22.801  0.00  0.00    +0.000 A 
ATOM     14  C   UNL     1      -3.256  13.214  23.461  0.00  0.00    +0.000 A 
ATOM     15  C   UNL     1      -2.373  12.129  23.356  0.00  0.00    +0.000 A 
ATOM     16  C   UNL     1      -1.275  12.232  22.509  0.00  0.00    +0.000 A 
ATOM     17  C   UNL     1      -0.402  11.064  22.165  0.00  0.00    +0.000 A 
ATOM     18  O   UNL     1      -0.059  10.281  23.043  0.00  0.00    +0.000 OA
ENDBRANCH   4   7
BRANCH   1  19
ATOM     19  O   UNL     1       2.939   6.938  18.244  0.00  0.00    +0.000 OA
BRANCH  19  23
ATOM     20  N   UNL     1       5.504   4.457  18.174  0.00  0.00    +0.000 NA
ATOM     21  C   UNL     1       5.168   5.301  19.335  0.00  0.00    +0.000 C 
ATOM     22  C   UNL     1       3.705   5.141  19.744  0.00  0.00    +0.000 C 
ATOM     23  C   UNL     1       2.773   5.549  18.600  0.00  0.00    +0.000 C 
ATOM     24  C   UNL     1       3.128   4.671  17.398  0.00  0.00    +0.000 C 
ATOM     25  C   UNL     1       4.615   4.754  17.034  0.00  0.00    +0.000 C 
BRANCH  20  26
ATOM     26  C   UNL     1       6.909   4.648  17.766  0.00  0.00    +0.000 C 
BRANCH  26  27
ATOM     27  C   UNL     1       7.255   6.020  17.170  0.00  0.00    +0.000 C 
BRANCH  27  29
ATOM     28  C   UNL     1       7.843   8.416  17.667  0.00  0.00    +0.000 C 
ATOM     29  C   UNL     1       7.911   6.976  18.166  0.00  0.00    +0.000 C 
ENDBRANCH  27  29
ENDBRANCH  26  27
ENDBRANCH  20  26
ENDBRANCH  19  23
ENDBRANCH   1  19
TORSDOF 6
ENDMDL
MODEL 7
REMARK VINA RESULT:      -7.9      1.919      2.794
REMARK  Name = 
REMARK  8 active torsions:
REMARK  status: ('A' for Active; 'I' for Inactive)
REMARK    1  A    between atoms: C_1  and  C_2
REMARK    2  A    between atoms: C_2  and  C_3
REMARK    3  A    between atoms: C_3  and  C_4
REMARK    4  A    between atoms: C_4  and  N_5
REMARK    5  A    between atoms: C_8  and  O_9
REMARK    6  A    between atoms: O_9  and  C_10
REMARK    7  A    between atoms: C_13  and  N_14
REMARK    8  A    between atoms: C_15  and  C_16
REMARK                            x       y       z     vdW  Elec       q    Type
REMARK                         _______ _______ _______ _____ _____    ______ ____
ROOT
ATOM      1  C   UNL     1       2.256   7.744  18.603  0.00  0.00    +0.000 A 
ATOM      2  C   UNL     1       1.829   8.829  17.823  0.00  0.00    +0.000 A 
ATOM      3  C   UNL     1       1.060   9.881  18.372  0.00  0.00    +0.000 A 
ATOM      4  C   UNL     1       0.720   9.885  19.732  0.00  0.00    +0.000 A 
ATOM      5  C   UNL     1       1.150   8.787  20.494  0.00  0.00    +0.000 A 
ATOM      6  C   UNL     1       1.885   7.723  19.943  0.00  0.00    +0.000 A 
ENDROOT
BRANCH   4   7
ATOM      7  N   UNL     1      -0.074  10.913  20.373  0.00  0.00    +0.000 N 
ATOM      8  C   UNL     1       0.467  11.601  21.420  0.00  0.00    +0.000 A 
ATOM      9  C   UNL     1       1.340  12.781  20.944  0.00  0.00    +0.000 C 
ATOM     10  N   UNL     1      -0.214  11.739  22.508  0.00  0.00    +0.000 NA
ATOM     11  C   UNL     1      -1.385  12.463  22.214  0.00  0.00    +0.000 A 
ATOM     12  C   UNL     1      -1.787  13.470  23.101  0.00  0.00    +0.000 A 
ATOM     13  C   UNL     1      -2.464  14.574  22.602  0.00  0.00    +0.000 A 
ATOM     14  C   UNL     1      -2.768  14.646  21.233  0.00  0.00    +0.000 A 
ATOM     15  C   UNL     1      -2.516  13.558  20.383  0.00  0.00    +0.000 A 
ATOM     16  C   UNL     1      -1.870  12.438  20.894  0.00  0.00    +0.000 A 
ATOM     17  C   UNL     1      -1.367  11.325  20.027  0.00  0.00    +0.000 A 
ATOM     18  O   UNL     1      -2.064  10.904  19.110  0.00  0.00    +0.000 OA
ENDBRANCH   4   7
BRANCH   1  19
ATOM     19  O   UNL     1       2.994   6.784  17.966  0.00  0.00    +0.000 OA
BRANCH  19  23
ATOM     20  N   UNL     1       5.654   4.415  18.194  0.00  0.00    +0.000 NA
ATOM     21  C   UNL     1       5.218   5.313  19.280  0.00  0.00    +0.000 C 
ATOM     22  C   UNL     1       3.741   5.115  19.616  0.00  0.00    +0.000 C 
ATOM     23  C   UNL     1       2.862   5.413  18.399  0.00  0.00    +0.000 C 
ATOM     24  C   UNL     1       3.321   4.479  17.276  0.00  0.00    +0.000 C 
ATOM     25  C   UNL     1       4.822   4.605  16.990  0.00  0.00    +0.000 C 
BRANCH  20  26
ATOM     26  C   UNL     1       7.071   4.641  17.853  0.00  0.00    +0.000 C 
BRANCH  26  27
ATOM     27  C   UNL     1       7.405   6.007  17.237  0.00  0.00    +0.000 C 
BRANCH  27  29
ATOM     28  C   UNL     1       7.891   8.438  17.672  0.00  0.00    +0.000 C 
ATOM     29  C   UNL     1       7.932   7.026  18.248  0.00  0.00    +0.000 C 
ENDBRANCH  27  29
ENDBRANCH  26  27
ENDBRANCH  20  26
ENDBRANCH  19  23
ENDBRANCH   1  19
TORSDOF 6
ENDMDL
MODEL 8
REMARK VINA RESULT:      -7.8      1.543      2.424
REMARK  Name = 
REMARK  8 active torsions:
REMARK  status: ('A' for Active; 'I' for Inactive)
REMARK    1  A    between atoms: C_1  and  C_2
REMARK    2  A    between atoms: C_2  and  C_3
REMARK    3  A    between atoms: C_3  and  C_4
REMARK    4  A    between atoms: C_4  and  N_5
REMARK    5  A    between atoms: C_8  and  O_9
REMARK    6  A    between atoms: O_9  and  C_10
REMARK    7  A    between atoms: C_13  and  N_14
REMARK    8  A    between atoms: C_15  and  C_16
REMARK                            x       y       z     vdW  Elec       q    Type
REMARK                         _______ _______ _______ _____ _____    ______ ____
ROOT
ATOM      1  C   UNL     1       2.396   7.431  18.411  0.00  0.00    +0.000 A 
ATOM      2  C   UNL     1       2.026   7.234  19.749  0.00  0.00    +0.000 A 
ATOM      3  C   UNL     1       1.348   8.232  20.487  0.00  0.00    +0.000 A 
ATOM      4  C   UNL     1       0.995   9.450  19.888  0.00  0.00    +0.000 A 
ATOM      5  C   UNL     1       1.381   9.631  18.550  0.00  0.00    +0.000 A 
ATOM      6  C   UNL     1       2.087   8.655  17.825  0.00  0.00    +0.000 A 
ENDROOT
BRANCH   4   7
ATOM      7  N   UNL     1       0.312  10.529  20.571  0.00  0.00    +0.000 N 
ATOM      8  C   UNL     1      -0.212  11.547  19.828  0.00  0.00    +0.000 A 
ATOM      9  C   UNL     1      -1.615  11.200  19.286  0.00  0.00    +0.000 C 
ATOM     10  N   UNL     1       0.034  12.768  20.163  0.00  0.00    +0.000 NA
ATOM     11  C   UNL     1      -0.497  12.996  21.446  0.00  0.00    +0.000 A 
ATOM     12  C   UNL     1      -1.180  14.196  21.683  0.00  0.00    +0.000 A 
ATOM     13  C   UNL     1      -2.217  14.209  22.606  0.00  0.00    +0.000 A 
ATOM     14  C   UNL     1      -2.537  13.039  23.312  0.00  0.00    +0.000 A 
ATOM     15  C   UNL     1      -1.739  11.890  23.198  0.00  0.00    +0.000 A 
ATOM     16  C   UNL     1      -0.679  11.891  22.299  0.00  0.00    +0.000 A 
ATOM     17  C   UNL     1       0.091  10.655  21.948  0.00  0.00    +0.000 A 
ATOM     18  O   UNL     1       0.419   9.871  22.832  0.00  0.00    +0.000 OA
ENDBRANCH   4   7
BRANCH   1  19
ATOM     19  O   UNL     1       3.050   6.398  17.796  0.00  0.00    +0.000 OA
BRANCH  19  23
ATOM     20  N   UNL     1       5.955   4.391  18.320  0.00  0.00    +0.000 NA
ATOM     21  C   UNL     1       5.439   5.405  19.260  0.00  0.00    +0.000 C 
ATOM     22  C   UNL     1       3.997   5.111  19.670  0.00  0.00    +0.000 C 
ATOM     23  C   UNL     1       3.074   5.111  18.449  0.00  0.00    +0.000 C 
ATOM     24  C   UNL     1       3.615   4.059  17.478  0.00  0.00    +0.000 C 
ATOM     25  C   UNL     1       5.090   4.292  17.128  0.00  0.00    +0.000 C 
BRANCH  20  26
ATOM     26  C   UNL     1       7.334   4.706  17.903  0.00  0.00    +0.000 C 
BRANCH  26  27
ATOM     27  C   UNL     1       7.553   6.101  17.301  0.00  0.00    +0.000 C 
BRANCH  27  29
ATOM     28  C   UNL     1       7.963   8.547  17.727  0.00  0.00    +0.000 C 
ATOM     29  C   UNL     1       8.031   7.141  18.314  0.00  0.00    +0.000 C 
ENDBRANCH  27  29
ENDBRANCH  26  27
ENDBRANCH  20  26
ENDBRANCH  19  23
ENDBRANCH   1  19
TORSDOF 6
ENDMDL
MODEL 9
REMARK VINA RESULT:      -7.7      1.322      1.672
REMARK  Name = 
REMARK  8 active torsions:
REMARK  status: ('A' for Active; 'I' for Inactive)
REMARK    1  A    between atoms: C_1  and  C_2
REMARK    2  A    between atoms: C_2  and  C_3
REMARK    3  A    between atoms: C_3  and  C_4
REMARK    4  A    between atoms: C_4  and  N_5
REMARK    5  A    between atoms: C_8  and  O_9
REMARK    6  A    between atoms: O_9  and  C_10
REMARK    7  A    between atoms: C_13  and  N_14
REMARK    8  A    between atoms: C_15  and  C_16
REMARK                            x       y       z     vdW  Elec       q    Type
REMARK                         _______ _______ _______ _____ _____    ______ ____
ROOT
ATOM      1  C   UNL     1       2.673   7.052  18.405  0.00  0.00    +0.000 A 
ATOM      2  C   UNL     1       2.441   8.154  17.571  0.00  0.00    +0.000 A 
ATOM      3  C   UNL     1       1.810   9.327  18.048  0.00  0.00    +0.000 A 
ATOM      4  C   UNL     1       1.419   9.433  19.391  0.00  0.00    +0.000 A 
ATOM      5  C   UNL     1       1.653   8.316  20.208  0.00  0.00    +0.000 A 
ATOM      6  C   UNL     1       2.248   7.136  19.727  0.00  0.00    +0.000 A 
ENDROOT
BRANCH   4   7
ATOM      7  N   UNL     1       0.757  10.589  19.960  0.00  0.00    +0.000 N 
ATOM      8  C   UNL     1      -0.412  10.406  20.640  0.00  0.00    +0.000 A 
ATOM      9  C   UNL     1      -0.166  10.008  22.111  0.00  0.00    +0.000 C 
ATOM     10  N   UNL     1      -1.428  11.152  20.366  0.00  0.00    +0.000 NA
ATOM     11  C   UNL     1      -1.092  12.489  20.652  0.00  0.00    +0.000 A 
ATOM     12  C   UNL     1      -2.037  13.289  21.307  0.00  0.00    +0.000 A 
ATOM     13  C   UNL     1      -1.593  14.298  22.152  0.00  0.00    +0.000 A 
ATOM     14  C   UNL     1      -0.216  14.525  22.304  0.00  0.00    +0.000 A 
ATOM     15  C   UNL     1       0.717  13.837  21.514  0.00  0.00    +0.000 A 
ATOM     16  C   UNL     1       0.267  12.852  20.642  0.00  0.00    +0.000 A 
ATOM     17  C   UNL     1       1.193  11.920  19.921  0.00  0.00    +0.000 A 
ATOM     18  O   UNL     1       2.220  12.355  19.413  0.00  0.00    +0.000 OA
ENDBRANCH   4   7
BRANCH   1  19
ATOM     19  O   UNL     1       3.290   5.971  17.836  0.00  0.00    +0.000 OA
BRANCH  19  23
ATOM     20  N   UNL     1       6.264   4.453  16.574  0.00  0.00    +0.000 NA
ATOM     21  C   UNL     1       6.165   5.830  17.093  0.00  0.00    +0.000 C 
ATOM     22  C   UNL     1       5.650   5.856  18.530  0.00  0.00    +0.000 C 
ATOM     23  C   UNL     1       4.254   5.234  18.619  0.00  0.00    +0.000 C 
ATOM     24  C   UNL     1       4.363   3.807  18.078  0.00  0.00    +0.000 C 
ATOM     25  C   UNL     1       4.963   3.762  16.668  0.00  0.00    +0.000 C 
BRANCH  20  26
ATOM     26  C   UNL     1       6.726   4.443  15.173  0.00  0.00    +0.000 C 
BRANCH  26  27
ATOM     27  C   UNL     1       5.648   4.190  14.111  0.00  0.00    +0.000 C 
BRANCH  27  29
ATOM     28  C   UNL     1       5.053   3.202  11.874  0.00  0.00    +0.000 C 
ATOM     29  C   UNL     1       6.190   3.594  12.812  0.00  0.00    +0.000 C 
ENDBRANCH  27  29
ENDBRANCH  26  27
ENDBRANCH  20  26
ENDBRANCH  19  23
ENDBRANCH   1  19
TORSDOF 6
ENDMDL
