MODEL 1
REMARK VINA RESULT:      -7.9      0.000      0.000
REMARK  Name = 
REMARK  10 active torsions:
REMARK  status: ('A' for Active; 'I' for Inactive)
REMARK    1  A    between atoms: C_1  and  C_2
REMARK    2  A    between atoms: C_2  and  C_3
REMARK    3  A    between atoms: C_2  and  O_4
REMARK    4  A    between atoms: O_4  and  C_5
REMARK    5  A    between atoms: C_8  and  C_9
REMARK    6  A    between atoms: C_11  and  C_12
REMARK    7  A    between atoms: N_19  and  C_20
REMARK    8  A    between atoms: C_20  and  C_21
REMARK    9  A    between atoms: C_21  and  C_22
REMARK   10  A    between atoms: C_22  and  O_24
REMARK                            x       y       z     vdW  Elec       q    Type
REMARK                         _______ _______ _______ _____ _____    ______ ____
ROOT
ATOM      1  C   UNL     1       1.265   7.970  20.699  0.00  0.00    +0.000 A 
ATOM      2  N   UNL     1       2.094   7.947  19.679  0.00  0.00    +0.000 NA
ATOM      3  C   UNL     1       2.433   6.606  19.604  0.00  0.00    +0.000 A 
ATOM      4  N   UNL     1       1.858   5.845  20.545  0.00  0.00    +0.000 NA
ATOM      5  O   UNL     1       1.095   6.740  21.270  0.00  0.00    +0.000 OA
ENDROOT
BRANCH   3   6
ATOM      6  C   UNL     1       3.321   6.066  18.582  0.00  0.00    +0.000 A 
ATOM      7  C   UNL     1       2.938   4.953  17.821  0.00  0.00    +0.000 A 
ATOM      8  C   UNL     1       3.784   4.395  16.856  0.00  0.00    +0.000 A 
ATOM      9  C   UNL     1       5.037   4.993  16.656  0.00  0.00    +0.000 A 
ATOM     10  C   UNL     1       5.444   6.108  17.397  0.00  0.00    +0.000 A 
ATOM     11  C   UNL     1       6.755   6.445  16.972  0.00  0.00    +0.000 A 
ATOM     12  C   UNL     1       7.119   5.552  15.994  0.00  0.00    +0.000 A 
ATOM     13  N   UNL     1       6.074   4.684  15.798  0.00  0.00    +0.000 N 
ATOM     14  C   UNL     1       4.577   6.649  18.365  0.00  0.00    +0.000 A 
BRANCH  13  15
ATOM     15  C   UNL     1       6.114   3.569  14.863  0.00  0.00    +0.000 C 
BRANCH  15  16
ATOM     16  C   UNL     1       5.463   3.884  13.521  0.00  0.00    +0.000 C 
BRANCH  16  17
ATOM     17  C   UNL     1       6.387   3.504  12.397  0.00  0.00    +0.000 C 
ATOM     18  O   UNL     1       7.239   4.232  11.915  0.00  0.00    +0.000 OA
BRANCH  17  19
ATOM     19  O   UNL     1       6.183   2.241  11.959  0.00  0.00    +0.000 OA
ATOM     20  H   UNL     1       6.182   2.145  10.987  0.00  0.00    +0.000 HD
ENDBRANCH  17  19
ENDBRANCH  16  17
ENDBRANCH  15  16
ENDBRANCH  13  15
ENDBRANCH   3   6
BRANCH   1  24
ATOM     21  C   UNL     1      -0.966  11.249  22.346  0.00  0.00    +0.000 A 
ATOM     22  C   UNL     1      -0.742  10.086  23.101  0.00  0.00    +0.000 A 
ATOM     23  C   UNL     1      -0.036   8.993  22.571  0.00  0.00    +0.000 A 
ATOM     24  C   UNL     1       0.455   9.042  21.261  0.00  0.00    +0.000 A 
ATOM     25  C   UNL     1       0.215  10.198  20.511  0.00  0.00    +0.000 A 
ATOM     26  C   UNL     1      -0.441  11.308  21.050  0.00  0.00    +0.000 A 
ATOM     27 CL   UNL     1      -0.406  12.715  20.048  0.00  0.00    +0.000 Cl
BRANCH  21  28
ATOM     28  O   UNL     1      -1.616  12.242  23.027  0.00  0.00    +0.000 OA
BRANCH  28  30
ATOM     29  C   UNL     1      -3.735  12.476  24.142  0.00  0.00    +0.000 C 
ATOM     30  C   UNL     1      -3.019  12.421  22.793  0.00  0.00    +0.000 C 
ATOM     31  C   UNL     1      -3.222  13.743  22.056  0.00  0.00    +0.000 C 
ENDBRANCH  28  30
ENDBRANCH  21  28
ENDBRANCH   1  24
TORSDOF 8
ENDMDL
MODEL 2
REMARK VINA RESULT:      -7.8      2.615     11.171
REMARK  Name = 
REMARK  10 active torsions:
REMARK  status: ('A' for Active; 'I' for Inactive)
REMARK    1  A    between atoms: C_1  and  C_2
REMARK    2  A    between atoms: C_2  and  C_3
REMARK    3  A    between atoms: C_2  and  O_4
REMARK    4  A    between atoms: O_4  and  C_5
REMARK    5  A    between atoms: C_8  and  C_9
REMARK    6  A    between atoms: C_11  and  C_12
REMARK    7  A    between atoms: N_19  and  C_20
REMARK    8  A    between atoms: C_20  and  C_21
REMARK    9  A    between atoms: C_21  and  C_22
REMARK   10  A    between atoms: C_22  and  O_24
REMARK                            x       y       z     vdW  Elec       q    Type
REMARK                         _______ _______ _______ _____ _____    ______ ____
ROOT
ATOM      1  C   UNL     1       2.943   6.315  19.056  0.00  0.00    +0.000 A 
ATOM      2  N   UNL     1       2.466   7.538  19.120  0.00  0.00    +0.000 NA
ATOM      3  C   UNL     1       1.700   7.496  20.273  0.00  0.00    +0.000 A 
ATOM      4  N   UNL     1       1.689   6.300  20.878  0.00  0.00    +0.000 NA
ATOM      5  O   UNL     1       2.500   5.520  20.075  0.00  0.00    +0.000 OA
ENDROOT
BRANCH   3   6
ATOM      6  C   UNL     1       0.985   8.653  20.796  0.00  0.00    +0.000 A 
ATOM      7  C   UNL     1       0.780   8.802  22.174  0.00  0.00    +0.000 A 
ATOM      8  C   UNL     1       0.069   9.886  22.700  0.00  0.00    +0.000 A 
ATOM      9  C   UNL     1      -0.430  10.842  21.802  0.00  0.00    +0.000 A 
ATOM     10  C   UNL     1      -0.237  10.723  20.422  0.00  0.00    +0.000 A 
ATOM     11  C   UNL     1      -0.879  11.827  19.805  0.00  0.00    +0.000 A 
ATOM     12  C   UNL     1      -1.440  12.592  20.799  0.00  0.00    +0.000 A 
ATOM     13  N   UNL     1      -1.156  11.999  22.004  0.00  0.00    +0.000 N 
ATOM     14  C   UNL     1       0.479   9.621  19.916  0.00  0.00    +0.000 A 
BRANCH  13  15
ATOM     15  C   UNL     1      -1.627  12.507  23.285  0.00  0.00    +0.000 C 
BRANCH  15  16
ATOM     16  C   UNL     1      -2.862  13.394  23.165  0.00  0.00    +0.000 C 
BRANCH  16  17
ATOM     17  C   UNL     1      -4.105  12.584  23.409  0.00  0.00    +0.000 C 
ATOM     18  O   UNL     1      -4.450  12.138  24.491  0.00  0.00    +0.000 OA
BRANCH  17  19
ATOM     19  O   UNL     1      -4.830  12.392  22.283  0.00  0.00    +0.000 OA
ATOM     20  H   UNL     1      -4.407  12.726  21.468  0.00  0.00    +0.000 HD
ENDBRANCH  17  19
ENDBRANCH  16  17
ENDBRANCH  15  16
ENDBRANCH  13  15
ENDBRANCH   3   6
BRANCH   1  24
ATOM     21  C   UNL     1       5.775   4.666  16.280  0.00  0.00    +0.000 A 
ATOM     22  C   UNL     1       4.501   4.093  16.427  0.00  0.00    +0.000 A 
ATOM     23  C   UNL     1       3.571   4.602  17.348  0.00  0.00    +0.000 A 
ATOM     24  C   UNL     1       3.904   5.699  18.150  0.00  0.00    +0.000 A 
ATOM     25  C   UNL     1       5.180   6.256  18.007  0.00  0.00    +0.000 A 
ATOM     26  C   UNL     1       6.090   5.786  17.057  0.00  0.00    +0.000 A 
ATOM     27 CL   UNL     1       7.499   6.769  16.870  0.00  0.00    +0.000 Cl
BRANCH  21  28
ATOM     28  O   UNL     1       6.538   4.091  15.300  0.00  0.00    +0.000 OA
BRANCH  28  30
ATOM     29  C   UNL     1       7.776   5.199  13.559  0.00  0.00    +0.000 C 
ATOM     30  C   UNL     1       6.428   4.605  13.965  0.00  0.00    +0.000 C 
ATOM     31  C   UNL     1       6.079   3.450  13.029  0.00  0.00    +0.000 C 
ENDBRANCH  28  30
ENDBRANCH  21  28
ENDBRANCH   1  24
TORSDOF 8
ENDMDL
MODEL 3
REMARK VINA RESULT:      -7.7      1.818      2.546
REMARK  Name = 
REMARK  10 active torsions:
REMARK  status: ('A' for Active; 'I' for Inactive)
REMARK    1  A    between atoms: C_1  and  C_2
REMARK    2  A    between atoms: C_2  and  C_3
REMARK    3  A    between atoms: C_2  and  O_4
REMARK    4  A    between atoms: O_4  and  C_5
REMARK    5  A    between atoms: C_8  and  C_9
REMARK    6  A    between atoms: C_11  and  C_12
REMARK    7  A    between atoms: N_19  and  C_20
REMARK    8  A    between atoms: C_20  and  C_21
REMARK    9  A    between atoms: C_21  and  C_22
REMARK   10  A    between atoms: C_22  and  O_24
REMARK                            x       y       z     vdW  Elec       q    Type
REMARK                         _______ _______ _______ _____ _____    ______ ____
ROOT
ATOM      1  C   UNL     1       0.480   9.825  19.724  0.00  0.00    +0.000 A 
ATOM      2  N   UNL     1       1.016   8.624  19.710  0.00  0.00    +0.000 NA
ATOM      3  C   UNL     1       1.796   8.662  18.566  0.00  0.00    +0.000 A 
ATOM      4  N   UNL     1       1.726   9.820  17.896  0.00  0.00    +0.000 NA
ATOM      5  O   UNL     1       0.857  10.584  18.652  0.00  0.00    +0.000 OA
ENDROOT
BRANCH   3   6
ATOM      6  C   UNL     1       2.632   7.548  18.137  0.00  0.00    +0.000 A 
ATOM      7  C   UNL     1       3.819   7.780  17.429  0.00  0.00    +0.000 A 
ATOM      8  C   UNL     1       4.624   6.729  16.977  0.00  0.00    +0.000 A 
ATOM      9  C   UNL     1       4.217   5.418  17.267  0.00  0.00    +0.000 A 
ATOM     10  C   UNL     1       3.041   5.156  17.977  0.00  0.00    +0.000 A 
ATOM     11  C   UNL     1       2.908   3.747  18.077  0.00  0.00    +0.000 A 
ATOM     12  C   UNL     1       3.988   3.181  17.443  0.00  0.00    +0.000 A 
ATOM     13  N   UNL     1       4.781   4.195  16.965  0.00  0.00    +0.000 N 
ATOM     14  C   UNL     1       2.244   6.231  18.417  0.00  0.00    +0.000 A 
BRANCH  13  15
ATOM     15  C   UNL     1       5.998   3.974  16.197  0.00  0.00    +0.000 C 
BRANCH  15  16
ATOM     16  C   UNL     1       5.778   4.028  14.689  0.00  0.00    +0.000 C 
BRANCH  16  17
ATOM     17  C   UNL     1       6.942   4.708  14.022  0.00  0.00    +0.000 C 
ATOM     18  O   UNL     1       7.714   5.475  14.572  0.00  0.00    +0.000 OA
BRANCH  17  19
ATOM     19  O   UNL     1       7.058   4.378  12.715  0.00  0.00    +0.000 OA
ATOM     20  H   UNL     1       7.964   4.147  12.435  0.00  0.00    +0.000 HD
ENDBRANCH  17  19
ENDBRANCH  16  17
ENDBRANCH  15  16
ENDBRANCH  13  15
ENDBRANCH   3   6
BRANCH   1  24
ATOM     21  C   UNL     1      -1.915  11.971  22.569  0.00  0.00    +0.000 A 
ATOM     22  C   UNL     1      -1.046  10.952  22.991  0.00  0.00    +0.000 A 
ATOM     23  C   UNL     1      -0.273  10.222  22.073  0.00  0.00    +0.000 A 
ATOM     24  C   UNL     1      -0.363  10.495  20.704  0.00  0.00    +0.000 A 
ATOM     25  C   UNL     1      -1.243  11.503  20.290  0.00  0.00    +0.000 A 
ATOM     26  C   UNL     1      -1.975  12.267  21.203  0.00  0.00    +0.000 A 
ATOM     27 CL   UNL     1      -2.796  13.618  20.507  0.00  0.00    +0.000 Cl
BRANCH  21  28
ATOM     28  O   UNL     1      -2.548  12.626  23.591  0.00  0.00    +0.000 OA
BRANCH  28  30
ATOM     29  C   UNL     1      -3.535  14.555  24.636  0.00  0.00    +0.000 C 
ATOM     30  C   UNL     1      -2.545  14.060  23.583  0.00  0.00    +0.000 C 
ATOM     31  C   UNL     1      -1.141  14.542  23.940  0.00  0.00    +0.000 C 
ENDBRANCH  28  30
ENDBRANCH  21  28
ENDBRANCH   1  24
TORSDOF 8
ENDMDL
MODEL 4
REMARK VINA RESULT:      -7.7      3.805      4.514
REMARK  Name = 
REMARK  10 active torsions:
REMARK  status: ('A' for Active; 'I' for Inactive)
REMARK    1  A    between atoms: C_1  and  C_2
REMARK    2  A    between atoms: C_2  and  C_3
REMARK    3  A    between atoms: C_2  and  O_4
REMARK    4  A    between atoms: O_4  and  C_5
REMARK    5  A    between atoms: C_8  and  C_9
REMARK    6  A    between atoms: C_11  and  C_12
REMARK    7  A    between atoms: N_19  and  C_20
REMARK    8  A    between atoms: C_20  and  C_21
REMARK    9  A    between atoms: C_21  and  C_22
REMARK   10  A    between atoms: C_22  and  O_24
REMARK                            x       y       z     vdW  Elec       q    Type
REMARK                         _______ _______ _______ _____ _____    ______ ____
ROOT
ATOM      1  C   UNL     1      -0.376   9.877  17.956  0.00  0.00    +0.000 A 
ATOM      2  N   UNL     1       0.300   8.826  17.547  0.00  0.00    +0.000 NA
ATOM      3  C   UNL     1       1.453   8.901  18.312  0.00  0.00    +0.000 A 
ATOM      4  N   UNL     1       1.493   9.957  19.135  0.00  0.00    +0.000 NA
ATOM      5  O   UNL     1       0.295  10.604  18.898  0.00  0.00    +0.000 OA
ENDROOT
BRANCH   3   6
ATOM      6  C   UNL     1       2.519   7.909  18.243  0.00  0.00    +0.000 A 
ATOM      7  C   UNL     1       3.537   8.023  17.286  0.00  0.00    +0.000 A 
ATOM      8  C   UNL     1       4.554   7.069  17.177  0.00  0.00    +0.000 A 
ATOM      9  C   UNL     1       4.538   5.987  18.070  0.00  0.00    +0.000 A 
ATOM     10  C   UNL     1       3.539   5.850  19.039  0.00  0.00    +0.000 A 
ATOM     11  C   UNL     1       3.798   4.651  19.752  0.00  0.00    +0.000 A 
ATOM     12  C   UNL     1       4.934   4.088  19.222  0.00  0.00    +0.000 A 
ATOM     13  N   UNL     1       5.383   4.904  18.214  0.00  0.00    +0.000 N 
ATOM     14  C   UNL     1       2.523   6.822  19.127  0.00  0.00    +0.000 A 
BRANCH  13  15
ATOM     15  C   UNL     1       6.547   4.605  17.391  0.00  0.00    +0.000 C 
BRANCH  15  16
ATOM     16  C   UNL     1       6.205   3.832  16.122  0.00  0.00    +0.000 C 
BRANCH  16  17
ATOM     17  C   UNL     1       6.514   4.667  14.910  0.00  0.00    +0.000 C 
ATOM     18  O   UNL     1       7.530   5.323  14.752  0.00  0.00    +0.000 OA
BRANCH  17  19
ATOM     19  O   UNL     1       5.532   4.619  13.981  0.00  0.00    +0.000 OA
ATOM     20  H   UNL     1       5.586   3.855  13.375  0.00  0.00    +0.000 HD
ENDBRANCH  17  19
ENDBRANCH  16  17
ENDBRANCH  15  16
ENDBRANCH  13  15
ENDBRANCH   3   6
BRANCH   1  24
ATOM     21  C   UNL     1      -4.262  11.351  16.876  0.00  0.00    +0.000 A 
ATOM     22  C   UNL     1      -3.686  11.693  18.110  0.00  0.00    +0.000 A 
ATOM     23  C   UNL     1      -2.427  11.200  18.492  0.00  0.00    +0.000 A 
ATOM     24  C   UNL     1      -1.719  10.343  17.641  0.00  0.00    +0.000 A 
ATOM     25  C   UNL     1      -2.307   9.996  16.419  0.00  0.00    +0.000 A 
ATOM     26  C   UNL     1      -3.535  10.524  16.013  0.00  0.00    +0.000 A 
ATOM     27 CL   UNL     1      -3.956  10.173  14.374  0.00  0.00    +0.000 Cl
BRANCH  21  28
ATOM     28  O   UNL     1      -5.462  11.962  16.630  0.00  0.00    +0.000 OA
BRANCH  28  30
ATOM     29  C   UNL     1      -6.655  13.995  17.110  0.00  0.00    +0.000 C 
ATOM     30  C   UNL     1      -6.074  12.707  17.691  0.00  0.00    +0.000 C 
ATOM     31  C   UNL     1      -7.201  11.866  18.286  0.00  0.00    +0.000 C 
ENDBRANCH  28  30
ENDBRANCH  21  28
ENDBRANCH   1  24
TORSDOF 8
ENDMDL
MODEL 5
REMARK VINA RESULT:      -7.6      3.534      4.687
REMARK  Name = 
REMARK  10 active torsions:
REMARK  status: ('A' for Active; 'I' for Inactive)
REMARK    1  A    between atoms: C_1  and  C_2
REMARK    2  A    between atoms: C_2  and  C_3
REMARK    3  A    between atoms: C_2  and  O_4
REMARK    4  A    between atoms: O_4  and  C_5
REMARK    5  A    between atoms: C_8  and  C_9
REMARK    6  A    between atoms: C_11  and  C_12
REMARK    7  A    between atoms: N_19  and  C_20
REMARK    8  A    between atoms: C_20  and  C_21
REMARK    9  A    between atoms: C_21  and  C_22
REMARK   10  A    between atoms: C_22  and  O_24
REMARK                            x       y       z     vdW  Elec       q    Type
REMARK                         _______ _______ _______ _____ _____    ______ ____
ROOT
ATOM      1  C   UNL     1      -0.487  10.672  21.499  0.00  0.00    +0.000 A 
ATOM      2  N   UNL     1      -0.275   9.739  20.598  0.00  0.00    +0.000 NA
ATOM      3  C   UNL     1       0.868   9.120  21.077  0.00  0.00    +0.000 A 
ATOM      4  N   UNL     1       1.348   9.660  22.205  0.00  0.00    +0.000 NA
ATOM      5  O   UNL     1       0.464  10.685  22.481  0.00  0.00    +0.000 OA
ENDROOT
BRANCH   3   6
ATOM      6  C   UNL     1       1.484   7.972  20.424  0.00  0.00    +0.000 A 
ATOM      7  C   UNL     1       1.367   6.690  20.977  0.00  0.00    +0.000 A 
ATOM      8  C   UNL     1       1.975   5.575  20.389  0.00  0.00    +0.000 A 
ATOM      9  C   UNL     1       2.703   5.773  19.206  0.00  0.00    +0.000 A 
ATOM     10  C   UNL     1       2.833   7.040  18.628  0.00  0.00    +0.000 A 
ATOM     11  C   UNL     1       3.641   6.899  17.470  0.00  0.00    +0.000 A 
ATOM     12  C   UNL     1       3.982   5.573  17.359  0.00  0.00    +0.000 A 
ATOM     13  N   UNL     1       3.404   4.895  18.403  0.00  0.00    +0.000 N 
ATOM     14  C   UNL     1       2.215   8.147  19.241  0.00  0.00    +0.000 A 
BRANCH  13  15
ATOM     15  C   UNL     1       3.582   3.469  18.638  0.00  0.00    +0.000 C 
BRANCH  15  16
ATOM     16  C   UNL     1       2.526   2.609  17.953  0.00  0.00    +0.000 C 
BRANCH  16  17
ATOM     17  C   UNL     1       1.493   2.165  18.952  0.00  0.00    +0.000 C 
ATOM     18  O   UNL     1       1.685   2.047  20.151  0.00  0.00    +0.000 OA
BRANCH  17  19
ATOM     19  O   UNL     1       0.295   1.905  18.382  0.00  0.00    +0.000 OA
ATOM     20  H   UNL     1      -0.212   2.700  18.125  0.00  0.00    +0.000 HD
ENDBRANCH  17  19
ENDBRANCH  16  17
ENDBRANCH  15  16
ENDBRANCH  13  15
ENDBRANCH   3   6
BRANCH   1  24
ATOM     21  C   UNL     1      -3.824  13.319  22.041  0.00  0.00    +0.000 A 
ATOM     22  C   UNL     1      -3.194  13.211  20.791  0.00  0.00    +0.000 A 
ATOM     23  C   UNL     1      -2.085  12.370  20.600  0.00  0.00    +0.000 A 
ATOM     24  C   UNL     1      -1.578  11.622  21.668  0.00  0.00    +0.000 A 
ATOM     25  C   UNL     1      -2.204  11.746  22.915  0.00  0.00    +0.000 A 
ATOM     26  C   UNL     1      -3.338  12.541  23.097  0.00  0.00    +0.000 A 
ATOM     27 CL   UNL     1      -4.101  12.354  24.636  0.00  0.00    +0.000 Cl
BRANCH  21  28
ATOM     28  O   UNL     1      -4.925  14.133  22.044  0.00  0.00    +0.000 OA
BRANCH  28  30
ATOM     29  C   UNL     1      -7.029  14.173  23.212  0.00  0.00    +0.000 C 
ATOM     30  C   UNL     1      -6.222  13.520  22.091  0.00  0.00    +0.000 C 
ATOM     31  C   UNL     1      -6.919  13.764  20.754  0.00  0.00    +0.000 C 
ENDBRANCH  28  30
ENDBRANCH  21  28
ENDBRANCH   1  24
TORSDOF 8
ENDMDL
MODEL 6
REMARK VINA RESULT:      -7.6      2.975      3.867
REMARK  Name = 
REMARK  10 active torsions:
REMARK  status: ('A' for Active; 'I' for Inactive)
REMARK    1  A    between atoms: C_1  and  C_2
REMARK    2  A    between atoms: C_2  and  C_3
REMARK    3  A    between atoms: C_2  and  O_4
REMARK    4  A    between atoms: O_4  and  C_5
REMARK    5  A    between atoms: C_8  and  C_9
REMARK    6  A    between atoms: C_11  and  C_12
REMARK    7  A    between atoms: N_19  and  C_20
REMARK    8  A    between atoms: C_20  and  C_21
REMARK    9  A    between atoms: C_21  and  C_22
REMARK   10  A    between atoms: C_22  and  O_24
REMARK                            x       y       z     vdW  Elec       q    Type
REMARK                         _______ _______ _______ _____ _____    ______ ____
ROOT
ATOM      1  C   UNL     1       0.095  10.338  19.898  0.00  0.00    +0.000 A 
ATOM      2  N   UNL     1       1.046   9.467  20.155  0.00  0.00    +0.000 NA
ATOM      3  C   UNL     1       1.305   8.934  18.903  0.00  0.00    +0.000 A 
ATOM      4  N   UNL     1       0.537   9.437  17.927  0.00  0.00    +0.000 NA
ATOM      5  O   UNL     1      -0.264  10.355  18.579  0.00  0.00    +0.000 OA
ENDROOT
BRANCH   3   6
ATOM      6  C   UNL     1       2.333   7.930  18.663  0.00  0.00    +0.000 A 
ATOM      7  C   UNL     1       3.280   8.109  17.645  0.00  0.00    +0.000 A 
ATOM      8  C   UNL     1       4.258   7.146  17.373  0.00  0.00    +0.000 A 
ATOM      9  C   UNL     1       4.278   5.987  18.164  0.00  0.00    +0.000 A 
ATOM     10  C   UNL     1       3.350   5.784  19.190  0.00  0.00    +0.000 A 
ATOM     11  C   UNL     1       3.627   4.520  19.771  0.00  0.00    +0.000 A 
ATOM     12  C   UNL     1       4.703   3.983  19.107  0.00  0.00    +0.000 A 
ATOM     13  N   UNL     1       5.099   4.878  18.144  0.00  0.00    +0.000 N 
ATOM     14  C   UNL     1       2.372   6.766  19.443  0.00  0.00    +0.000 A 
BRANCH  13  15
ATOM     15  C   UNL     1       6.189   4.630  17.210  0.00  0.00    +0.000 C 
BRANCH  15  16
ATOM     16  C   UNL     1       7.563   4.644  17.870  0.00  0.00    +0.000 C 
BRANCH  16  17
ATOM     17  C   UNL     1       7.708   5.866  18.735  0.00  0.00    +0.000 C 
ATOM     18  O   UNL     1       7.739   7.015  18.326  0.00  0.00    +0.000 OA
BRANCH  17  19
ATOM     19  O   UNL     1       7.798   5.564  20.051  0.00  0.00    +0.000 OA
ATOM     20  H   UNL     1       8.655   5.791  20.460  0.00  0.00    +0.000 HD
ENDBRANCH  17  19
ENDBRANCH  16  17
ENDBRANCH  15  16
ENDBRANCH  13  15
ENDBRANCH   3   6
BRANCH   1  24
ATOM     21  C   UNL     1      -1.708  13.355  22.366  0.00  0.00    +0.000 A 
ATOM     22  C   UNL     1      -1.386  12.095  22.897  0.00  0.00    +0.000 A 
ATOM     23  C   UNL     1      -0.819  11.087  22.099  0.00  0.00    +0.000 A 
ATOM     24  C   UNL     1      -0.569  11.321  20.743  0.00  0.00    +0.000 A 
ATOM     25  C   UNL     1      -0.906  12.574  20.218  0.00  0.00    +0.000 A 
ATOM     26  C   UNL     1      -1.422  13.597  21.018  0.00  0.00    +0.000 A 
ATOM     27 CL   UNL     1      -1.526  15.133  20.234  0.00  0.00    +0.000 Cl
BRANCH  21  28
ATOM     28  O   UNL     1      -2.195  14.243  23.287  0.00  0.00    +0.000 OA
BRANCH  28  30
ATOM     29  C   UNL     1      -0.569  15.974  23.670  0.00  0.00    +0.000 C 
ATOM     30  C   UNL     1      -1.290  14.768  24.268  0.00  0.00    +0.000 C 
ATOM     31  C   UNL     1      -2.100  15.212  25.484  0.00  0.00    +0.000 C 
ENDBRANCH  28  30
ENDBRANCH  21  28
ENDBRANCH   1  24
TORSDOF 8
ENDMDL
MODEL 7
REMARK VINA RESULT:      -7.6      3.465     11.882
REMARK  Name = 
REMARK  10 active torsions:
REMARK  status: ('A' for Active; 'I' for Inactive)
REMARK    1  A    between atoms: C_1  and  C_2
REMARK    2  A    between atoms: C_2  and  C_3
REMARK    3  A    between atoms: C_2  and  O_4
REMARK    4  A    between atoms: O_4  and  C_5
REMARK    5  A    between atoms: C_8  and  C_9
REMARK    6  A    between atoms: C_11  and  C_12
REMARK    7  A    between atoms: N_19  and  C_20
REMARK    8  A    between atoms: C_20  and  C_21
REMARK    9  A    between atoms: C_21  and  C_22
REMARK   10  A    between atoms: C_22  and  O_24
REMARK                            x       y       z     vdW  Elec       q    Type
REMARK                         _______ _______ _______ _____ _____    ______ ____
ROOT
ATOM      1  C   UNL     1       1.016   8.915  20.720  0.00  0.00    +0.000 A 
ATOM      2  N   UNL     1      -0.013   9.717  20.556  0.00  0.00    +0.000 NA
ATOM      3  C   UNL     1      -0.110  10.331  21.793  0.00  0.00    +0.000 A 
ATOM      4  N   UNL     1       0.801   9.913  22.683  0.00  0.00    +0.000 NA
ATOM      5  O   UNL     1       1.538   8.977  21.982  0.00  0.00    +0.000 OA
ENDROOT
BRANCH   3   6
ATOM      6  C   UNL     1      -1.101  11.355  22.098  0.00  0.00    +0.000 A 
ATOM      7  C   UNL     1      -1.920  11.240  23.229  0.00  0.00    +0.000 A 
ATOM      8  C   UNL     1      -2.901  12.192  23.527  0.00  0.00    +0.000 A 
ATOM      9  C   UNL     1      -3.038  13.288  22.662  0.00  0.00    +0.000 A 
ATOM     10  C   UNL     1      -2.231  13.432  21.529  0.00  0.00    +0.000 A 
ATOM     11  C   UNL     1      -2.637  14.618  20.864  0.00  0.00    +0.000 A 
ATOM     12  C   UNL     1      -3.663  15.173  21.591  0.00  0.00    +0.000 A 
ATOM     13  N   UNL     1      -3.894  14.371  22.682  0.00  0.00    +0.000 N 
ATOM     14  C   UNL     1      -1.253  12.459  21.247  0.00  0.00    +0.000 A 
BRANCH  13  15
ATOM     15  C   UNL     1      -4.943  14.621  23.661  0.00  0.00    +0.000 C 
BRANCH  15  16
ATOM     16  C   UNL     1      -6.325  14.185  23.188  0.00  0.00    +0.000 C 
BRANCH  16  17
ATOM     17  C   UNL     1      -6.857  13.099  24.082  0.00  0.00    +0.000 C 
ATOM     18  O   UNL     1      -6.409  11.966  24.151  0.00  0.00    +0.000 OA
BRANCH  17  19
ATOM     19  O   UNL     1      -7.909  13.508  24.828  0.00  0.00    +0.000 OA
ATOM     20  H   UNL     1      -7.742  13.517  25.790  0.00  0.00    +0.000 HD
ENDBRANCH  17  19
ENDBRANCH  16  17
ENDBRANCH  15  16
ENDBRANCH  13  15
ENDBRANCH   3   6
BRANCH   1  24
ATOM     21  C   UNL     1       3.263   6.365  18.096  0.00  0.00    +0.000 A 
ATOM     22  C   UNL     1       2.907   7.664  17.699  0.00  0.00    +0.000 A 
ATOM     23  C   UNL     1       2.151   8.504  18.533  0.00  0.00    +0.000 A 
ATOM     24  C   UNL     1       1.727   8.052  19.787  0.00  0.00    +0.000 A 
ATOM     25  C   UNL     1       2.073   6.751  20.171  0.00  0.00    +0.000 A 
ATOM     26  C   UNL     1       2.869   5.930  19.366  0.00  0.00    +0.000 A 
ATOM     27 CL   UNL     1       3.391   4.471  20.132  0.00  0.00    +0.000 Cl
BRANCH  21  28
ATOM     28  O   UNL     1       4.051   5.699  17.196  0.00  0.00    +0.000 OA
BRANCH  28  30
ATOM     29  C   UNL     1       6.321   6.421  17.535  0.00  0.00    +0.000 C 
ATOM     30  C   UNL     1       5.129   6.415  16.579  0.00  0.00    +0.000 C 
ATOM     31  C   UNL     1       5.515   5.691  15.291  0.00  0.00    +0.000 C 
ENDBRANCH  28  30
ENDBRANCH  21  28
ENDBRANCH   1  24
TORSDOF 8
ENDMDL
MODEL 8
REMARK VINA RESULT:      -7.5      2.475      3.265
REMARK  Name = 
REMARK  10 active torsions:
REMARK  status: ('A' for Active; 'I' for Inactive)
REMARK    1  A    between atoms: C_1  and  C_2
REMARK    2  A    between atoms: C_2  and  C_3
REMARK    3  A    between atoms: C_2  and  O_4
REMARK    4  A    between atoms: O_4  and  C_5
REMARK    5  A    between atoms: C_8  and  C_9
REMARK    6  A    between atoms: C_11  and  C_12
REMARK    7  A    between atoms: N_19  and  C_20
REMARK    8  A    between atoms: C_20  and  C_21
REMARK    9  A    between atoms: C_21  and  C_22
REMARK   10  A    between atoms: C_22  and  O_24
REMARK                            x       y       z     vdW  Elec       q    Type
REMARK                         _______ _______ _______ _____ _____    ______ ____
ROOT
ATOM      1  C   UNL     1       0.389   9.982  19.813  0.00  0.00    +0.000 A 
ATOM      2  N   UNL     1       1.033   8.837  19.874  0.00  0.00    +0.000 NA
ATOM      3  C   UNL     1       1.580   8.738  18.606  0.00  0.00    +0.000 A 
ATOM      4  N   UNL     1       1.271   9.760  17.797  0.00  0.00    +0.000 NA
ATOM      5  O   UNL     1       0.482  10.576  18.586  0.00  0.00    +0.000 OA
ENDROOT
BRANCH   3   6
ATOM      6  C   UNL     1       2.433   7.631  18.192  0.00  0.00    +0.000 A 
ATOM      7  C   UNL     1       3.620   7.871  17.485  0.00  0.00    +0.000 A 
ATOM      8  C   UNL     1       4.440   6.825  17.048  0.00  0.00    +0.000 A 
ATOM      9  C   UNL     1       4.049   5.513  17.351  0.00  0.00    +0.000 A 
ATOM     10  C   UNL     1       2.873   5.243  18.059  0.00  0.00    +0.000 A 
ATOM     11  C   UNL     1       2.759   3.833  18.175  0.00  0.00    +0.000 A 
ATOM     12  C   UNL     1       3.848   3.275  17.551  0.00  0.00    +0.000 A 
ATOM     13  N   UNL     1       4.630   4.293  17.065  0.00  0.00    +0.000 N 
ATOM     14  C   UNL     1       2.062   6.312  18.486  0.00  0.00    +0.000 A 
BRANCH  13  15
ATOM     15  C   UNL     1       5.853   4.080  16.303  0.00  0.00    +0.000 C 
BRANCH  15  16
ATOM     16  C   UNL     1       6.945   5.095  16.621  0.00  0.00    +0.000 C 
BRANCH  16  17
ATOM     17  C   UNL     1       7.698   4.675  17.854  0.00  0.00    +0.000 C 
ATOM     18  O   UNL     1       8.673   3.942  17.864  0.00  0.00    +0.000 OA
BRANCH  17  19
ATOM     19  O   UNL     1       7.179   5.205  18.985  0.00  0.00    +0.000 OA
ATOM     20  H   UNL     1       7.124   4.582  19.735  0.00  0.00    +0.000 HD
ENDBRANCH  17  19
ENDBRANCH  16  17
ENDBRANCH  15  16
ENDBRANCH  13  15
ENDBRANCH   3   6
BRANCH   1  24
ATOM     21  C   UNL     1      -1.582  12.377  22.782  0.00  0.00    +0.000 A 
ATOM     22  C   UNL     1      -1.003  11.145  23.127  0.00  0.00    +0.000 A 
ATOM     23  C   UNL     1      -0.376  10.336  22.165  0.00  0.00    +0.000 A 
ATOM     24  C   UNL     1      -0.324  10.745  20.828  0.00  0.00    +0.000 A 
ATOM     25  C   UNL     1      -0.916  11.967  20.490  0.00  0.00    +0.000 A 
ATOM     26  C   UNL     1      -1.495  12.800  21.452  0.00  0.00    +0.000 A 
ATOM     27 CL   UNL     1      -1.933  14.367  20.869  0.00  0.00    +0.000 Cl
BRANCH  21  28
ATOM     28  O   UNL     1      -2.097  13.070  23.844  0.00  0.00    +0.000 OA
BRANCH  28  30
ATOM     29  C   UNL     1      -4.283  12.385  24.580  0.00  0.00    +0.000 C 
ATOM     30  C   UNL     1      -3.484  13.435  23.809  0.00  0.00    +0.000 C 
ATOM     31  C   UNL     1      -3.644  14.794  24.488  0.00  0.00    +0.000 C 
ENDBRANCH  28  30
ENDBRANCH  21  28
ENDBRANCH   1  24
TORSDOF 8
ENDMDL
MODEL 9
REMARK VINA RESULT:      -7.5      2.320      3.422
REMARK  Name = 
REMARK  10 active torsions:
REMARK  status: ('A' for Active; 'I' for Inactive)
REMARK    1  A    between atoms: C_1  and  C_2
REMARK    2  A    between atoms: C_2  and  C_3
REMARK    3  A    between atoms: C_2  and  O_4
REMARK    4  A    between atoms: O_4  and  C_5
REMARK    5  A    between atoms: C_8  and  C_9
REMARK    6  A    between atoms: C_11  and  C_12
REMARK    7  A    between atoms: N_19  and  C_20
REMARK    8  A    between atoms: C_20  and  C_21
REMARK    9  A    between atoms: C_21  and  C_22
REMARK   10  A    between atoms: C_22  and  O_24
REMARK                            x       y       z     vdW  Elec       q    Type
REMARK                         _______ _______ _______ _____ _____    ______ ____
ROOT
ATOM      1  C   UNL     1       0.203  10.115  20.784  0.00  0.00    +0.000 A 
ATOM      2  N   UNL     1       0.830   9.654  19.724  0.00  0.00    +0.000 NA
ATOM      3  C   UNL     1       1.411   8.492  20.208  0.00  0.00    +0.000 A 
ATOM      4  N   UNL     1       1.170   8.262  21.505  0.00  0.00    +0.000 NA
ATOM      5  O   UNL     1       0.382   9.330  21.888  0.00  0.00    +0.000 OA
ENDROOT
BRANCH   3   6
ATOM      6  C   UNL     1       2.197   7.591  19.376  0.00  0.00    +0.000 A 
ATOM      7  C   UNL     1       2.720   8.025  18.150  0.00  0.00    +0.000 A 
ATOM      8  C   UNL     1       3.452   7.171  17.317  0.00  0.00    +0.000 A 
ATOM      9  C   UNL     1       3.664   5.854  17.751  0.00  0.00    +0.000 A 
ATOM     10  C   UNL     1       3.159   5.394  18.971  0.00  0.00    +0.000 A 
ATOM     11  C   UNL     1       3.525   4.028  19.096  0.00  0.00    +0.000 A 
ATOM     12  C   UNL     1       4.238   3.684  17.974  0.00  0.00    +0.000 A 
ATOM     13  N   UNL     1       4.329   4.793  17.170  0.00  0.00    +0.000 N 
ATOM     14  C   UNL     1       2.422   6.271  19.791  0.00  0.00    +0.000 A 
BRANCH  13  15
ATOM     15  C   UNL     1       4.981   4.796  15.868  0.00  0.00    +0.000 C 
BRANCH  15  16
ATOM     16  C   UNL     1       6.250   3.952  15.827  0.00  0.00    +0.000 C 
BRANCH  16  17
ATOM     17  C   UNL     1       7.380   4.686  16.495  0.00  0.00    +0.000 C 
ATOM     18  O   UNL     1       8.150   4.198  17.306  0.00  0.00    +0.000 OA
BRANCH  17  19
ATOM     19  O   UNL     1       7.469   5.976  16.098  0.00  0.00    +0.000 OA
ATOM     20  H   UNL     1       6.610   6.430  16.005  0.00  0.00    +0.000 HD
ENDBRANCH  17  19
ENDBRANCH  16  17
ENDBRANCH  15  16
ENDBRANCH  13  15
ENDBRANCH   3   6
BRANCH   1  24
ATOM     21  C   UNL     1      -2.592  13.332  21.314  0.00  0.00    +0.000 A 
ATOM     22  C   UNL     1      -1.880  13.195  20.111  0.00  0.00    +0.000 A 
ATOM     23  C   UNL     1      -0.944  12.164  19.928  0.00  0.00    +0.000 A 
ATOM     24  C   UNL     1      -0.694  11.249  20.957  0.00  0.00    +0.000 A 
ATOM     25  C   UNL     1      -1.397  11.401  22.158  0.00  0.00    +0.000 A 
ATOM     26  C   UNL     1      -2.367  12.393  22.327  0.00  0.00    +0.000 A 
ATOM     27 CL   UNL     1      -3.293  12.247  23.779  0.00  0.00    +0.000 Cl
BRANCH  21  28
ATOM     28  O   UNL     1      -3.509  14.348  21.309  0.00  0.00    +0.000 OA
BRANCH  28  30
ATOM     29  C   UNL     1      -4.208  16.580  20.747  0.00  0.00    +0.000 C 
ATOM     30  C   UNL     1      -3.033  15.691  21.148  0.00  0.00    +0.000 C 
ATOM     31  C   UNL     1      -2.470  16.168  22.486  0.00  0.00    +0.000 C 
ENDBRANCH  28  30
ENDBRANCH  21  28
ENDBRANCH   1  24
TORSDOF 8
ENDMDL
