MODEL 1
REMARK VINA RESULT:      -7.6      0.000      0.000
REMARK  Name = 
REMARK  3 active torsions:
REMARK  status: ('A' for Active; 'I' for Inactive)
REMARK    1  A    between atoms: C_1  and  C_2
REMARK    2  A    between atoms: C_8  and  N_9
REMARK    3  A    between atoms: N_20  and  C_21
REMARK                            x       y       z     vdW  Elec       q    Type
REMARK                         _______ _______ _______ _____ _____    ______ ____
ROOT
ATOM      1  N   UNL     1       1.764  11.138  17.881  0.00  0.00    +0.000 N 
ATOM      2  C   UNL     1       2.030   9.791  18.110  0.00  0.00    +0.000 A 
ATOM      3  N   UNL     1       2.681   9.117  17.145  0.00  0.00    +0.000 NA
ATOM      4  C   UNL     1       2.928   7.793  17.317  0.00  0.00    +0.000 A 
ATOM      5  C   UNL     1       2.552   7.166  18.501  0.00  0.00    +0.000 A 
ATOM      6  C   UNL     1       2.643   5.864  19.067  0.00  0.00    +0.000 A 
ATOM      7  C   UNL     1       3.176   4.648  18.620  0.00  0.00    +0.000 A 
ATOM      8  C   UNL     1       3.086   3.574  19.488  0.00  0.00    +0.000 A 
ATOM      9  N   UNL     1       2.527   3.622  20.713  0.00  0.00    +0.000 NA
ATOM     10  C   UNL     1       2.008   4.788  21.154  0.00  0.00    +0.000 A 
ATOM     11  C   UNL     1       2.055   5.917  20.341  0.00  0.00    +0.000 A 
ATOM     12  N   UNL     1       1.607   7.212  20.536  0.00  0.00    +0.000 N 
ATOM     13  C   UNL     1       1.915   7.964  19.425  0.00  0.00    +0.000 A 
ATOM     14  N   UNL     1       1.631   9.258  19.272  0.00  0.00    +0.000 NA
ATOM     15  H   UNL     1       2.463  11.574  17.297  0.00  0.00    +0.000 HD
ENDROOT
BRANCH   1  23
ATOM     16  C   UNL     1      -3.666  12.817  21.948  0.00  0.00    +0.000 C 
ATOM     17  C   UNL     1      -3.348  14.305  22.116  0.00  0.00    +0.000 C 
ATOM     18  C   UNL     1      -2.347  14.825  21.054  0.00  0.00    +0.000 C 
ATOM     19  N   UNL     1      -0.952  14.472  21.352  0.00  0.00    +0.000 N 
ATOM     20  C   UNL     1      -0.281  13.642  20.477  0.00  0.00    +0.000 A 
ATOM     21  C   UNL     1       1.116  13.602  20.386  0.00  0.00    +0.000 A 
ATOM     22  N   UNL     1       1.830  12.810  19.532  0.00  0.00    +0.000 NA
ATOM     23  C   UNL     1       1.095  12.006  18.736  0.00  0.00    +0.000 A 
ATOM     24  C   UNL     1      -0.299  12.082  18.793  0.00  0.00    +0.000 A 
ATOM     25  N   UNL     1      -1.000  12.875  19.640  0.00  0.00    +0.000 NA
ATOM     26  C   UNL     1      -0.502  14.603  22.739  0.00  0.00    +0.000 C 
ATOM     27  C   UNL     1      -1.568  14.116  23.750  0.00  0.00    +0.000 C 
ATOM     28  N   UNL     1      -2.931  14.625  23.503  0.00  0.00    +0.000 NA
ATOM     29  H   UNL     1      -2.897  15.642  23.581  0.00  0.00    +0.000 HD
ENDBRANCH   1  23
BRANCH  12  30
ATOM     30  C   UNL     1       0.916   7.746  21.700  0.00  0.00    +0.000 C 
ATOM     31  C   UNL     1       1.591   8.959  22.342  0.00  0.00    +0.000 C 
ATOM     32  C   UNL     1       0.499   9.587  23.195  0.00  0.00    +0.000 C 
ATOM     33  C   UNL     1      -0.828   9.227  22.531  0.00  0.00    +0.000 C 
ATOM     34  C   UNL     1      -0.524   8.198  21.445  0.00  0.00    +0.000 C 
ENDBRANCH  12  30
TORSDOF 2
ENDMDL
MODEL 2
REMARK VINA RESULT:      -7.2      0.966      1.059
REMARK  Name = 
REMARK  3 active torsions:
REMARK  status: ('A' for Active; 'I' for Inactive)
REMARK    1  A    between atoms: C_1  and  C_2
REMARK    2  A    between atoms: C_8  and  N_9
REMARK    3  A    between atoms: N_20  and  C_21
REMARK                            x       y       z     vdW  Elec       q    Type
REMARK                         _______ _______ _______ _____ _____    ______ ____
ROOT
ATOM      1  N   UNL     1       1.011  11.891  18.387  0.00  0.00    +0.000 N 
ATOM      2  C   UNL     1       1.456  10.574  18.446  0.00  0.00    +0.000 A 
ATOM      3  N   UNL     1       2.145  10.107  17.388  0.00  0.00    +0.000 NA
ATOM      4  C   UNL     1       2.564   8.816  17.393  0.00  0.00    +0.000 A 
ATOM      5  C   UNL     1       2.324   8.013  18.504  0.00  0.00    +0.000 A 
ATOM      6  C   UNL     1       2.604   6.677  18.907  0.00  0.00    +0.000 A 
ATOM      7  C   UNL     1       3.267   5.602  18.302  0.00  0.00    +0.000 A 
ATOM      8  C   UNL     1       3.352   4.432  19.037  0.00  0.00    +0.000 A 
ATOM      9  N   UNL     1       2.847   4.265  20.275  0.00  0.00    +0.000 NA
ATOM     10  C   UNL     1       2.203   5.294  20.867  0.00  0.00    +0.000 A 
ATOM     11  C   UNL     1       2.071   6.506  20.194  0.00  0.00    +0.000 A 
ATOM     12  N   UNL     1       1.471   7.699  20.556  0.00  0.00    +0.000 N 
ATOM     13  C   UNL     1       1.632   8.608  19.535  0.00  0.00    +0.000 A 
ATOM     14  N   UNL     1       1.180   9.863  19.546  0.00  0.00    +0.000 NA
ATOM     15  H   UNL     1       1.624  12.480  17.840  0.00  0.00    +0.000 HD
ENDROOT
BRANCH   1  23
ATOM     16  C   UNL     1      -4.877  13.002  21.983  0.00  0.00    +0.000 C 
ATOM     17  C   UNL     1      -4.483  14.337  22.621  0.00  0.00    +0.000 C 
ATOM     18  C   UNL     1      -3.284  15.009  21.906  0.00  0.00    +0.000 C 
ATOM     19  N   UNL     1      -1.987  14.425  22.276  0.00  0.00    +0.000 N 
ATOM     20  C   UNL     1      -1.244  13.798  21.297  0.00  0.00    +0.000 A 
ATOM     21  C   UNL     1       0.142  13.620  21.391  0.00  0.00    +0.000 A 
ATOM     22  N   UNL     1       0.926  13.019  20.449  0.00  0.00    +0.000 NA
ATOM     23  C   UNL     1       0.276  12.560  19.360  0.00  0.00    +0.000 A 
ATOM     24  C   UNL     1      -1.099  12.781  19.244  0.00  0.00    +0.000 A 
ATOM     25  N   UNL     1      -1.870  13.385  20.182  0.00  0.00    +0.000 NA
ATOM     26  C   UNL     1      -1.765  14.111  23.689  0.00  0.00    +0.000 C 
ATOM     27  C   UNL     1      -3.016  13.492  24.357  0.00  0.00    +0.000 C 
ATOM     28  N   UNL     1      -4.278  14.206  24.085  0.00  0.00    +0.000 NA
ATOM     29  H   UNL     1      -4.183  15.151  24.462  0.00  0.00    +0.000 HD
ENDBRANCH   1  23
BRANCH  12  30
ATOM     30  C   UNL     1       0.770   8.001  21.795  0.00  0.00    +0.000 C 
ATOM     31  C   UNL     1       1.439   9.067  22.664  0.00  0.00    +0.000 C 
ATOM     32  C   UNL     1       0.338   9.520  23.612  0.00  0.00    +0.000 C 
ATOM     33  C   UNL     1      -0.982   9.296  22.880  0.00  0.00    +0.000 C 
ATOM     34  C   UNL     1      -0.668   8.494  21.619  0.00  0.00    +0.000 C 
ENDBRANCH  12  30
TORSDOF 2
ENDMDL
MODEL 3
REMARK VINA RESULT:      -7.0      6.374      9.021
REMARK  Name = 
REMARK  3 active torsions:
REMARK  status: ('A' for Active; 'I' for Inactive)
REMARK    1  A    between atoms: C_1  and  C_2
REMARK    2  A    between atoms: C_8  and  N_9
REMARK    3  A    between atoms: N_20  and  C_21
REMARK                            x       y       z     vdW  Elec       q    Type
REMARK                         _______ _______ _______ _____ _____    ______ ____
ROOT
ATOM      1  N   UNL     1       4.331  16.116  19.046  0.00  0.00    +0.000 N 
ATOM      2  C   UNL     1       5.710  16.260  18.932  0.00  0.00    +0.000 A 
ATOM      3  N   UNL     1       6.193  17.510  18.813  0.00  0.00    +0.000 NA
ATOM      4  C   UNL     1       7.531  17.689  18.664  0.00  0.00    +0.000 A 
ATOM      5  C   UNL     1       8.384  16.590  18.688  0.00  0.00    +0.000 A 
ATOM      6  C   UNL     1       9.784  16.352  18.597  0.00  0.00    +0.000 A 
ATOM      7  C   UNL     1      10.899  17.185  18.439  0.00  0.00    +0.000 A 
ATOM      8  C   UNL     1      12.137  16.566  18.409  0.00  0.00    +0.000 A 
ATOM      9  N   UNL     1      12.333  15.238  18.520  0.00  0.00    +0.000 NA
ATOM     10  C   UNL     1      11.266  14.426  18.670  0.00  0.00    +0.000 A 
ATOM     11  C   UNL     1       9.984  14.967  18.707  0.00  0.00    +0.000 A 
ATOM     12  N   UNL     1       8.739  14.379  18.846  0.00  0.00    +0.000 N 
ATOM     13  C   UNL     1       7.776  15.363  18.841  0.00  0.00    +0.000 A 
ATOM     14  N   UNL     1       6.464  15.154  18.957  0.00  0.00    +0.000 NA
ATOM     15  H   UNL     1       3.898  16.907  19.503  0.00  0.00    +0.000 HD
ENDROOT
BRANCH   1  23
ATOM     16  C   UNL     1      -0.490  12.075  22.090  0.00  0.00    +0.000 C 
ATOM     17  C   UNL     1      -0.065  10.740  21.470  0.00  0.00    +0.000 C 
ATOM     18  C   UNL     1       1.366  10.786  20.879  0.00  0.00    +0.000 C 
ATOM     19  N   UNL     1       1.430  11.441  19.566  0.00  0.00    +0.000 N 
ATOM     20  C   UNL     1       2.160  12.606  19.445  0.00  0.00    +0.000 A 
ATOM     21  C   UNL     1       2.672  13.061  18.223  0.00  0.00    +0.000 A 
ATOM     22  N   UNL     1       3.409  14.196  18.049  0.00  0.00    +0.000 NA
ATOM     23  C   UNL     1       3.631  14.920  19.165  0.00  0.00    +0.000 A 
ATOM     24  C   UNL     1       3.162  14.442  20.392  0.00  0.00    +0.000 A 
ATOM     25  N   UNL     1       2.436  13.309  20.557  0.00  0.00    +0.000 NA
ATOM     26  C   UNL     1       0.375  11.126  18.601  0.00  0.00    +0.000 C 
ATOM     27  C   UNL     1      -1.020  11.043  19.263  0.00  0.00    +0.000 C 
ATOM     28  N   UNL     1      -1.070  10.241  20.500  0.00  0.00    +0.000 NA
ATOM     29  H   UNL     1      -0.805   9.285  20.256  0.00  0.00    +0.000 HD
ENDBRANCH   1  23
BRANCH  12  30
ATOM     30  C   UNL     1       8.436  12.962  18.978  0.00  0.00    +0.000 C 
ATOM     31  C   UNL     1       8.796  12.116  17.755  0.00  0.00    +0.000 C 
ATOM     32  C   UNL     1       8.824  10.689  18.284  0.00  0.00    +0.000 C 
ATOM     33  C   UNL     1       9.186  10.784  19.764  0.00  0.00    +0.000 C 
ATOM     34  C   UNL     1       9.128  12.260  20.148  0.00  0.00    +0.000 C 
ENDBRANCH  12  30
TORSDOF 2
ENDMDL
MODEL 4
REMARK VINA RESULT:      -6.9      1.112      1.930
REMARK  Name = 
REMARK  3 active torsions:
REMARK  status: ('A' for Active; 'I' for Inactive)
REMARK    1  A    between atoms: C_1  and  C_2
REMARK    2  A    between atoms: C_8  and  N_9
REMARK    3  A    between atoms: N_20  and  C_21
REMARK                            x       y       z     vdW  Elec       q    Type
REMARK                         _______ _______ _______ _____ _____    ______ ____
ROOT
ATOM      1  N   UNL     1       1.620  11.276  17.961  0.00  0.00    +0.000 N 
ATOM      2  C   UNL     1       1.918   9.932  18.165  0.00  0.00    +0.000 A 
ATOM      3  N   UNL     1       2.581   9.291  17.184  0.00  0.00    +0.000 NA
ATOM      4  C   UNL     1       2.859   7.970  17.331  0.00  0.00    +0.000 A 
ATOM      5  C   UNL     1       2.504   7.313  18.505  0.00  0.00    +0.000 A 
ATOM      6  C   UNL     1       2.628   6.003  19.047  0.00  0.00    +0.000 A 
ATOM      7  C   UNL     1       3.187   4.809  18.576  0.00  0.00    +0.000 A 
ATOM      8  C   UNL     1       3.126   3.717  19.424  0.00  0.00    +0.000 A 
ATOM      9  N   UNL     1       2.573   3.730  20.652  0.00  0.00    +0.000 NA
ATOM     10  C   UNL     1       2.028   4.875  21.117  0.00  0.00    +0.000 A 
ATOM     11  C   UNL     1       2.045   6.020  20.324  0.00  0.00    +0.000 A 
ATOM     12  N   UNL     1       1.567   7.300  20.545  0.00  0.00    +0.000 N 
ATOM     13  C   UNL     1       1.852   8.079  19.447  0.00  0.00    +0.000 A 
ATOM     14  N   UNL     1       1.538   9.368  19.318  0.00  0.00    +0.000 NA
ATOM     15  H   UNL     1       2.306  11.739  17.382  0.00  0.00    +0.000 HD
ENDROOT
BRANCH   1  23
ATOM     16  C   UNL     1       1.397  16.564  22.524  0.00  0.00    +0.000 C 
ATOM     17  C   UNL     1      -0.001  16.294  23.088  0.00  0.00    +0.000 C 
ATOM     18  C   UNL     1      -0.504  14.863  22.775  0.00  0.00    +0.000 C 
ATOM     19  N   UNL     1      -1.005  14.711  21.403  0.00  0.00    +0.000 N 
ATOM     20  C   UNL     1      -0.345  13.848  20.552  0.00  0.00    +0.000 A 
ATOM     21  C   UNL     1      -0.952  13.276  19.427  0.00  0.00    +0.000 A 
ATOM     22  N   UNL     1      -0.352  12.409  18.560  0.00  0.00    +0.000 NA
ATOM     23  C   UNL     1       0.935  12.113  18.835  0.00  0.00    +0.000 A 
ATOM     24  C   UNL     1       1.526  12.645  19.985  0.00  0.00    +0.000 A 
ATOM     25  N   UNL     1       0.920  13.501  20.844  0.00  0.00    +0.000 NA
ATOM     26  C   UNL     1      -1.838  15.788  20.864  0.00  0.00    +0.000 C 
ATOM     27  C   UNL     1      -1.312  17.189  21.255  0.00  0.00    +0.000 C 
ATOM     28  N   UNL     1      -0.968  17.343  22.682  0.00  0.00    +0.000 NA
ATOM     29  H   UNL     1      -1.822  17.191  23.221  0.00  0.00    +0.000 HD
ENDBRANCH   1  23
BRANCH  12  30
ATOM     30  C   UNL     1       0.870   7.796  21.722  0.00  0.00    +0.000 C 
ATOM     31  C   UNL     1       1.577   8.943  22.446  0.00  0.00    +0.000 C 
ATOM     32  C   UNL     1       0.489   9.567  23.308  0.00  0.00    +0.000 C 
ATOM     33  C   UNL     1      -0.834   9.299  22.595  0.00  0.00    +0.000 C 
ATOM     34  C   UNL     1      -0.544   8.320  21.460  0.00  0.00    +0.000 C 
ENDBRANCH  12  30
TORSDOF 2
ENDMDL
MODEL 5
REMARK VINA RESULT:      -6.8      5.060      7.868
REMARK  Name = 
REMARK  3 active torsions:
REMARK  status: ('A' for Active; 'I' for Inactive)
REMARK    1  A    between atoms: C_1  and  C_2
REMARK    2  A    between atoms: C_8  and  N_9
REMARK    3  A    between atoms: N_20  and  C_21
REMARK                            x       y       z     vdW  Elec       q    Type
REMARK                         _______ _______ _______ _____ _____    ______ ____
ROOT
ATOM      1  N   UNL     1       7.686   6.193  17.371  0.00  0.00    +0.000 N 
ATOM      2  C   UNL     1       6.540   5.427  17.562  0.00  0.00    +0.000 A 
ATOM      3  N   UNL     1       6.580   4.144  17.155  0.00  0.00    +0.000 NA
ATOM      4  C   UNL     1       5.470   3.375  17.292  0.00  0.00    +0.000 A 
ATOM      5  C   UNL     1       4.330   3.902  17.891  0.00  0.00    +0.000 A 
ATOM      6  C   UNL     1       3.025   3.449  18.235  0.00  0.00    +0.000 A 
ATOM      7  C   UNL     1       2.355   2.228  18.089  0.00  0.00    +0.000 A 
ATOM      8  C   UNL     1       1.061   2.168  18.575  0.00  0.00    +0.000 A 
ATOM      9  N   UNL     1       0.416   3.192  19.168  0.00  0.00    +0.000 NA
ATOM     10  C   UNL     1       1.051   4.374  19.311  0.00  0.00    +0.000 A 
ATOM     11  C   UNL     1       2.356   4.520  18.847  0.00  0.00    +0.000 A 
ATOM     12  N   UNL     1       3.223   5.598  18.861  0.00  0.00    +0.000 N 
ATOM     13  C   UNL     1       4.417   5.218  18.289  0.00  0.00    +0.000 A 
ATOM     14  N   UNL     1       5.482   6.007  18.140  0.00  0.00    +0.000 NA
ATOM     15  H   UNL     1       8.530   5.639  17.415  0.00  0.00    +0.000 HD
ENDROOT
BRANCH   1  23
ATOM     16  C   UNL     1      11.554  11.543  19.663  0.00  0.00    +0.000 C 
ATOM     17  C   UNL     1      10.414  12.536  19.905  0.00  0.00    +0.000 C 
ATOM     18  C   UNL     1       9.028  11.847  19.976  0.00  0.00    +0.000 C 
ATOM     19  N   UNL     1       8.481  11.508  18.656  0.00  0.00    +0.000 N 
ATOM     20  C   UNL     1       8.283  10.178  18.346  0.00  0.00    +0.000 A 
ATOM     21  C   UNL     1       7.379   9.752  17.363  0.00  0.00    +0.000 A 
ATOM     22  N   UNL     1       7.135   8.453  17.025  0.00  0.00    +0.000 NA
ATOM     23  C   UNL     1       7.850   7.533  17.705  0.00  0.00    +0.000 A 
ATOM     24  C   UNL     1       8.715   7.955  18.718  0.00  0.00    +0.000 A 
ATOM     25  N   UNL     1       8.947   9.248  19.052  0.00  0.00    +0.000 NA
ATOM     26  C   UNL     1       8.620  12.504  17.591  0.00  0.00    +0.000 C 
ATOM     27  C   UNL     1      10.006  13.191  17.607  0.00  0.00    +0.000 C 
ATOM     28  N   UNL     1      10.448  13.658  18.936  0.00  0.00    +0.000 NA
ATOM     29  H   UNL     1       9.772  14.354  19.256  0.00  0.00    +0.000 HD
ENDBRANCH   1  23
BRANCH  12  30
ATOM     30  C   UNL     1       2.971   6.934  19.379  0.00  0.00    +0.000 C 
ATOM     31  C   UNL     1       2.334   7.897  18.376  0.00  0.00    +0.000 C 
ATOM     32  C   UNL     1       1.767   9.014  19.241  0.00  0.00    +0.000 C 
ATOM     33  C   UNL     1       1.452   8.392  20.599  0.00  0.00    +0.000 C 
ATOM     34  C   UNL     1       2.054   6.990  20.603  0.00  0.00    +0.000 C 
ENDBRANCH  12  30
TORSDOF 2
ENDMDL
MODEL 6
REMARK VINA RESULT:      -6.7      4.664      7.621
REMARK  Name = 
REMARK  3 active torsions:
REMARK  status: ('A' for Active; 'I' for Inactive)
REMARK    1  A    between atoms: C_1  and  C_2
REMARK    2  A    between atoms: C_8  and  N_9
REMARK    3  A    between atoms: N_20  and  C_21
REMARK                            x       y       z     vdW  Elec       q    Type
REMARK                         _______ _______ _______ _____ _____    ______ ____
ROOT
ATOM      1  N   UNL     1      -0.586  10.977  18.132  0.00  0.00    +0.000 N 
ATOM      2  C   UNL     1       0.458  11.885  18.283  0.00  0.00    +0.000 A 
ATOM      3  N   UNL     1       1.711  11.397  18.249  0.00  0.00    +0.000 NA
ATOM      4  C   UNL     1       2.754  12.246  18.427  0.00  0.00    +0.000 A 
ATOM      5  C   UNL     1       2.520  13.608  18.590  0.00  0.00    +0.000 A 
ATOM      6  C   UNL     1       3.296  14.787  18.771  0.00  0.00    +0.000 A 
ATOM      7  C   UNL     1       4.671  15.037  18.860  0.00  0.00    +0.000 A 
ATOM      8  C   UNL     1       5.053  16.357  19.026  0.00  0.00    +0.000 A 
ATOM      9  N   UNL     1       4.201  17.398  19.107  0.00  0.00    +0.000 NA
ATOM     10  C   UNL     1       2.873  17.168  19.025  0.00  0.00    +0.000 A 
ATOM     11  C   UNL     1       2.404  15.868  18.861  0.00  0.00    +0.000 A 
ATOM     12  N   UNL     1       1.123  15.357  18.752  0.00  0.00    +0.000 N 
ATOM     13  C   UNL     1       1.198  13.993  18.583  0.00  0.00    +0.000 A 
ATOM     14  N   UNL     1       0.151  13.179  18.441  0.00  0.00    +0.000 NA
ATOM     15  H   UNL     1      -0.331  10.190  17.554  0.00  0.00    +0.000 HD
ENDROOT
BRANCH   1  23
ATOM     16  C   UNL     1      -6.035  14.828  20.212  0.00  0.00    +0.000 C 
ATOM     17  C   UNL     1      -7.146  13.872  19.770  0.00  0.00    +0.000 C 
ATOM     18  C   UNL     1      -6.630  12.435  19.514  0.00  0.00    +0.000 C 
ATOM     19  N   UNL     1      -5.955  12.283  18.217  0.00  0.00    +0.000 N 
ATOM     20  C   UNL     1      -4.615  11.953  18.207  0.00  0.00    +0.000 A 
ATOM     21  C   UNL     1      -3.990  11.347  17.110  0.00  0.00    +0.000 A 
ATOM     22  N   UNL     1      -2.674  10.989  17.050  0.00  0.00    +0.000 NA
ATOM     23  C   UNL     1      -1.946  11.270  18.150  0.00  0.00    +0.000 A 
ATOM     24  C   UNL     1      -2.581  11.830  19.262  0.00  0.00    +0.000 A 
ATOM     25  N   UNL     1      -3.890  12.176  19.316  0.00  0.00    +0.000 NA
ATOM     26  C   UNL     1      -6.567  12.934  17.057  0.00  0.00    +0.000 C 
ATOM     27  C   UNL     1      -7.108  14.343  17.392  0.00  0.00    +0.000 C 
ATOM     28  N   UNL     1      -7.916  14.417  18.625  0.00  0.00    +0.000 NA
ATOM     29  H   UNL     1      -8.730  13.815  18.494  0.00  0.00    +0.000 HD
ENDBRANCH   1  23
BRANCH  12  30
ATOM     30  C   UNL     1      -0.133  16.091  18.804  0.00  0.00    +0.000 C 
ATOM     31  C   UNL     1      -0.435  16.744  20.154  0.00  0.00    +0.000 C 
ATOM     32  C   UNL     1      -1.500  17.784  19.836  0.00  0.00    +0.000 C 
ATOM     33  C   UNL     1      -1.280  18.196  18.382  0.00  0.00    +0.000 C 
ATOM     34  C   UNL     1      -0.257  17.230  17.790  0.00  0.00    +0.000 C 
ENDBRANCH  12  30
TORSDOF 2
ENDMDL
MODEL 7
REMARK VINA RESULT:      -6.7      2.258      4.891
REMARK  Name = 
REMARK  3 active torsions:
REMARK  status: ('A' for Active; 'I' for Inactive)
REMARK    1  A    between atoms: C_1  and  C_2
REMARK    2  A    between atoms: C_8  and  N_9
REMARK    3  A    between atoms: N_20  and  C_21
REMARK                            x       y       z     vdW  Elec       q    Type
REMARK                         _______ _______ _______ _____ _____    ______ ____
ROOT
ATOM      1  N   UNL     1      -1.534  11.865  23.419  0.00  0.00    +0.000 N 
ATOM      2  C   UNL     1      -0.811  10.907  22.714  0.00  0.00    +0.000 A 
ATOM      3  N   UNL     1      -0.586   9.729  23.326  0.00  0.00    +0.000 NA
ATOM      4  C   UNL     1       0.145   8.783  22.685  0.00  0.00    +0.000 A 
ATOM      5  C   UNL     1       0.607   9.020  21.394  0.00  0.00    +0.000 A 
ATOM      6  C   UNL     1       1.351   8.316  20.405  0.00  0.00    +0.000 A 
ATOM      7  C   UNL     1       1.935   7.044  20.355  0.00  0.00    +0.000 A 
ATOM      8  C   UNL     1       2.581   6.703  19.180  0.00  0.00    +0.000 A 
ATOM      9  N   UNL     1       2.682   7.503  18.101  0.00  0.00    +0.000 NA
ATOM     10  C   UNL     1       2.126   8.732  18.138  0.00  0.00    +0.000 A 
ATOM     11  C   UNL     1       1.459   9.155  19.285  0.00  0.00    +0.000 A 
ATOM     12  N   UNL     1       0.813  10.340  19.590  0.00  0.00    +0.000 N 
ATOM     13  C   UNL     1       0.294  10.251  20.862  0.00  0.00    +0.000 A 
ATOM     14  N   UNL     1      -0.395  11.212  21.479  0.00  0.00    +0.000 NA
ATOM     15  H   UNL     1      -2.201  11.452  24.055  0.00  0.00    +0.000 HD
ENDROOT
BRANCH   1  23
ATOM     16  C   UNL     1      -0.960  17.159  18.894  0.00  0.00    +0.000 C 
ATOM     17  C   UNL     1      -1.645  18.234  19.742  0.00  0.00    +0.000 C 
ATOM     18  C   UNL     1      -1.734  17.845  21.239  0.00  0.00    +0.000 C 
ATOM     19  N   UNL     1      -2.818  16.896  21.528  0.00  0.00    +0.000 N 
ATOM     20  C   UNL     1      -2.487  15.644  22.003  0.00  0.00    +0.000 A 
ATOM     21  C   UNL     1      -3.380  14.845  22.729  0.00  0.00    +0.000 A 
ATOM     22  N   UNL     1      -3.103  13.607  23.232  0.00  0.00    +0.000 NA
ATOM     23  C   UNL     1      -1.862  13.143  22.978  0.00  0.00    +0.000 A 
ATOM     24  C   UNL     1      -0.955  13.959  22.297  0.00  0.00    +0.000 A 
ATOM     25  N   UNL     1      -1.237  15.191  21.806  0.00  0.00    +0.000 NA
ATOM     26  C   UNL     1      -4.107  17.123  20.873  0.00  0.00    +0.000 C 
ATOM     27  C   UNL     1      -3.948  17.558  19.398  0.00  0.00    +0.000 C 
ATOM     28  N   UNL     1      -2.957  18.629  19.174  0.00  0.00    +0.000 NA
ATOM     29  H   UNL     1      -3.274  19.452  19.689  0.00  0.00    +0.000 HD
ENDBRANCH   1  23
BRANCH  12  30
ATOM     30  C   UNL     1       0.674  11.519  18.748  0.00  0.00    +0.000 C 
ATOM     31  C   UNL     1      -0.731  12.122  18.721  0.00  0.00    +0.000 C 
ATOM     32  C   UNL     1      -0.522  13.530  18.185  0.00  0.00    +0.000 C 
ATOM     33  C   UNL     1       0.896  13.936  18.576  0.00  0.00    +0.000 C 
ATOM     34  C   UNL     1       1.588  12.688  19.119  0.00  0.00    +0.000 C 
ENDBRANCH  12  30
TORSDOF 2
ENDMDL
MODEL 8
REMARK VINA RESULT:      -6.6      2.682      5.306
REMARK  Name = 
REMARK  3 active torsions:
REMARK  status: ('A' for Active; 'I' for Inactive)
REMARK    1  A    between atoms: C_1  and  C_2
REMARK    2  A    between atoms: C_8  and  N_9
REMARK    3  A    between atoms: N_20  and  C_21
REMARK                            x       y       z     vdW  Elec       q    Type
REMARK                         _______ _______ _______ _____ _____    ______ ____
ROOT
ATOM      1  N   UNL     1      -1.981  11.825  23.524  0.00  0.00    +0.000 N 
ATOM      2  C   UNL     1      -1.145  11.015  22.761  0.00  0.00    +0.000 A 
ATOM      3  N   UNL     1      -0.310  10.193  23.423  0.00  0.00    +0.000 NA
ATOM      4  C   UNL     1       0.546   9.414  22.714  0.00  0.00    +0.000 A 
ATOM      5  C   UNL     1       0.516   9.438  21.323  0.00  0.00    +0.000 A 
ATOM      6  C   UNL     1       1.194   8.789  20.253  0.00  0.00    +0.000 A 
ATOM      7  C   UNL     1       2.207   7.825  20.191  0.00  0.00    +0.000 A 
ATOM      8  C   UNL     1       2.604   7.420  18.928  0.00  0.00    +0.000 A 
ATOM      9  N   UNL     1       2.086   7.887  17.775  0.00  0.00    +0.000 NA
ATOM     10  C   UNL     1       1.110   8.819  17.823  0.00  0.00    +0.000 A 
ATOM     11  C   UNL     1       0.655   9.283  19.054  0.00  0.00    +0.000 A 
ATOM     12  N   UNL     1      -0.312  10.215  19.387  0.00  0.00    +0.000 N 
ATOM     13  C   UNL     1      -0.397  10.301  20.759  0.00  0.00    +0.000 A 
ATOM     14  N   UNL     1      -1.228  11.100  21.428  0.00  0.00    +0.000 NA
ATOM     15  H   UNL     1      -2.232  11.397  24.404  0.00  0.00    +0.000 HD
ENDROOT
BRANCH   1  23
ATOM     16  C   UNL     1      -3.644  17.501  19.802  0.00  0.00    +0.000 C 
ATOM     17  C   UNL     1      -5.055  17.709  20.358  0.00  0.00    +0.000 C 
ATOM     18  C   UNL     1      -5.293  16.944  21.684  0.00  0.00    +0.000 C 
ATOM     19  N   UNL     1      -5.558  15.512  21.487  0.00  0.00    +0.000 N 
ATOM     20  C   UNL     1      -4.661  14.599  22.003  0.00  0.00    +0.000 A 
ATOM     21  C   UNL     1      -5.006  13.271  22.287  0.00  0.00    +0.000 A 
ATOM     22  N   UNL     1      -4.164  12.332  22.808  0.00  0.00    +0.000 NA
ATOM     23  C   UNL     1      -2.902  12.749  23.042  0.00  0.00    +0.000 A 
ATOM     24  C   UNL     1      -2.572  14.086  22.804  0.00  0.00    +0.000 A 
ATOM     25  N   UNL     1      -3.417  15.015  22.292  0.00  0.00    +0.000 NA
ATOM     26  C   UNL     1      -6.450  15.134  20.389  0.00  0.00    +0.000 C 
ATOM     27  C   UNL     1      -6.197  15.970  19.113  0.00  0.00    +0.000 C 
ATOM     28  N   UNL     1      -6.094  17.425  19.338  0.00  0.00    +0.000 NA
ATOM     29  H   UNL     1      -6.987  17.739  19.720  0.00  0.00    +0.000 HD
ENDBRANCH   1  23
BRANCH  12  30
ATOM     30  C   UNL     1      -1.132  11.006  18.482  0.00  0.00    +0.000 C 
ATOM     31  C   UNL     1      -1.726  10.224  17.311  0.00  0.00    +0.000 C 
ATOM     32  C   UNL     1      -2.858  11.107  16.807  0.00  0.00    +0.000 C 
ATOM     33  C   UNL     1      -3.336  11.923  18.006  0.00  0.00    +0.000 C 
ATOM     34  C   UNL     1      -2.333  11.694  19.134  0.00  0.00    +0.000 C 
ENDBRANCH  12  30
TORSDOF 2
ENDMDL
MODEL 9
REMARK VINA RESULT:      -6.6      2.263      4.546
REMARK  Name = 
REMARK  3 active torsions:
REMARK  status: ('A' for Active; 'I' for Inactive)
REMARK    1  A    between atoms: C_1  and  C_2
REMARK    2  A    between atoms: C_8  and  N_9
REMARK    3  A    between atoms: N_20  and  C_21
REMARK                            x       y       z     vdW  Elec       q    Type
REMARK                         _______ _______ _______ _____ _____    ______ ____
ROOT
ATOM      1  N   UNL     1      -1.466  11.416  23.298  0.00  0.00    +0.000 N 
ATOM      2  C   UNL     1      -0.706  10.538  22.531  0.00  0.00    +0.000 A 
ATOM      3  N   UNL     1      -0.450   9.324  23.052  0.00  0.00    +0.000 NA
ATOM      4  C   UNL     1       0.318   8.453  22.349  0.00  0.00    +0.000 A 
ATOM      5  C   UNL     1       0.786   8.804  21.087  0.00  0.00    +0.000 A 
ATOM      6  C   UNL     1       1.563   8.203  20.056  0.00  0.00    +0.000 A 
ATOM      7  C   UNL     1       2.187   6.958  19.916  0.00  0.00    +0.000 A 
ATOM      8  C   UNL     1       2.856   6.729  18.726  0.00  0.00    +0.000 A 
ATOM      9  N   UNL     1       2.944   7.614  17.714  0.00  0.00    +0.000 NA
ATOM     10  C   UNL     1       2.349   8.819  17.839  0.00  0.00    +0.000 A 
ATOM     11  C   UNL     1       1.656   9.130  19.006  0.00  0.00    +0.000 A 
ATOM     12  N   UNL     1       0.969  10.267  19.394  0.00  0.00    +0.000 N 
ATOM     13  C   UNL     1       0.440  10.063  20.648  0.00  0.00    +0.000 A 
ATOM     14  N   UNL     1      -0.286  10.951  21.328  0.00  0.00    +0.000 NA
ATOM     15  H   UNL     1      -2.127  10.934  23.891  0.00  0.00    +0.000 HD
ENDROOT
BRANCH   1  23
ATOM     16  C   UNL     1      -6.251  16.399  22.243  0.00  0.00    +0.000 C 
ATOM     17  C   UNL     1      -5.350  17.403  21.519  0.00  0.00    +0.000 C 
ATOM     18  C   UNL     1      -4.048  16.758  20.983  0.00  0.00    +0.000 C 
ATOM     19  N   UNL     1      -3.028  16.561  22.023  0.00  0.00    +0.000 N 
ATOM     20  C   UNL     1      -2.642  15.273  22.331  0.00  0.00    +0.000 A 
ATOM     21  C   UNL     1      -1.413  14.969  22.931  0.00  0.00    +0.000 A 
ATOM     22  N   UNL     1      -0.976  13.715  23.246  0.00  0.00    +0.000 NA
ATOM     23  C   UNL     1      -1.830  12.713  22.953  0.00  0.00    +0.000 A 
ATOM     24  C   UNL     1      -3.035  13.011  22.311  0.00  0.00    +0.000 A 
ATOM     25  N   UNL     1      -3.459  14.260  21.996  0.00  0.00    +0.000 NA
ATOM     26  C   UNL     1      -2.827  17.645  22.986  0.00  0.00    +0.000 C 
ATOM     27  C   UNL     1      -4.162  18.281  23.441  0.00  0.00    +0.000 C 
ATOM     28  N   UNL     1      -5.095  18.608  22.346  0.00  0.00    +0.000 NA
ATOM     29  H   UNL     1      -4.633  19.294  21.746  0.00  0.00    +0.000 HD
ENDBRANCH   1  23
BRANCH  12  30
ATOM     30  C   UNL     1       0.802  11.503  18.644  0.00  0.00    +0.000 C 
ATOM     31  C   UNL     1      -0.609  12.091  18.689  0.00  0.00    +0.000 C 
ATOM     32  C   UNL     1      -0.425  13.537  18.254  0.00  0.00    +0.000 C 
ATOM     33  C   UNL     1       0.998  13.929  18.647  0.00  0.00    +0.000 C 
ATOM     34  C   UNL     1       1.712  12.652  19.083  0.00  0.00    +0.000 C 
ENDBRANCH  12  30
TORSDOF 2
ENDMDL
