MODEL 1
REMARK VINA RESULT:      -8.9      0.000      0.000
REMARK  Name = 
REMARK  10 active torsions:
REMARK  status: ('A' for Active; 'I' for Inactive)
REMARK    1  A    between atoms: C_1  and  C_2
REMARK    2  A    between atoms: C_2  and  C_3
REMARK    3  A    between atoms: C_3  and  C_4
REMARK    4  A    between atoms: C_4  and  C_5
REMARK    5  A    between atoms: C_5  and  C_6
REMARK    6  A    between atoms: C_7  and  C_8
REMARK    7  A    between atoms: N_10  and  C_11
REMARK    8  A    between atoms: C_11  and  C_12
REMARK    9  A    between atoms: C_13  and  C_14
REMARK   10  A    between atoms: C_14  and  N_15
REMARK                            x       y       z     vdW  Elec       q    Type
REMARK                         _______ _______ _______ _____ _____    ______ ____
ROOT
ATOM      1  C   UNL     1       5.722   4.259  16.249  0.00  0.00    +0.000 A 
ATOM      2  C   UNL     1       4.464   4.367  16.687  0.00  0.00    +0.000 A 
ATOM      3  N   UNL     1       4.174   4.738  17.999  0.00  0.00    +0.000 N 
ATOM      4  C   UNL     1       5.204   4.908  18.886  0.00  0.00    +0.000 A 
ATOM      5  O   UNL     1       5.027   5.368  20.032  0.00  0.00    +0.000 OA
ATOM      6  N   UNL     1       6.456   4.602  18.498  0.00  0.00    +0.000 N 
ATOM      7  C   UNL     1       6.852   4.427  17.188  0.00  0.00    +0.000 A 
ATOM      8  O   UNL     1       8.012   4.428  16.849  0.00  0.00    +0.000 OA
ATOM      9  H   UNL     1       7.208   4.771  19.158  0.00  0.00    +0.000 HD
ENDROOT
BRANCH   1  11
ATOM     10  C   UNL     1       6.167   3.773  13.504  0.00  0.00    +0.000 C 
ATOM     11  C   UNL     1       5.962   3.997  14.771  0.00  0.00    +0.000 C 
BRANCH  10  12
ATOM     12  C   UNL     1       6.407   3.511  12.026  0.00  0.00    +0.000 C 
BRANCH  12  13
ATOM     13  C   UNL     1       5.293   2.637  11.478  0.00  0.00    +0.000 C 
BRANCH  13  14
ATOM     14  C   UNL     1       3.972   3.389  11.509  0.00  0.00    +0.000 C 
BRANCH  14  16
ATOM     15  C   UNL     1       2.913   4.346   9.460  0.00  0.00    +0.000 C 
ATOM     16  C   UNL     1       3.148   3.083  10.266  0.00  0.00    +0.000 C 
ENDBRANCH  14  16
ENDBRANCH  13  14
ENDBRANCH  12  13
ENDBRANCH  10  12
ENDBRANCH   1  11
BRANCH   3  17
ATOM     17  C   UNL     1       2.815   5.172  18.385  0.00  0.00    +0.000 C 
BRANCH  17  18
ATOM     18  C   UNL     1       2.514   6.629  18.170  0.00  0.00    +0.000 C 
ATOM     19  C   UNL     1       2.161   7.582  19.055  0.00  0.00    +0.000 C 
BRANCH  19  20
ATOM     20  C   UNL     1       1.901   9.033  18.662  0.00  0.00    +0.000 C 
BRANCH  20  21
ATOM     21  N   UNL     1       1.035   9.744  19.609  0.00  0.00    +0.000 N 
ATOM     22  C   UNL     1      -0.087  10.354  19.217  0.00  0.00    +0.000 C 
ATOM     23  O   UNL     1      -0.809  10.027  18.273  0.00  0.00    +0.000 OA
ATOM     24  C   UNL     1      -0.590  11.099  20.363  0.00  0.00    +0.000 A 
ATOM     25  C   UNL     1      -0.157  12.358  20.819  0.00  0.00    +0.000 A 
ATOM     26  C   UNL     1      -0.417  12.736  22.150  0.00  0.00    +0.000 A 
ATOM     27  C   UNL     1      -1.149  11.861  22.922  0.00  0.00    +0.000 A 
ATOM     28  C   UNL     1      -1.194  10.533  22.485  0.00  0.00    +0.000 A 
ATOM     29  C   UNL     1      -0.506  10.153  21.328  0.00  0.00    +0.000 A 
ATOM     30  C   UNL     1       1.007   9.803  20.993  0.00  0.00    +0.000 C 
ATOM     31  O   UNL     1       1.940   9.812  21.752  0.00  0.00    +0.000 OA
ENDBRANCH  20  21
ENDBRANCH  19  20
ENDBRANCH  17  18
ENDBRANCH   3  17
TORSDOF 9
ENDMDL
MODEL 2
REMARK VINA RESULT:      -8.4      1.173      1.646
REMARK  Name = 
REMARK  10 active torsions:
REMARK  status: ('A' for Active; 'I' for Inactive)
REMARK    1  A    between atoms: C_1  and  C_2
REMARK    2  A    between atoms: C_2  and  C_3
REMARK    3  A    between atoms: C_3  and  C_4
REMARK    4  A    between atoms: C_4  and  C_5
REMARK    5  A    between atoms: C_5  and  C_6
REMARK    6  A    between atoms: C_7  and  C_8
REMARK    7  A    between atoms: N_10  and  C_11
REMARK    8  A    between atoms: C_11  and  C_12
REMARK    9  A    between atoms: C_13  and  C_14
REMARK   10  A    between atoms: C_14  and  N_15
REMARK                            x       y       z     vdW  Elec       q    Type
REMARK                         _______ _______ _______ _____ _____    ______ ____
ROOT
ATOM      1  C   UNL     1       5.791   4.404  16.170  0.00  0.00    +0.000 A 
ATOM      2  C   UNL     1       4.577   4.724  16.626  0.00  0.00    +0.000 A 
ATOM      3  N   UNL     1       4.380   5.181  17.928  0.00  0.00    +0.000 N 
ATOM      4  C   UNL     1       5.445   5.217  18.789  0.00  0.00    +0.000 A 
ATOM      5  O   UNL     1       5.368   5.738  19.921  0.00  0.00    +0.000 OA
ATOM      6  N   UNL     1       6.623   4.704  18.392  0.00  0.00    +0.000 N 
ATOM      7  C   UNL     1       6.956   4.424  17.083  0.00  0.00    +0.000 A 
ATOM      8  O   UNL     1       8.094   4.230  16.723  0.00  0.00    +0.000 OA
ATOM      9  H   UNL     1       7.407   4.774  19.031  0.00  0.00    +0.000 HD
ENDROOT
BRANCH   1  11
ATOM     10  C   UNL     1       6.091   3.760  13.438  0.00  0.00    +0.000 C 
ATOM     11  C   UNL     1       5.953   4.057  14.699  0.00  0.00    +0.000 C 
BRANCH  10  12
ATOM     12  C   UNL     1       6.252   3.413  11.967  0.00  0.00    +0.000 C 
BRANCH  12  13
ATOM     13  C   UNL     1       5.099   2.530  11.524  0.00  0.00    +0.000 C 
BRANCH  13  14
ATOM     14  C   UNL     1       3.847   3.368  11.313  0.00  0.00    +0.000 C 
BRANCH  14  16
ATOM     15  C   UNL     1       2.653   4.587   9.489  0.00  0.00    +0.000 C 
ATOM     16  C   UNL     1       3.407   3.322   9.856  0.00  0.00    +0.000 C 
ENDBRANCH  14  16
ENDBRANCH  13  14
ENDBRANCH  12  13
ENDBRANCH  10  12
ENDBRANCH   1  11
BRANCH   3  17
ATOM     17  C   UNL     1       3.116   5.837  18.322  0.00  0.00    +0.000 C 
BRANCH  17  18
ATOM     18  C   UNL     1       3.023   7.305  18.012  0.00  0.00    +0.000 C 
ATOM     19  C   UNL     1       1.965   8.139  18.069  0.00  0.00    +0.000 C 
BRANCH  19  20
ATOM     20  C   UNL     1       2.052   9.623  17.727  0.00  0.00    +0.000 C 
BRANCH  20  21
ATOM     21  N   UNL     1       1.144  10.456  18.525  0.00  0.00    +0.000 N 
ATOM     22  C   UNL     1       1.540  11.611  19.066  0.00  0.00    +0.000 C 
ATOM     23  O   UNL     1       2.401  12.374  18.620  0.00  0.00    +0.000 OA
ATOM     24  C   UNL     1       0.459  12.071  19.927  0.00  0.00    +0.000 A 
ATOM     25  C   UNL     1       0.172  11.647  21.236  0.00  0.00    +0.000 A 
ATOM     26  C   UNL     1      -1.121  11.845  21.759  0.00  0.00    +0.000 A 
ATOM     27  C   UNL     1      -2.025  12.513  20.963  0.00  0.00    +0.000 A 
ATOM     28  C   UNL     1      -1.743  12.548  19.594  0.00  0.00    +0.000 A 
ATOM     29  C   UNL     1      -0.600  11.913  19.098  0.00  0.00    +0.000 A 
ATOM     30  C   UNL     1      -0.223  10.412  18.740  0.00  0.00    +0.000 C 
ATOM     31  O   UNL     1      -0.925   9.441  18.852  0.00  0.00    +0.000 OA
ENDBRANCH  20  21
ENDBRANCH  19  20
ENDBRANCH  17  18
ENDBRANCH   3  17
TORSDOF 9
ENDMDL
MODEL 3
REMARK VINA RESULT:      -8.1      3.523      5.695
REMARK  Name = 
REMARK  10 active torsions:
REMARK  status: ('A' for Active; 'I' for Inactive)
REMARK    1  A    between atoms: C_1  and  C_2
REMARK    2  A    between atoms: C_2  and  C_3
REMARK    3  A    between atoms: C_3  and  C_4
REMARK    4  A    between atoms: C_4  and  C_5
REMARK    5  A    between atoms: C_5  and  C_6
REMARK    6  A    between atoms: C_7  and  C_8
REMARK    7  A    between atoms: N_10  and  C_11
REMARK    8  A    between atoms: C_11  and  C_12
REMARK    9  A    between atoms: C_13  and  C_14
REMARK   10  A    between atoms: C_14  and  N_15
REMARK                            x       y       z     vdW  Elec       q    Type
REMARK                         _______ _______ _______ _____ _____    ______ ____
ROOT
ATOM      1  C   UNL     1       6.260   6.166  17.405  0.00  0.00    +0.000 A 
ATOM      2  C   UNL     1       4.954   6.354  17.618  0.00  0.00    +0.000 A 
ATOM      3  N   UNL     1       4.057   5.288  17.653  0.00  0.00    +0.000 N 
ATOM      4  C   UNL     1       4.510   4.026  17.372  0.00  0.00    +0.000 A 
ATOM      5  O   UNL     1       3.795   3.014  17.516  0.00  0.00    +0.000 OA
ATOM      6  N   UNL     1       5.781   3.867  16.958  0.00  0.00    +0.000 N 
ATOM      7  C   UNL     1       6.773   4.816  17.088  0.00  0.00    +0.000 A 
ATOM      8  O   UNL     1       7.948   4.556  16.966  0.00  0.00    +0.000 OA
ATOM      9  H   UNL     1       6.106   2.921  16.791  0.00  0.00    +0.000 HD
ENDROOT
BRANCH   1  11
ATOM     10  C   UNL     1       8.005   8.373  17.635  0.00  0.00    +0.000 C 
ATOM     11  C   UNL     1       7.199   7.354  17.528  0.00  0.00    +0.000 C 
BRANCH  10  12
ATOM     12  C   UNL     1       8.945   9.561  17.758  0.00  0.00    +0.000 C 
BRANCH  12  13
ATOM     13  C   UNL     1       9.032   9.990  19.212  0.00  0.00    +0.000 C 
BRANCH  13  14
ATOM     14  C   UNL     1      10.120  11.039  19.386  0.00  0.00    +0.000 C 
BRANCH  14  16
ATOM     15  C   UNL     1       9.922  13.063  17.936  0.00  0.00    +0.000 C 
ATOM     16  C   UNL     1      10.489  11.660  18.046  0.00  0.00    +0.000 C 
ENDBRANCH  14  16
ENDBRANCH  13  14
ENDBRANCH  12  13
ENDBRANCH  10  12
ENDBRANCH   1  11
BRANCH   3  17
ATOM     17  C   UNL     1       2.697   5.455  18.208  0.00  0.00    +0.000 C 
BRANCH  17  18
ATOM     18  C   UNL     1       2.495   6.665  19.076  0.00  0.00    +0.000 C 
ATOM     19  C   UNL     1       1.758   6.818  20.195  0.00  0.00    +0.000 C 
BRANCH  19  20
ATOM     20  C   UNL     1       1.673   8.130  20.967  0.00  0.00    +0.000 C 
BRANCH  20  21
ATOM     21  N   UNL     1       0.856   9.147  20.294  0.00  0.00    +0.000 N 
ATOM     22  C   UNL     1      -0.295   9.582  20.814  0.00  0.00    +0.000 C 
ATOM     23  O   UNL     1      -0.580   9.652  22.012  0.00  0.00    +0.000 OA
ATOM     24  C   UNL     1      -0.920  10.435  19.811  0.00  0.00    +0.000 A 
ATOM     25  C   UNL     1      -1.669  10.028  18.693  0.00  0.00    +0.000 A 
ATOM     26  C   UNL     1      -1.824  10.913  17.608  0.00  0.00    +0.000 A 
ATOM     27  C   UNL     1      -1.276  12.170  17.737  0.00  0.00    +0.000 A 
ATOM     28  C   UNL     1      -0.274  12.316  18.702  0.00  0.00    +0.000 A 
ATOM     29  C   UNL     1       0.131  11.215  19.463  0.00  0.00    +0.000 A 
ATOM     30  C   UNL     1       1.095   9.978  19.212  0.00  0.00    +0.000 C 
ATOM     31  O   UNL     1       1.711   9.729  18.210  0.00  0.00    +0.000 OA
ENDBRANCH  20  21
ENDBRANCH  19  20
ENDBRANCH  17  18
ENDBRANCH   3  17
TORSDOF 9
ENDMDL
MODEL 4
REMARK VINA RESULT:      -8.0      1.012      1.152
REMARK  Name = 
REMARK  10 active torsions:
REMARK  status: ('A' for Active; 'I' for Inactive)
REMARK    1  A    between atoms: C_1  and  C_2
REMARK    2  A    between atoms: C_2  and  C_3
REMARK    3  A    between atoms: C_3  and  C_4
REMARK    4  A    between atoms: C_4  and  C_5
REMARK    5  A    between atoms: C_5  and  C_6
REMARK    6  A    between atoms: C_7  and  C_8
REMARK    7  A    between atoms: N_10  and  C_11
REMARK    8  A    between atoms: C_11  and  C_12
REMARK    9  A    between atoms: C_13  and  C_14
REMARK   10  A    between atoms: C_14  and  N_15
REMARK                            x       y       z     vdW  Elec       q    Type
REMARK                         _______ _______ _______ _____ _____    ______ ____
ROOT
ATOM      1  C   UNL     1       5.666   4.441  16.226  0.00  0.00    +0.000 A 
ATOM      2  C   UNL     1       4.434   4.749  16.643  0.00  0.00    +0.000 A 
ATOM      3  N   UNL     1       4.185   5.162  17.950  0.00  0.00    +0.000 N 
ATOM      4  C   UNL     1       5.215   5.167  18.854  0.00  0.00    +0.000 A 
ATOM      5  O   UNL     1       5.094   5.650  19.999  0.00  0.00    +0.000 OA
ATOM      6  N   UNL     1       6.408   4.665  18.487  0.00  0.00    +0.000 N 
ATOM      7  C   UNL     1       6.792   4.428  17.184  0.00  0.00    +0.000 A 
ATOM      8  O   UNL     1       7.944   4.243  16.864  0.00  0.00    +0.000 OA
ATOM      9  H   UNL     1       7.166   4.712  19.160  0.00  0.00    +0.000 HD
ENDROOT
BRANCH   1  11
ATOM     10  C   UNL     1       6.073   3.888  13.488  0.00  0.00    +0.000 C 
ATOM     11  C   UNL     1       5.885   4.144  14.751  0.00  0.00    +0.000 C 
BRANCH  10  12
ATOM     12  C   UNL     1       6.293   3.590  12.013  0.00  0.00    +0.000 C 
BRANCH  12  13
ATOM     13  C   UNL     1       5.529   2.336  11.629  0.00  0.00    +0.000 C 
BRANCH  13  14
ATOM     14  C   UNL     1       4.089   2.683  11.284  0.00  0.00    +0.000 C 
BRANCH  14  16
ATOM     15  C   UNL     1       2.883   4.102   9.621  0.00  0.00    +0.000 C 
ATOM     16  C   UNL     1       4.005   4.060  10.640  0.00  0.00    +0.000 C 
ENDBRANCH  14  16
ENDBRANCH  13  14
ENDBRANCH  12  13
ENDBRANCH  10  12
ENDBRANCH   1  11
BRANCH   3  17
ATOM     17  C   UNL     1       2.907   5.808  18.315  0.00  0.00    +0.000 C 
BRANCH  17  18
ATOM     18  C   UNL     1       2.884   7.307  18.209  0.00  0.00    +0.000 C 
ATOM     19  C   UNL     1       1.882   8.138  17.858  0.00  0.00    +0.000 C 
BRANCH  19  20
ATOM     20  C   UNL     1       2.030   9.655  17.814  0.00  0.00    +0.000 C 
BRANCH  20  21
ATOM     21  N   UNL     1       0.976  10.362  18.551  0.00  0.00    +0.000 N 
ATOM     22  C   UNL     1      -0.287  10.393  18.118  0.00  0.00    +0.000 C 
ATOM     23  O   UNL     1      -0.858   9.523  17.455  0.00  0.00    +0.000 OA
ATOM     24  C   UNL     1      -1.010  11.319  18.979  0.00  0.00    +0.000 A 
ATOM     25  C   UNL     1      -1.030  12.723  18.896  0.00  0.00    +0.000 A 
ATOM     26  C   UNL     1      -1.399  13.476  20.027  0.00  0.00    +0.000 A 
ATOM     27  C   UNL     1      -1.788  12.778  21.149  0.00  0.00    +0.000 A 
ATOM     28  C   UNL     1      -1.380  11.442  21.223  0.00  0.00    +0.000 A 
ATOM     29  C   UNL     1      -0.607  10.888  20.197  0.00  0.00    +0.000 A 
ATOM     30  C   UNL     1       0.933  10.930  19.814  0.00  0.00    +0.000 C 
ATOM     31  O   UNL     1       1.810  11.518  20.391  0.00  0.00    +0.000 OA
ENDBRANCH  20  21
ENDBRANCH  19  20
ENDBRANCH  17  18
ENDBRANCH   3  17
TORSDOF 9
ENDMDL
MODEL 5
REMARK VINA RESULT:      -7.8      3.565      5.806
REMARK  Name = 
REMARK  10 active torsions:
REMARK  status: ('A' for Active; 'I' for Inactive)
REMARK    1  A    between atoms: C_1  and  C_2
REMARK    2  A    between atoms: C_2  and  C_3
REMARK    3  A    between atoms: C_3  and  C_4
REMARK    4  A    between atoms: C_4  and  C_5
REMARK    5  A    between atoms: C_5  and  C_6
REMARK    6  A    between atoms: C_7  and  C_8
REMARK    7  A    between atoms: N_10  and  C_11
REMARK    8  A    between atoms: C_11  and  C_12
REMARK    9  A    between atoms: C_13  and  C_14
REMARK   10  A    between atoms: C_14  and  N_15
REMARK                            x       y       z     vdW  Elec       q    Type
REMARK                         _______ _______ _______ _____ _____    ______ ____
ROOT
ATOM      1  C   UNL     1       6.398   6.182  17.839  0.00  0.00    +0.000 A 
ATOM      2  C   UNL     1       5.077   6.273  17.655  0.00  0.00    +0.000 A 
ATOM      3  N   UNL     1       4.242   5.165  17.782  0.00  0.00    +0.000 N 
ATOM      4  C   UNL     1       4.799   3.934  18.011  0.00  0.00    +0.000 A 
ATOM      5  O   UNL     1       4.107   2.928  18.267  0.00  0.00    +0.000 OA
ATOM      6  N   UNL     1       6.139   3.810  17.994  0.00  0.00    +0.000 N 
ATOM      7  C   UNL     1       7.025   4.864  18.077  0.00  0.00    +0.000 A 
ATOM      8  O   UNL     1       8.197   4.714  18.335  0.00  0.00    +0.000 OA
ATOM      9  H   UNL     1       6.530   2.898  18.202  0.00  0.00    +0.000 HD
ENDROOT
BRANCH   1  11
ATOM     10  C   UNL     1       7.937   8.548  17.827  0.00  0.00    +0.000 C 
ATOM     11  C   UNL     1       7.227   7.456  17.832  0.00  0.00    +0.000 C 
BRANCH  10  12
ATOM     12  C   UNL     1       8.766   9.822  17.820  0.00  0.00    +0.000 C 
BRANCH  12  13
ATOM     13  C   UNL     1       9.200  10.153  19.237  0.00  0.00    +0.000 C 
BRANCH  13  14
ATOM     14  C   UNL     1       9.821  11.541  19.286  0.00  0.00    +0.000 C 
BRANCH  14  16
ATOM     15  C   UNL     1      11.864  12.389  18.128  0.00  0.00    +0.000 C 
ATOM     16  C   UNL     1      11.338  11.456  19.203  0.00  0.00    +0.000 C 
ENDBRANCH  14  16
ENDBRANCH  13  14
ENDBRANCH  12  13
ENDBRANCH  10  12
ENDBRANCH   1  11
BRANCH   3  17
ATOM     17  C   UNL     1       2.778   5.324  17.905  0.00  0.00    +0.000 C 
BRANCH  17  18
ATOM     18  C   UNL     1       2.310   6.122  19.089  0.00  0.00    +0.000 C 
ATOM     19  C   UNL     1       2.110   7.449  19.219  0.00  0.00    +0.000 C 
BRANCH  19  20
ATOM     20  C   UNL     1       1.614   8.097  20.507  0.00  0.00    +0.000 C 
BRANCH  20  21
ATOM     21  N   UNL     1       1.059   9.440  20.303  0.00  0.00    +0.000 N 
ATOM     22  C   UNL     1       0.550  10.153  21.312  0.00  0.00    +0.000 C 
ATOM     23  O   UNL     1       0.896  10.102  22.494  0.00  0.00    +0.000 OA
ATOM     24  C   UNL     1      -0.066  11.338  20.728  0.00  0.00    +0.000 A 
ATOM     25  C   UNL     1      -1.333  11.431  20.127  0.00  0.00    +0.000 A 
ATOM     26  C   UNL     1      -1.600  12.494  19.241  0.00  0.00    +0.000 A 
ATOM     27  C   UNL     1      -0.606  13.430  19.064  0.00  0.00    +0.000 A 
ATOM     28  C   UNL     1       0.690  13.036  19.413  0.00  0.00    +0.000 A 
ATOM     29  C   UNL     1       0.923  11.745  19.898  0.00  0.00    +0.000 A 
ATOM     30  C   UNL     1       1.087  10.314  19.228  0.00  0.00    +0.000 C 
ATOM     31  O   UNL     1       1.023  10.049  18.057  0.00  0.00    +0.000 OA
ENDBRANCH  20  21
ENDBRANCH  19  20
ENDBRANCH  17  18
ENDBRANCH   3  17
TORSDOF 9
ENDMDL
MODEL 6
REMARK VINA RESULT:      -7.6      3.685      5.930
REMARK  Name = 
REMARK  10 active torsions:
REMARK  status: ('A' for Active; 'I' for Inactive)
REMARK    1  A    between atoms: C_1  and  C_2
REMARK    2  A    between atoms: C_2  and  C_3
REMARK    3  A    between atoms: C_3  and  C_4
REMARK    4  A    between atoms: C_4  and  C_5
REMARK    5  A    between atoms: C_5  and  C_6
REMARK    6  A    between atoms: C_7  and  C_8
REMARK    7  A    between atoms: N_10  and  C_11
REMARK    8  A    between atoms: C_11  and  C_12
REMARK    9  A    between atoms: C_13  and  C_14
REMARK   10  A    between atoms: C_14  and  N_15
REMARK                            x       y       z     vdW  Elec       q    Type
REMARK                         _______ _______ _______ _____ _____    ______ ____
ROOT
ATOM      1  C   UNL     1       6.297   6.571  17.580  0.00  0.00    +0.000 A 
ATOM      2  C   UNL     1       4.988   6.839  17.606  0.00  0.00    +0.000 A 
ATOM      3  N   UNL     1       4.033   5.824  17.620  0.00  0.00    +0.000 N 
ATOM      4  C   UNL     1       4.444   4.521  17.514  0.00  0.00    +0.000 A 
ATOM      5  O   UNL     1       3.658   3.562  17.654  0.00  0.00    +0.000 OA
ATOM      6  N   UNL     1       5.744   4.264  17.283  0.00  0.00    +0.000 N 
ATOM      7  C   UNL     1       6.767   5.174  17.454  0.00  0.00    +0.000 A 
ATOM      8  O   UNL     1       7.930   4.849  17.508  0.00  0.00    +0.000 OA
ATOM      9  H   UNL     1       6.032   3.292  17.245  0.00  0.00    +0.000 HD
ENDROOT
BRANCH   1  11
ATOM     10  C   UNL     1       8.126   8.707  17.833  0.00  0.00    +0.000 C 
ATOM     11  C   UNL     1       7.282   7.721  17.716  0.00  0.00    +0.000 C 
BRANCH  10  12
ATOM     12  C   UNL     1       9.110   9.856  17.970  0.00  0.00    +0.000 C 
BRANCH  12  13
ATOM     13  C   UNL     1       9.291  10.199  19.438  0.00  0.00    +0.000 C 
BRANCH  13  14
ATOM     14  C   UNL     1       9.621  11.675  19.597  0.00  0.00    +0.000 C 
BRANCH  14  16
ATOM     15  C   UNL     1      12.096  11.930  19.807  0.00  0.00    +0.000 C 
ATOM     16  C   UNL     1      10.782  11.868  20.562  0.00  0.00    +0.000 C 
ENDBRANCH  14  16
ENDBRANCH  13  14
ENDBRANCH  12  13
ENDBRANCH  10  12
ENDBRANCH   1  11
BRANCH   3  17
ATOM     17  C   UNL     1       2.627   6.106  17.978  0.00  0.00    +0.000 C 
BRANCH  17  18
ATOM     18  C   UNL     1       2.145   7.495  17.667  0.00  0.00    +0.000 C 
ATOM     19  C   UNL     1       1.877   8.527  18.492  0.00  0.00    +0.000 C 
BRANCH  19  20
ATOM     20  C   UNL     1       1.401   9.889  18.000  0.00  0.00    +0.000 C 
BRANCH  20  21
ATOM     21  N   UNL     1       0.605  10.619  18.994  0.00  0.00    +0.000 N 
ATOM     22  C   UNL     1       1.144  11.559  19.776  0.00  0.00    +0.000 C 
ATOM     23  O   UNL     1       2.095  12.293  19.493  0.00  0.00    +0.000 OA
ATOM     24  C   UNL     1       0.129  11.936  20.751  0.00  0.00    +0.000 A 
ATOM     25  C   UNL     1      -0.209  11.258  21.935  0.00  0.00    +0.000 A 
ATOM     26  C   UNL     1      -1.467  11.487  22.526  0.00  0.00    +0.000 A 
ATOM     27  C   UNL     1      -2.279  12.429  21.933  0.00  0.00    +0.000 A 
ATOM     28  C   UNL     1      -1.994  12.746  20.600  0.00  0.00    +0.000 A 
ATOM     29  C   UNL     1      -0.940  12.107  19.939  0.00  0.00    +0.000 A 
ATOM     30  C   UNL     1      -0.757  10.696  19.234  0.00  0.00    +0.000 C 
ATOM     31  O   UNL     1      -1.576   9.819  19.139  0.00  0.00    +0.000 OA
ENDBRANCH  20  21
ENDBRANCH  19  20
ENDBRANCH  17  18
ENDBRANCH   3  17
TORSDOF 9
ENDMDL
MODEL 7
REMARK VINA RESULT:      -7.6      2.078      2.794
REMARK  Name = 
REMARK  10 active torsions:
REMARK  status: ('A' for Active; 'I' for Inactive)
REMARK    1  A    between atoms: C_1  and  C_2
REMARK    2  A    between atoms: C_2  and  C_3
REMARK    3  A    between atoms: C_3  and  C_4
REMARK    4  A    between atoms: C_4  and  C_5
REMARK    5  A    between atoms: C_5  and  C_6
REMARK    6  A    between atoms: C_7  and  C_8
REMARK    7  A    between atoms: N_10  and  C_11
REMARK    8  A    between atoms: C_11  and  C_12
REMARK    9  A    between atoms: C_13  and  C_14
REMARK   10  A    between atoms: C_14  and  N_15
REMARK                            x       y       z     vdW  Elec       q    Type
REMARK                         _______ _______ _______ _____ _____    ______ ____
ROOT
ATOM      1  C   UNL     1       3.499   3.741  17.974  0.00  0.00    +0.000 A 
ATOM      2  C   UNL     1       3.019   4.829  18.584  0.00  0.00    +0.000 A 
ATOM      3  N   UNL     1       2.240   4.739  19.736  0.00  0.00    +0.000 N 
ATOM      4  C   UNL     1       1.882   3.501  20.203  0.00  0.00    +0.000 A 
ATOM      5  O   UNL     1       1.303   3.344  21.297  0.00  0.00    +0.000 OA
ATOM      6  N   UNL     1       2.195   2.414  19.474  0.00  0.00    +0.000 N 
ATOM      7  C   UNL     1       3.119   2.394  18.451  0.00  0.00    +0.000 A 
ATOM      8  O   UNL     1       3.579   1.369  18.004  0.00  0.00    +0.000 OA
ATOM      9  H   UNL     1       1.952   1.506  19.856  0.00  0.00    +0.000 HD
ENDROOT
BRANCH   1  11
ATOM     10  C   UNL     1       5.290   4.073  15.817  0.00  0.00    +0.000 C 
ATOM     11  C   UNL     1       4.463   3.920  16.812  0.00  0.00    +0.000 C 
BRANCH  10  12
ATOM     12  C   UNL     1       6.254   4.252  14.655  0.00  0.00    +0.000 C 
BRANCH  12  13
ATOM     13  C   UNL     1       5.511   4.061  13.345  0.00  0.00    +0.000 C 
BRANCH  13  14
ATOM     14  C   UNL     1       6.259   3.081  12.454  0.00  0.00    +0.000 C 
BRANCH  14  16
ATOM     15  C   UNL     1       4.000   3.240  11.404  0.00  0.00    +0.000 C 
ATOM     16  C   UNL     1       5.361   2.574  11.335  0.00  0.00    +0.000 C 
ENDBRANCH  14  16
ENDBRANCH  13  14
ENDBRANCH  12  13
ENDBRANCH  10  12
ENDBRANCH   1  11
BRANCH   3  17
ATOM     17  C   UNL     1       1.993   5.924  20.583  0.00  0.00    +0.000 C 
BRANCH  17  18
ATOM     18  C   UNL     1       2.142   7.254  19.898  0.00  0.00    +0.000 C 
ATOM     19  C   UNL     1       1.256   8.259  19.750  0.00  0.00    +0.000 C 
BRANCH  19  20
ATOM     20  C   UNL     1       1.582   9.561  19.027  0.00  0.00    +0.000 C 
BRANCH  20  21
ATOM     21  N   UNL     1       0.659  10.653  19.354  0.00  0.00    +0.000 N 
ATOM     22  C   UNL     1      -0.371  10.966  18.563  0.00  0.00    +0.000 C 
ATOM     23  O   UNL     1      -1.000  10.193  17.837  0.00  0.00    +0.000 OA
ATOM     24  C   UNL     1      -0.955  12.193  19.090  0.00  0.00    +0.000 A 
ATOM     25  C   UNL     1      -0.502  13.508  18.886  0.00  0.00    +0.000 A 
ATOM     26  C   UNL     1      -0.888  14.518  19.789  0.00  0.00    +0.000 A 
ATOM     27  C   UNL     1      -1.754  14.163  20.798  0.00  0.00    +0.000 A 
ATOM     28  C   UNL     1      -1.830  12.800  21.103  0.00  0.00    +0.000 A 
ATOM     29  C   UNL     1      -1.040  11.881  20.404  0.00  0.00    +0.000 A 
ATOM     30  C   UNL     1       0.477  11.419  20.494  0.00  0.00    +0.000 C 
ATOM     31  O   UNL     1       1.316  11.825  21.255  0.00  0.00    +0.000 OA
ENDBRANCH  20  21
ENDBRANCH  19  20
ENDBRANCH  17  18
ENDBRANCH   3  17
TORSDOF 9
ENDMDL
MODEL 8
REMARK VINA RESULT:      -7.5      2.063      3.274
REMARK  Name = 
REMARK  10 active torsions:
REMARK  status: ('A' for Active; 'I' for Inactive)
REMARK    1  A    between atoms: C_1  and  C_2
REMARK    2  A    between atoms: C_2  and  C_3
REMARK    3  A    between atoms: C_3  and  C_4
REMARK    4  A    between atoms: C_4  and  C_5
REMARK    5  A    between atoms: C_5  and  C_6
REMARK    6  A    between atoms: C_7  and  C_8
REMARK    7  A    between atoms: N_10  and  C_11
REMARK    8  A    between atoms: C_11  and  C_12
REMARK    9  A    between atoms: C_13  and  C_14
REMARK   10  A    between atoms: C_14  and  N_15
REMARK                            x       y       z     vdW  Elec       q    Type
REMARK                         _______ _______ _______ _____ _____    ______ ____
ROOT
ATOM      1  C   UNL     1       3.548   3.865  18.196  0.00  0.00    +0.000 A 
ATOM      2  C   UNL     1       2.947   4.807  18.929  0.00  0.00    +0.000 A 
ATOM      3  N   UNL     1       2.145   4.484  20.022  0.00  0.00    +0.000 N 
ATOM      4  C   UNL     1       1.893   3.165  20.297  0.00  0.00    +0.000 A 
ATOM      5  O   UNL     1       1.298   2.803  21.332  0.00  0.00    +0.000 OA
ATOM      6  N   UNL     1       2.331   2.225  19.439  0.00  0.00    +0.000 N 
ATOM      7  C   UNL     1       3.284   2.434  18.465  0.00  0.00    +0.000 A 
ATOM      8  O   UNL     1       3.853   1.529  17.900  0.00  0.00    +0.000 OA
ATOM      9  H   UNL     1       2.165   1.254  19.681  0.00  0.00    +0.000 HD
ENDROOT
BRANCH   1  11
ATOM     10  C   UNL     1       5.364   4.660  16.186  0.00  0.00    +0.000 C 
ATOM     11  C   UNL     1       4.525   4.293  17.114  0.00  0.00    +0.000 C 
BRANCH  10  12
ATOM     12  C   UNL     1       6.341   5.088  15.103  0.00  0.00    +0.000 C 
BRANCH  12  13
ATOM     13  C   UNL     1       6.486   3.975  14.081  0.00  0.00    +0.000 C 
BRANCH  13  14
ATOM     14  C   UNL     1       5.149   3.701  13.409  0.00  0.00    +0.000 C 
BRANCH  14  16
ATOM     15  C   UNL     1       4.017   3.254  11.228  0.00  0.00    +0.000 C 
ATOM     16  C   UNL     1       5.349   3.300  11.954  0.00  0.00    +0.000 C 
ENDBRANCH  14  16
ENDBRANCH  13  14
ENDBRANCH  12  13
ENDBRANCH  10  12
ENDBRANCH   1  11
BRANCH   3  17
ATOM     17  C   UNL     1       1.759   5.510  21.013  0.00  0.00    +0.000 C 
BRANCH  17  18
ATOM     18  C   UNL     1       1.417   6.860  20.449  0.00  0.00    +0.000 C 
ATOM     19  C   UNL     1       1.046   7.994  21.076  0.00  0.00    +0.000 C 
BRANCH  19  20
ATOM     20  C   UNL     1       0.743   9.295  20.340  0.00  0.00    +0.000 C 
BRANCH  20  21
ATOM     21  N   UNL     1       0.064  10.291  21.178  0.00  0.00    +0.000 N 
ATOM     22  C   UNL     1       0.120  10.245  22.512  0.00  0.00    +0.000 C 
ATOM     23  O   UNL     1       1.047   9.800  23.193  0.00  0.00    +0.000 OA
ATOM     24  C   UNL     1      -0.801  11.258  23.012  0.00  0.00    +0.000 A 
ATOM     25  C   UNL     1      -2.197  11.149  23.145  0.00  0.00    +0.000 A 
ATOM     26  C   UNL     1      -2.976  12.320  23.217  0.00  0.00    +0.000 A 
ATOM     27  C   UNL     1      -2.305  13.524  23.218  0.00  0.00    +0.000 A 
ATOM     28  C   UNL     1      -0.997  13.508  22.722  0.00  0.00    +0.000 A 
ATOM     29  C   UNL     1      -0.444  12.315  22.246  0.00  0.00    +0.000 A 
ATOM     30  C   UNL     1      -0.553  11.496  20.889  0.00  0.00    +0.000 C 
ATOM     31  O   UNL     1      -1.212  11.778  19.922  0.00  0.00    +0.000 OA
ENDBRANCH  20  21
ENDBRANCH  19  20
ENDBRANCH  17  18
ENDBRANCH   3  17
TORSDOF 9
ENDMDL
MODEL 9
REMARK VINA RESULT:      -7.5      1.408      2.042
REMARK  Name = 
REMARK  10 active torsions:
REMARK  status: ('A' for Active; 'I' for Inactive)
REMARK    1  A    between atoms: C_1  and  C_2
REMARK    2  A    between atoms: C_2  and  C_3
REMARK    3  A    between atoms: C_3  and  C_4
REMARK    4  A    between atoms: C_4  and  C_5
REMARK    5  A    between atoms: C_5  and  C_6
REMARK    6  A    between atoms: C_7  and  C_8
REMARK    7  A    between atoms: N_10  and  C_11
REMARK    8  A    between atoms: C_11  and  C_12
REMARK    9  A    between atoms: C_13  and  C_14
REMARK   10  A    between atoms: C_14  and  N_15
REMARK                            x       y       z     vdW  Elec       q    Type
REMARK                         _______ _______ _______ _____ _____    ______ ____
ROOT
ATOM      1  C   UNL     1       5.812   4.525  15.983  0.00  0.00    +0.000 A 
ATOM      2  C   UNL     1       4.733   4.109  16.652  0.00  0.00    +0.000 A 
ATOM      3  N   UNL     1       4.428   4.591  17.923  0.00  0.00    +0.000 N 
ATOM      4  C   UNL     1       5.304   5.445  18.540  0.00  0.00    +0.000 A 
ATOM      5  O   UNL     1       5.032   6.017  19.615  0.00  0.00    +0.000 OA
ATOM      6  N   UNL     1       6.486   5.704  17.951  0.00  0.00    +0.000 N 
ATOM      7  C   UNL     1       6.780   5.438  16.630  0.00  0.00    +0.000 A 
ATOM      8  O   UNL     1       7.731   5.922  16.060  0.00  0.00    +0.000 OA
ATOM      9  H   UNL     1       7.104   6.366  18.407  0.00  0.00    +0.000 HD
ENDROOT
BRANCH   1  11
ATOM     10  C   UNL     1       6.164   3.682  13.312  0.00  0.00    +0.000 C 
ATOM     11  C   UNL     1       6.002   4.071  14.545  0.00  0.00    +0.000 C 
BRANCH  10  12
ATOM     12  C   UNL     1       6.354   3.228  11.874  0.00  0.00    +0.000 C 
BRANCH  12  13
ATOM     13  C   UNL     1       5.128   2.457  11.419  0.00  0.00    +0.000 C 
BRANCH  13  14
ATOM     14  C   UNL     1       3.901   3.356  11.448  0.00  0.00    +0.000 C 
BRANCH  14  16
ATOM     15  C   UNL     1       2.874   4.492   9.476  0.00  0.00    +0.000 C 
ATOM     16  C   UNL     1       3.064   3.168  10.190  0.00  0.00    +0.000 C 
ENDBRANCH  14  16
ENDBRANCH  13  14
ENDBRANCH  12  13
ENDBRANCH  10  12
ENDBRANCH   1  11
BRANCH   3  17
ATOM     17  C   UNL     1       3.088   4.389  18.514  0.00  0.00    +0.000 C 
BRANCH  17  18
ATOM     18  C   UNL     1       2.680   5.392  19.555  0.00  0.00    +0.000 C 
ATOM     19  C   UNL     1       1.885   6.476  19.453  0.00  0.00    +0.000 C 
BRANCH  19  20
ATOM     20  C   UNL     1       1.562   7.390  20.630  0.00  0.00    +0.000 C 
BRANCH  20  21
ATOM     21  N   UNL     1       0.940   8.657  20.227  0.00  0.00    +0.000 N 
ATOM     22  C   UNL     1      -0.096   9.176  20.891  0.00  0.00    +0.000 C 
ATOM     23  O   UNL     1      -0.338   9.044  22.093  0.00  0.00    +0.000 OA
ATOM     24  C   UNL     1      -0.567  10.319  20.120  0.00  0.00    +0.000 A 
ATOM     25  C   UNL     1      -1.402  10.300  18.990  0.00  0.00    +0.000 A 
ATOM     26  C   UNL     1      -1.408  11.405  18.117  0.00  0.00    +0.000 A 
ATOM     27  C   UNL     1      -0.628  12.486  18.465  0.00  0.00    +0.000 A 
ATOM     28  C   UNL     1       0.403  12.241  19.378  0.00  0.00    +0.000 A 
ATOM     29  C   UNL     1       0.606  10.950  19.876  0.00  0.00    +0.000 A 
ATOM     30  C   UNL     1       1.311   9.639  19.323  0.00  0.00    +0.000 C 
ATOM     31  O   UNL     1       1.849   9.498  18.256  0.00  0.00    +0.000 OA
ENDBRANCH  20  21
ENDBRANCH  19  20
ENDBRANCH  17  18
ENDBRANCH   3  17
TORSDOF 9
ENDMDL
