MODEL 1
REMARK VINA RESULT:      -7.1      0.000      0.000
REMARK  Name = 
REMARK  11 active torsions:
REMARK  status: ('A' for Active; 'I' for Inactive)
REMARK    1  A    between atoms: C_1  and  O_2
REMARK    2  A    between atoms: O_2  and  C_3
REMARK    3  A    between atoms: C_3  and  C_5
REMARK    4  A    between atoms: C_8  and  N_9
REMARK    5  A    between atoms: C_10  and  C_11
REMARK    6  A    between atoms: C_11  and  C_13
REMARK    7  A    between atoms: C_15  and  C_16
REMARK    8  A    between atoms: C_18  and  S_19
REMARK    9  A    between atoms: S_19  and  C_20
REMARK   10  A    between atoms: C_22  and  C_23
REMARK   11  A    between atoms: C_27  and  C_28
REMARK                            x       y       z     vdW  Elec       q    Type
REMARK                         _______ _______ _______ _____ _____    ______ ____
ROOT
ATOM      1  C   UNL     1       3.134   4.924  19.414  0.00  0.00    +0.000 A 
ATOM      2  C   UNL     1       3.076   6.126  18.693  0.00  0.00    +0.000 A 
ATOM      3  C   UNL     1       2.286   7.184  19.187  0.00  0.00    +0.000 A 
ATOM      4  C   UNL     1       2.041   8.519  18.730  0.00  0.00    +0.000 A 
ATOM      5  C   UNL     1       1.160   9.224  19.535  0.00  0.00    +0.000 A 
ATOM      6  S   UNL     1       0.589   8.240  20.816  0.00  0.00    +0.000 S 
ATOM      7  C   UNL     1       1.582   6.937  20.355  0.00  0.00    +0.000 A 
ATOM      8  N   UNL     1       1.614   5.810  21.092  0.00  0.00    +0.000 NA
ATOM      9  C   UNL     1       2.407   4.820  20.605  0.00  0.00    +0.000 A 
ATOM     10  C   UNL     1       2.483   3.602  21.485  0.00  0.00    +0.000 C 
ENDROOT
BRANCH   4  11
ATOM     11  N   UNL     1       2.634   9.059  17.643  0.00  0.00    +0.000 N 
ATOM     12  H   UNL     1       3.532   8.764  17.277  0.00  0.00    +0.000 HD
ATOM     13  H   UNL     1       2.116   9.679  17.015  0.00  0.00    +0.000 HD
ENDBRANCH   4  11
BRANCH   1  14
ATOM     14  C   UNL     1       3.948   3.798  18.895  0.00  0.00    +0.000 C 
ATOM     15  O   UNL     1       4.982   3.397  19.401  0.00  0.00    +0.000 OA
BRANCH  14  17
ATOM     16  C   UNL     1       2.434   2.259  17.984  0.00  0.00    +0.000 C 
ATOM     17  O   UNL     1       3.374   3.313  17.764  0.00  0.00    +0.000 OA
ENDBRANCH  14  17
ENDBRANCH   1  14
BRANCH   5  18
ATOM     18  C   UNL     1       0.689  10.587  19.313  0.00  0.00    +0.000 C 
ATOM     19  O   UNL     1       1.394  11.555  19.598  0.00  0.00    +0.000 OA
BRANCH  18  20
ATOM     20  C   UNL     1      -0.693  10.882  18.817  0.00  0.00    +0.000 A 
ATOM     21  C   UNL     1      -1.110  10.457  17.551  0.00  0.00    +0.000 A 
ATOM     22  C   UNL     1      -2.405  10.738  17.087  0.00  0.00    +0.000 A 
ATOM     23  C   UNL     1      -3.284  11.402  17.939  0.00  0.00    +0.000 A 
ATOM     24  N   UNL     1      -2.909  11.776  19.185  0.00  0.00    +0.000 NA
ATOM     25  C   UNL     1      -1.642  11.521  19.620  0.00  0.00    +0.000 A 
ATOM     26  C   UNL     1      -1.365  11.977  21.023  0.00  0.00    +0.000 C 
BRANCH  22  27
ATOM     27  C   UNL     1      -2.736  10.330  15.752  0.00  0.00    +0.000 C 
ATOM     28  N   UNL     1      -2.897   9.993  14.657  0.00  0.00    +0.000 NA
ENDBRANCH  22  27
BRANCH  23  29
ATOM     29  S   UNL     1      -4.966  11.805  17.477  0.00  0.00    +0.000 S 
ATOM     30  C   UNL     1      -5.914  10.658  18.530  0.00  0.00    +0.000 C 
ENDBRANCH  23  29
ENDBRANCH  18  20
ENDBRANCH   5  18
TORSDOF 7
ENDMDL
MODEL 2
REMARK VINA RESULT:      -7.0      1.261      1.920
REMARK  Name = 
REMARK  11 active torsions:
REMARK  status: ('A' for Active; 'I' for Inactive)
REMARK    1  A    between atoms: C_1  and  O_2
REMARK    2  A    between atoms: O_2  and  C_3
REMARK    3  A    between atoms: C_3  and  C_5
REMARK    4  A    between atoms: C_8  and  N_9
REMARK    5  A    between atoms: C_10  and  C_11
REMARK    6  A    between atoms: C_11  and  C_13
REMARK    7  A    between atoms: C_15  and  C_16
REMARK    8  A    between atoms: C_18  and  S_19
REMARK    9  A    between atoms: S_19  and  C_20
REMARK   10  A    between atoms: C_22  and  C_23
REMARK   11  A    between atoms: C_27  and  C_28
REMARK                            x       y       z     vdW  Elec       q    Type
REMARK                         _______ _______ _______ _____ _____    ______ ____
ROOT
ATOM      1  C   UNL     1       3.446   5.006  19.125  0.00  0.00    +0.000 A 
ATOM      2  C   UNL     1       2.695   5.837  19.970  0.00  0.00    +0.000 A 
ATOM      3  C   UNL     1       2.296   7.107  19.506  0.00  0.00    +0.000 A 
ATOM      4  C   UNL     1       1.513   8.158  20.082  0.00  0.00    +0.000 A 
ATOM      5  C   UNL     1       1.385   9.265  19.258  0.00  0.00    +0.000 A 
ATOM      6  S   UNL     1       2.263   9.043  17.803  0.00  0.00    +0.000 S 
ATOM      7  C   UNL     1       2.716   7.460  18.233  0.00  0.00    +0.000 A 
ATOM      8  N   UNL     1       3.424   6.696  17.378  0.00  0.00    +0.000 NA
ATOM      9  C   UNL     1       3.768   5.468  17.844  0.00  0.00    +0.000 A 
ATOM     10  C   UNL     1       4.493   4.610  16.842  0.00  0.00    +0.000 C 
ENDROOT
BRANCH   4  11
ATOM     11  N   UNL     1       0.925   8.075  21.295  0.00  0.00    +0.000 N 
ATOM     12  H   UNL     1       0.774   7.208  21.798  0.00  0.00    +0.000 HD
ATOM     13  H   UNL     1       0.762   8.913  21.859  0.00  0.00    +0.000 HD
ENDBRANCH   4  11
BRANCH   1  14
ATOM     14  C   UNL     1       3.887   3.675  19.609  0.00  0.00    +0.000 C 
ATOM     15  O   UNL     1       5.049   3.334  19.740  0.00  0.00    +0.000 OA
BRANCH  14  17
ATOM     16  C   UNL     1       2.380   2.105  18.741  0.00  0.00    +0.000 C 
ATOM     17  O   UNL     1       2.797   2.902  19.851  0.00  0.00    +0.000 OA
ENDBRANCH  14  17
ENDBRANCH   1  14
BRANCH   5  18
ATOM     18  C   UNL     1       0.681  10.502  19.576  0.00  0.00    +0.000 C 
ATOM     19  O   UNL     1       1.157  11.315  20.370  0.00  0.00    +0.000 OA
BRANCH  18  20
ATOM     20  C   UNL     1      -0.680  10.808  19.034  0.00  0.00    +0.000 A 
ATOM     21  C   UNL     1      -1.079  10.334  17.778  0.00  0.00    +0.000 A 
ATOM     22  C   UNL     1      -2.355  10.624  17.270  0.00  0.00    +0.000 A 
ATOM     23  C   UNL     1      -3.235  11.350  18.068  0.00  0.00    +0.000 A 
ATOM     24  N   UNL     1      -2.880  11.774  19.304  0.00  0.00    +0.000 NA
ATOM     25  C   UNL     1      -1.631  11.508  19.781  0.00  0.00    +0.000 A 
ATOM     26  C   UNL     1      -1.375  12.025  21.167  0.00  0.00    +0.000 C 
BRANCH  22  27
ATOM     27  C   UNL     1      -2.666  10.161  15.949  0.00  0.00    +0.000 C 
ATOM     28  N   UNL     1      -2.909   9.889  14.851  0.00  0.00    +0.000 NA
ENDBRANCH  22  27
BRANCH  23  29
ATOM     29  S   UNL     1      -4.895  11.773  17.546  0.00  0.00    +0.000 S 
ATOM     30  C   UNL     1      -5.815  11.621  19.113  0.00  0.00    +0.000 C 
ENDBRANCH  23  29
ENDBRANCH  18  20
ENDBRANCH   5  18
TORSDOF 7
ENDMDL
MODEL 3
REMARK VINA RESULT:      -6.9      1.847      3.237
REMARK  Name = 
REMARK  11 active torsions:
REMARK  status: ('A' for Active; 'I' for Inactive)
REMARK    1  A    between atoms: C_1  and  O_2
REMARK    2  A    between atoms: O_2  and  C_3
REMARK    3  A    between atoms: C_3  and  C_5
REMARK    4  A    between atoms: C_8  and  N_9
REMARK    5  A    between atoms: C_10  and  C_11
REMARK    6  A    between atoms: C_11  and  C_13
REMARK    7  A    between atoms: C_15  and  C_16
REMARK    8  A    between atoms: C_18  and  S_19
REMARK    9  A    between atoms: S_19  and  C_20
REMARK   10  A    between atoms: C_22  and  C_23
REMARK   11  A    between atoms: C_27  and  C_28
REMARK                            x       y       z     vdW  Elec       q    Type
REMARK                         _______ _______ _______ _____ _____    ______ ____
ROOT
ATOM      1  C   UNL     1       2.601   6.124  18.792  0.00  0.00    +0.000 A 
ATOM      2  C   UNL     1       2.360   7.409  18.282  0.00  0.00    +0.000 A 
ATOM      3  C   UNL     1       1.750   8.372  19.112  0.00  0.00    +0.000 A 
ATOM      4  C   UNL     1       1.405   9.748  18.923  0.00  0.00    +0.000 A 
ATOM      5  C   UNL     1       0.788  10.318  20.026  0.00  0.00    +0.000 A 
ATOM      6  S   UNL     1       0.582   9.159  21.272  0.00  0.00    +0.000 S 
ATOM      7  C   UNL     1       1.394   7.954  20.385  0.00  0.00    +0.000 A 
ATOM      8  N   UNL     1       1.615   6.741  20.926  0.00  0.00    +0.000 NA
ATOM      9  C   UNL     1       2.230   5.845  20.111  0.00  0.00    +0.000 A 
ATOM     10  C   UNL     1       2.532   4.524  20.765  0.00  0.00    +0.000 C 
ENDROOT
BRANCH   4  11
ATOM     11  N   UNL     1       1.680  10.442  17.797  0.00  0.00    +0.000 N 
ATOM     12  H   UNL     1       1.061  11.130  17.385  0.00  0.00    +0.000 HD
ATOM     13  H   UNL     1       2.621  10.440  17.395  0.00  0.00    +0.000 HD
ENDBRANCH   4  11
BRANCH   1  14
ATOM     14  C   UNL     1       3.227   5.097  17.923  0.00  0.00    +0.000 C 
ATOM     15  O   UNL     1       4.423   5.007  17.704  0.00  0.00    +0.000 OA
BRANCH  14  17
ATOM     16  C   UNL     1       2.534   2.905  17.475  0.00  0.00    +0.000 C 
ATOM     17  O   UNL     1       2.259   4.304  17.396  0.00  0.00    +0.000 OA
ENDBRANCH  14  17
ENDBRANCH   1  14
BRANCH   5  18
ATOM     18  C   UNL     1       0.290  11.685  20.127  0.00  0.00    +0.000 C 
ATOM     19  O   UNL     1       1.058  12.646  20.064  0.00  0.00    +0.000 OA
BRANCH  18  20
ATOM     20  C   UNL     1      -1.150  11.991  20.400  0.00  0.00    +0.000 A 
ATOM     21  C   UNL     1      -1.595  12.263  21.699  0.00  0.00    +0.000 A 
ATOM     22  C   UNL     1      -2.947  12.548  21.952  0.00  0.00    +0.000 A 
ATOM     23  C   UNL     1      -3.824  12.606  20.873  0.00  0.00    +0.000 A 
ATOM     24  N   UNL     1      -3.398  12.392  19.606  0.00  0.00    +0.000 NA
ATOM     25  C   UNL     1      -2.089  12.093  19.370  0.00  0.00    +0.000 A 
ATOM     26  C   UNL     1      -1.751  11.893  17.921  0.00  0.00    +0.000 C 
BRANCH  22  27
ATOM     27  C   UNL     1      -3.339  12.749  23.318  0.00  0.00    +0.000 C 
ATOM     28  N   UNL     1      -3.753  12.937  24.381  0.00  0.00    +0.000 NA
ENDBRANCH  22  27
BRANCH  23  29
ATOM     29  S   UNL     1      -5.567  12.973  21.057  0.00  0.00    +0.000 S 
ATOM     30  C   UNL     1      -6.209  12.508  19.416  0.00  0.00    +0.000 C 
ENDBRANCH  23  29
ENDBRANCH  18  20
ENDBRANCH   5  18
TORSDOF 7
ENDMDL
MODEL 4
REMARK VINA RESULT:      -6.9      3.274      8.761
REMARK  Name = 
REMARK  11 active torsions:
REMARK  status: ('A' for Active; 'I' for Inactive)
REMARK    1  A    between atoms: C_1  and  O_2
REMARK    2  A    between atoms: O_2  and  C_3
REMARK    3  A    between atoms: C_3  and  C_5
REMARK    4  A    between atoms: C_8  and  N_9
REMARK    5  A    between atoms: C_10  and  C_11
REMARK    6  A    between atoms: C_11  and  C_13
REMARK    7  A    between atoms: C_15  and  C_16
REMARK    8  A    between atoms: C_18  and  S_19
REMARK    9  A    between atoms: S_19  and  C_20
REMARK   10  A    between atoms: C_22  and  C_23
REMARK   11  A    between atoms: C_27  and  C_28
REMARK                            x       y       z     vdW  Elec       q    Type
REMARK                         _______ _______ _______ _____ _____    ______ ____
ROOT
ATOM      1  C   UNL     1       0.264  11.733  20.629  0.00  0.00    +0.000 A 
ATOM      2  C   UNL     1       0.584  10.461  21.126  0.00  0.00    +0.000 A 
ATOM      3  C   UNL     1       1.123   9.497  20.249  0.00  0.00    +0.000 A 
ATOM      4  C   UNL     1       1.581   8.154  20.433  0.00  0.00    +0.000 A 
ATOM      5  C   UNL     1       2.025   7.558  19.263  0.00  0.00    +0.000 A 
ATOM      6  S   UNL     1       1.834   8.619  17.931  0.00  0.00    +0.000 S 
ATOM      7  C   UNL     1       1.265   9.879  18.924  0.00  0.00    +0.000 A 
ATOM      8  N   UNL     1       0.987  11.088  18.400  0.00  0.00    +0.000 NA
ATOM      9  C   UNL     1       0.497  12.003  19.276  0.00  0.00    +0.000 A 
ATOM     10  C   UNL     1       0.266  13.365  18.680  0.00  0.00    +0.000 C 
ENDROOT
BRANCH   4  11
ATOM     11  N   UNL     1       1.613   7.531  21.632  0.00  0.00    +0.000 N 
ATOM     12  H   UNL     1       0.803   7.125  22.085  0.00  0.00    +0.000 HD
ATOM     13  H   UNL     1       2.503   7.273  22.067  0.00  0.00    +0.000 HD
ENDBRANCH   4  11
BRANCH   1  14
ATOM     14  C   UNL     1      -0.319  12.749  21.539  0.00  0.00    +0.000 C 
ATOM     15  O   UNL     1       0.324  13.581  22.155  0.00  0.00    +0.000 OA
BRANCH  14  17
ATOM     16  C   UNL     1      -2.171  12.257  22.887  0.00  0.00    +0.000 C 
ATOM     17  O   UNL     1      -1.666  12.584  21.591  0.00  0.00    +0.000 OA
ENDBRANCH  14  17
ENDBRANCH   1  14
BRANCH   5  18
ATOM     18  C   UNL     1       2.516   6.191  19.122  0.00  0.00    +0.000 C 
ATOM     19  O   UNL     1       2.083   5.286  19.836  0.00  0.00    +0.000 OA
BRANCH  18  20
ATOM     20  C   UNL     1       3.621   5.834  18.177  0.00  0.00    +0.000 A 
ATOM     21  C   UNL     1       4.791   6.600  18.115  0.00  0.00    +0.000 A 
ATOM     22  C   UNL     1       5.825   6.265  17.226  0.00  0.00    +0.000 A 
ATOM     23  C   UNL     1       5.682   5.120  16.446  0.00  0.00    +0.000 A 
ATOM     24  N   UNL     1       4.577   4.343  16.531  0.00  0.00    +0.000 NA
ATOM     25  C   UNL     1       3.566   4.688  17.380  0.00  0.00    +0.000 A 
ATOM     26  C   UNL     1       2.408   3.734  17.383  0.00  0.00    +0.000 C 
BRANCH  22  27
ATOM     27  C   UNL     1       6.963   7.136  17.172  0.00  0.00    +0.000 C 
ATOM     28  N   UNL     1       7.876   7.845  17.235  0.00  0.00    +0.000 NA
ENDBRANCH  22  27
BRANCH  23  29
ATOM     29  S   UNL     1       6.932   4.574  15.287  0.00  0.00    +0.000 S 
ATOM     30  C   UNL     1       5.905   4.007  13.891  0.00  0.00    +0.000 C 
ENDBRANCH  23  29
ENDBRANCH  18  20
ENDBRANCH   5  18
TORSDOF 7
ENDMDL
MODEL 5
REMARK VINA RESULT:      -6.9      1.915      3.359
REMARK  Name = 
REMARK  11 active torsions:
REMARK  status: ('A' for Active; 'I' for Inactive)
REMARK    1  A    between atoms: C_1  and  O_2
REMARK    2  A    between atoms: O_2  and  C_3
REMARK    3  A    between atoms: C_3  and  C_5
REMARK    4  A    between atoms: C_8  and  N_9
REMARK    5  A    between atoms: C_10  and  C_11
REMARK    6  A    between atoms: C_11  and  C_13
REMARK    7  A    between atoms: C_15  and  C_16
REMARK    8  A    between atoms: C_18  and  S_19
REMARK    9  A    between atoms: S_19  and  C_20
REMARK   10  A    between atoms: C_22  and  C_23
REMARK   11  A    between atoms: C_27  and  C_28
REMARK                            x       y       z     vdW  Elec       q    Type
REMARK                         _______ _______ _______ _____ _____    ______ ____
ROOT
ATOM      1  C   UNL     1       2.689   6.244  18.758  0.00  0.00    +0.000 A 
ATOM      2  C   UNL     1       2.459   7.535  18.259  0.00  0.00    +0.000 A 
ATOM      3  C   UNL     1       1.782   8.472  19.066  0.00  0.00    +0.000 A 
ATOM      4  C   UNL     1       1.426   9.846  18.882  0.00  0.00    +0.000 A 
ATOM      5  C   UNL     1       0.731  10.384  19.954  0.00  0.00    +0.000 A 
ATOM      6  S   UNL     1       0.466   9.198  21.161  0.00  0.00    +0.000 S 
ATOM      7  C   UNL     1       1.352   8.023  20.305  0.00  0.00    +0.000 A 
ATOM      8  N   UNL     1       1.559   6.803  20.836  0.00  0.00    +0.000 NA
ATOM      9  C   UNL     1       2.240   5.933  20.046  0.00  0.00    +0.000 A 
ATOM     10  C   UNL     1       2.522   4.604  20.693  0.00  0.00    +0.000 C 
ENDROOT
BRANCH   4  11
ATOM     11  N   UNL     1       1.761  10.566  17.788  0.00  0.00    +0.000 N 
ATOM     12  H   UNL     1       2.540  10.349  17.179  0.00  0.00    +0.000 HD
ATOM     13  H   UNL     1       1.125  11.275  17.411  0.00  0.00    +0.000 HD
ENDBRANCH   4  11
BRANCH   1  14
ATOM     14  C   UNL     1       3.386   5.245  17.912  0.00  0.00    +0.000 C 
ATOM     15  O   UNL     1       2.873   4.234  17.465  0.00  0.00    +0.000 OA
BRANCH  14  17
ATOM     16  C   UNL     1       5.565   5.172  18.769  0.00  0.00    +0.000 C 
ATOM     17  O   UNL     1       4.679   5.624  17.743  0.00  0.00    +0.000 OA
ENDBRANCH  14  17
ENDBRANCH   1  14
BRANCH   5  18
ATOM     18  C   UNL     1       0.205  11.741  20.049  0.00  0.00    +0.000 C 
ATOM     19  O   UNL     1       0.954  12.717  19.989  0.00  0.00    +0.000 OA
BRANCH  18  20
ATOM     20  C   UNL     1      -1.243  12.019  20.310  0.00  0.00    +0.000 A 
ATOM     21  C   UNL     1      -1.699  12.307  21.602  0.00  0.00    +0.000 A 
ATOM     22  C   UNL     1      -3.058  12.564  21.845  0.00  0.00    +0.000 A 
ATOM     23  C   UNL     1      -3.933  12.578  20.762  0.00  0.00    +0.000 A 
ATOM     24  N   UNL     1      -3.497  12.349  19.502  0.00  0.00    +0.000 NA
ATOM     25  C   UNL     1      -2.180  12.077  19.276  0.00  0.00    +0.000 A 
ATOM     26  C   UNL     1      -1.833  11.854  17.833  0.00  0.00    +0.000 C 
BRANCH  22  27
ATOM     27  C   UNL     1      -3.459  12.785  23.205  0.00  0.00    +0.000 C 
ATOM     28  N   UNL     1      -3.749  12.863  24.322  0.00  0.00    +0.000 NA
ENDBRANCH  22  27
BRANCH  23  29
ATOM     29  S   UNL     1      -5.685  12.908  20.934  0.00  0.00    +0.000 S 
ATOM     30  C   UNL     1      -6.407  11.477  20.066  0.00  0.00    +0.000 C 
ENDBRANCH  23  29
ENDBRANCH  18  20
ENDBRANCH   5  18
TORSDOF 7
ENDMDL
MODEL 6
REMARK VINA RESULT:      -6.8      1.275      1.666
REMARK  Name = 
REMARK  11 active torsions:
REMARK  status: ('A' for Active; 'I' for Inactive)
REMARK    1  A    between atoms: C_1  and  O_2
REMARK    2  A    between atoms: O_2  and  C_3
REMARK    3  A    between atoms: C_3  and  C_5
REMARK    4  A    between atoms: C_8  and  N_9
REMARK    5  A    between atoms: C_10  and  C_11
REMARK    6  A    between atoms: C_11  and  C_13
REMARK    7  A    between atoms: C_15  and  C_16
REMARK    8  A    between atoms: C_18  and  S_19
REMARK    9  A    between atoms: S_19  and  C_20
REMARK   10  A    between atoms: C_22  and  C_23
REMARK   11  A    between atoms: C_27  and  C_28
REMARK                            x       y       z     vdW  Elec       q    Type
REMARK                         _______ _______ _______ _____ _____    ______ ____
ROOT
ATOM      1  C   UNL     1       3.431   6.274  18.334  0.00  0.00    +0.000 A 
ATOM      2  C   UNL     1       3.054   7.545  17.876  0.00  0.00    +0.000 A 
ATOM      3  C   UNL     1       2.191   8.331  18.668  0.00  0.00    +0.000 A 
ATOM      4  C   UNL     1       1.655   9.650  18.519  0.00  0.00    +0.000 A 
ATOM      5  C   UNL     1       0.814  10.024  19.555  0.00  0.00    +0.000 A 
ATOM      6  S   UNL     1       0.636   8.747  20.683  0.00  0.00    +0.000 S 
ATOM      7  C   UNL     1       1.743   7.758  19.848  0.00  0.00    +0.000 A 
ATOM      8  N   UNL     1       2.085   6.551  20.339  0.00  0.00    +0.000 NA
ATOM      9  C   UNL     1       2.939   5.831  19.567  0.00  0.00    +0.000 A 
ATOM     10  C   UNL     1       3.363   4.521  20.173  0.00  0.00    +0.000 C 
ENDROOT
BRANCH   4  11
ATOM     11  N   UNL     1       1.961  10.470  17.489  0.00  0.00    +0.000 N 
ATOM     12  H   UNL     1       1.356  11.208  17.149  0.00  0.00    +0.000 HD
ATOM     13  H   UNL     1       2.911  10.506  17.110  0.00  0.00    +0.000 HD
ENDBRANCH   4  11
BRANCH   1  14
ATOM     14  C   UNL     1       4.324   5.431  17.501  0.00  0.00    +0.000 C 
ATOM     15  O   UNL     1       3.954   4.499  16.810  0.00  0.00    +0.000 OA
BRANCH  14  17
ATOM     16  C   UNL     1       6.515   4.823  18.065  0.00  0.00    +0.000 C 
ATOM     17  O   UNL     1       5.607   5.848  17.657  0.00  0.00    +0.000 OA
ENDBRANCH  14  17
ENDBRANCH   1  14
BRANCH   5  18
ATOM     18  C   UNL     1       0.092  11.286  19.669  0.00  0.00    +0.000 C 
ATOM     19  O   UNL     1       0.563  12.231  20.303  0.00  0.00    +0.000 OA
BRANCH  18  20
ATOM     20  C   UNL     1      -1.282  11.472  19.106  0.00  0.00    +0.000 A 
ATOM     21  C   UNL     1      -1.590  11.059  17.804  0.00  0.00    +0.000 A 
ATOM     22  C   UNL     1      -2.879  11.237  17.277  0.00  0.00    +0.000 A 
ATOM     23  C   UNL     1      -3.860  11.785  18.100  0.00  0.00    +0.000 A 
ATOM     24  N   UNL     1      -3.589  12.144  19.376  0.00  0.00    +0.000 NA
ATOM     25  C   UNL     1      -2.329  11.991  19.873  0.00  0.00    +0.000 A 
ATOM     26  C   UNL     1      -2.171  12.417  21.304  0.00  0.00    +0.000 C 
BRANCH  22  27
ATOM     27  C   UNL     1      -3.099  10.850  15.913  0.00  0.00    +0.000 C 
ATOM     28  N   UNL     1      -3.375  10.507  14.844  0.00  0.00    +0.000 NA
ENDBRANCH  22  27
BRANCH  23  29
ATOM     29  S   UNL     1      -5.546  12.049  17.556  0.00  0.00    +0.000 S 
ATOM     30  C   UNL     1      -6.422  10.718  18.440  0.00  0.00    +0.000 C 
ENDBRANCH  23  29
ENDBRANCH  18  20
ENDBRANCH   5  18
TORSDOF 7
ENDMDL
MODEL 7
REMARK VINA RESULT:      -6.8      2.790      4.320
REMARK  Name = 
REMARK  11 active torsions:
REMARK  status: ('A' for Active; 'I' for Inactive)
REMARK    1  A    between atoms: C_1  and  O_2
REMARK    2  A    between atoms: O_2  and  C_3
REMARK    3  A    between atoms: C_3  and  C_5
REMARK    4  A    between atoms: C_8  and  N_9
REMARK    5  A    between atoms: C_10  and  C_11
REMARK    6  A    between atoms: C_11  and  C_13
REMARK    7  A    between atoms: C_15  and  C_16
REMARK    8  A    between atoms: C_18  and  S_19
REMARK    9  A    between atoms: S_19  and  C_20
REMARK   10  A    between atoms: C_22  and  C_23
REMARK   11  A    between atoms: C_27  and  C_28
REMARK                            x       y       z     vdW  Elec       q    Type
REMARK                         _______ _______ _______ _____ _____    ______ ____
ROOT
ATOM      1  C   UNL     1       4.352   5.496  18.305  0.00  0.00    +0.000 A 
ATOM      2  C   UNL     1       3.515   5.869  19.368  0.00  0.00    +0.000 A 
ATOM      3  C   UNL     1       2.735   7.038  19.248  0.00  0.00    +0.000 A 
ATOM      4  C   UNL     1       1.775   7.666  20.105  0.00  0.00    +0.000 A 
ATOM      5  C   UNL     1       1.254   8.838  19.582  0.00  0.00    +0.000 A 
ATOM      6  S   UNL     1       1.974   9.202  18.070  0.00  0.00    +0.000 S 
ATOM      7  C   UNL     1       2.885   7.764  18.077  0.00  0.00    +0.000 A 
ATOM      8  N   UNL     1       3.662   7.443  17.024  0.00  0.00    +0.000 NA
ATOM      9  C   UNL     1       4.378   6.297  17.159  0.00  0.00    +0.000 A 
ATOM     10  C   UNL     1       5.178   5.924  15.939  0.00  0.00    +0.000 C 
ENDROOT
BRANCH   4  11
ATOM     11  N   UNL     1       1.385   7.155  21.293  0.00  0.00    +0.000 N 
ATOM     12  H   UNL     1       1.647   7.539  22.193  0.00  0.00    +0.000 HD
ATOM     13  H   UNL     1       0.644   6.450  21.344  0.00  0.00    +0.000 HD
ENDBRANCH   4  11
BRANCH   1  14
ATOM     14  C   UNL     1       5.190   4.278  18.426  0.00  0.00    +0.000 C 
ATOM     15  O   UNL     1       6.341   4.264  18.827  0.00  0.00    +0.000 OA
BRANCH  14  17
ATOM     16  C   UNL     1       3.974   2.374  19.045  0.00  0.00    +0.000 C 
ATOM     17  O   UNL     1       4.483   3.202  17.997  0.00  0.00    +0.000 OA
ENDBRANCH  14  17
ENDBRANCH   1  14
BRANCH   5  18
ATOM     18  C   UNL     1       0.288   9.719  20.230  0.00  0.00    +0.000 C 
ATOM     19  O   UNL     1      -0.610   9.262  20.939  0.00  0.00    +0.000 OA
BRANCH  18  20
ATOM     20  C   UNL     1       0.279  11.198  20.001  0.00  0.00    +0.000 A 
ATOM     21  C   UNL     1       1.109  12.047  20.742  0.00  0.00    +0.000 A 
ATOM     22  C   UNL     1       1.097  13.435  20.528  0.00  0.00    +0.000 A 
ATOM     23  C   UNL     1       0.278  13.942  19.522  0.00  0.00    +0.000 A 
ATOM     24  N   UNL     1      -0.494  13.128  18.765  0.00  0.00    +0.000 NA
ATOM     25  C   UNL     1      -0.495  11.783  18.995  0.00  0.00    +0.000 A 
ATOM     26  C   UNL     1      -1.386  10.998  18.077  0.00  0.00    +0.000 C 
BRANCH  22  27
ATOM     27  C   UNL     1       1.926  14.245  21.373  0.00  0.00    +0.000 C 
ATOM     28  N   UNL     1       2.513  14.899  22.125  0.00  0.00    +0.000 NA
ENDBRANCH  22  27
BRANCH  23  29
ATOM     29  S   UNL     1       0.182  15.688  19.137  0.00  0.00    +0.000 S 
ATOM     30  C   UNL     1      -1.104  16.243  20.303  0.00  0.00    +0.000 C 
ENDBRANCH  23  29
ENDBRANCH  18  20
ENDBRANCH   5  18
TORSDOF 7
ENDMDL
MODEL 8
REMARK VINA RESULT:      -6.8      1.775      2.154
REMARK  Name = 
REMARK  11 active torsions:
REMARK  status: ('A' for Active; 'I' for Inactive)
REMARK    1  A    between atoms: C_1  and  O_2
REMARK    2  A    between atoms: O_2  and  C_3
REMARK    3  A    between atoms: C_3  and  C_5
REMARK    4  A    between atoms: C_8  and  N_9
REMARK    5  A    between atoms: C_10  and  C_11
REMARK    6  A    between atoms: C_11  and  C_13
REMARK    7  A    between atoms: C_15  and  C_16
REMARK    8  A    between atoms: C_18  and  S_19
REMARK    9  A    between atoms: S_19  and  C_20
REMARK   10  A    between atoms: C_22  and  C_23
REMARK   11  A    between atoms: C_27  and  C_28
REMARK                            x       y       z     vdW  Elec       q    Type
REMARK                         _______ _______ _______ _____ _____    ______ ____
ROOT
ATOM      1  C   UNL     1       2.683   6.204  18.822  0.00  0.00    +0.000 A 
ATOM      2  C   UNL     1       2.472   7.471  18.259  0.00  0.00    +0.000 A 
ATOM      3  C   UNL     1       1.789   8.450  19.009  0.00  0.00    +0.000 A 
ATOM      4  C   UNL     1       1.447   9.817  18.755  0.00  0.00    +0.000 A 
ATOM      5  C   UNL     1       0.739  10.409  19.788  0.00  0.00    +0.000 A 
ATOM      6  S   UNL     1       0.444   9.283  21.046  0.00  0.00    +0.000 S 
ATOM      7  C   UNL     1       1.335   8.064  20.261  0.00  0.00    +0.000 A 
ATOM      8  N   UNL     1       1.523   6.868  20.852  0.00  0.00    +0.000 NA
ATOM      9  C   UNL     1       2.210   5.957  20.116  0.00  0.00    +0.000 A 
ATOM     10  C   UNL     1       2.470   4.658  20.829  0.00  0.00    +0.000 C 
ENDROOT
BRANCH   4  11
ATOM     11  N   UNL     1       1.806  10.482  17.635  0.00  0.00    +0.000 N 
ATOM     12  H   UNL     1       2.316  11.357  17.630  0.00  0.00    +0.000 HD
ATOM     13  H   UNL     1       1.739  10.038  16.715  0.00  0.00    +0.000 HD
ENDBRANCH   4  11
BRANCH   1  14
ATOM     14  C   UNL     1       3.386   5.161  18.036  0.00  0.00    +0.000 C 
ATOM     15  O   UNL     1       4.597   5.066  17.933  0.00  0.00    +0.000 OA
BRANCH  14  17
ATOM     16  C   UNL     1       2.801   2.968  17.455  0.00  0.00    +0.000 C 
ATOM     17  O   UNL     1       2.470   4.358  17.436  0.00  0.00    +0.000 OA
ENDBRANCH  14  17
ENDBRANCH   1  14
BRANCH   5  18
ATOM     18  C   UNL     1       0.222  11.773  19.810  0.00  0.00    +0.000 C 
ATOM     19  O   UNL     1       0.982  12.740  19.744  0.00  0.00    +0.000 OA
BRANCH  18  20
ATOM     20  C   UNL     1      -1.232  12.072  20.002  0.00  0.00    +0.000 A 
ATOM     21  C   UNL     1      -2.160  11.814  18.986  0.00  0.00    +0.000 A 
ATOM     22  C   UNL     1      -3.524  12.098  19.167  0.00  0.00    +0.000 A 
ATOM     23  C   UNL     1      -3.939  12.591  20.402  0.00  0.00    +0.000 A 
ATOM     24  N   UNL     1      -3.059  12.799  21.409  0.00  0.00    +0.000 NA
ATOM     25  C   UNL     1      -1.733  12.544  21.218  0.00  0.00    +0.000 A 
ATOM     26  C   UNL     1      -0.873  12.807  22.419  0.00  0.00    +0.000 C 
BRANCH  22  27
ATOM     27  C   UNL     1      -4.404  11.870  18.057  0.00  0.00    +0.000 C 
ATOM     28  N   UNL     1      -5.180  11.757  17.208  0.00  0.00    +0.000 NA
ENDBRANCH  22  27
BRANCH  23  29
ATOM     29  S   UNL     1      -5.649  12.978  20.767  0.00  0.00    +0.000 S 
ATOM     30  C   UNL     1      -5.633  12.992  22.590  0.00  0.00    +0.000 C 
ENDBRANCH  23  29
ENDBRANCH  18  20
ENDBRANCH   5  18
TORSDOF 7
ENDMDL
MODEL 9
REMARK VINA RESULT:      -6.8      2.394      3.926
REMARK  Name = 
REMARK  11 active torsions:
REMARK  status: ('A' for Active; 'I' for Inactive)
REMARK    1  A    between atoms: C_1  and  O_2
REMARK    2  A    between atoms: O_2  and  C_3
REMARK    3  A    between atoms: C_3  and  C_5
REMARK    4  A    between atoms: C_8  and  N_9
REMARK    5  A    between atoms: C_10  and  C_11
REMARK    6  A    between atoms: C_11  and  C_13
REMARK    7  A    between atoms: C_15  and  C_16
REMARK    8  A    between atoms: C_18  and  S_19
REMARK    9  A    between atoms: S_19  and  C_20
REMARK   10  A    between atoms: C_22  and  C_23
REMARK   11  A    between atoms: C_27  and  C_28
REMARK                            x       y       z     vdW  Elec       q    Type
REMARK                         _______ _______ _______ _____ _____    ______ ____
ROOT
ATOM      1  C   UNL     1       2.612   6.281  18.909  0.00  0.00    +0.000 A 
ATOM      2  C   UNL     1       2.472   7.544  18.314  0.00  0.00    +0.000 A 
ATOM      3  C   UNL     1       1.832   8.574  19.033  0.00  0.00    +0.000 A 
ATOM      4  C   UNL     1       1.564   9.950  18.743  0.00  0.00    +0.000 A 
ATOM      5  C   UNL     1       0.877  10.603  19.754  0.00  0.00    +0.000 A 
ATOM      6  S   UNL     1       0.511   9.524  21.033  0.00  0.00    +0.000 S 
ATOM      7  C   UNL     1       1.346   8.242  20.288  0.00  0.00    +0.000 A 
ATOM      8  N   UNL     1       1.466   7.053  20.909  0.00  0.00    +0.000 NA
ATOM      9  C   UNL     1       2.113   6.090  20.202  0.00  0.00    +0.000 A 
ATOM     10  C   UNL     1       2.298   4.797  20.948  0.00  0.00    +0.000 C 
ENDROOT
BRANCH   4  11
ATOM     11  N   UNL     1       1.968  10.569  17.612  0.00  0.00    +0.000 N 
ATOM     12  H   UNL     1       2.888  10.462  17.200  0.00  0.00    +0.000 HD
ATOM     13  H   UNL     1       1.296  11.045  17.004  0.00  0.00    +0.000 HD
ENDBRANCH   4  11
BRANCH   1  14
ATOM     14  C   UNL     1       3.268   5.185  18.155  0.00  0.00    +0.000 C 
ATOM     15  O   UNL     1       4.469   4.976  18.138  0.00  0.00    +0.000 OA
BRANCH  14  17
ATOM     16  C   UNL     1       2.474   3.063  17.561  0.00  0.00    +0.000 C 
ATOM     17  O   UNL     1       2.326   4.482  17.476  0.00  0.00    +0.000 OA
ENDBRANCH  14  17
ENDBRANCH   1  14
BRANCH   5  18
ATOM     18  C   UNL     1       0.430  11.992  19.738  0.00  0.00    +0.000 C 
ATOM     19  O   UNL     1       1.020  12.839  19.065  0.00  0.00    +0.000 OA
BRANCH  18  20
ATOM     20  C   UNL     1      -0.697  12.477  20.595  0.00  0.00    +0.000 A 
ATOM     21  C   UNL     1      -0.451  13.221  21.755  0.00  0.00    +0.000 A 
ATOM     22  C   UNL     1      -1.510  13.673  22.559  0.00  0.00    +0.000 A 
ATOM     23  C   UNL     1      -2.813  13.409  22.146  0.00  0.00    +0.000 A 
ATOM     24  N   UNL     1      -3.067  12.733  21.001  0.00  0.00    +0.000 NA
ATOM     25  C   UNL     1      -2.033  12.276  20.238  0.00  0.00    +0.000 A 
ATOM     26  C   UNL     1      -2.455  11.554  18.992  0.00  0.00    +0.000 C 
BRANCH  22  27
ATOM     27  C   UNL     1      -1.177  14.371  23.767  0.00  0.00    +0.000 C 
ATOM     28  N   UNL     1      -1.014  14.944  24.759  0.00  0.00    +0.000 NA
ENDBRANCH  22  27
BRANCH  23  29
ATOM     29  S   UNL     1      -4.251  13.943  23.070  0.00  0.00    +0.000 S 
ATOM     30  C   UNL     1      -4.327  12.678  24.381  0.00  0.00    +0.000 C 
ENDBRANCH  23  29
ENDBRANCH  18  20
ENDBRANCH   5  18
TORSDOF 7
ENDMDL
