MODEL 1
REMARK VINA RESULT:      -6.8      0.000      0.000
REMARK  Name = 
REMARK  5 active torsions:
REMARK  status: ('A' for Active; 'I' for Inactive)
REMARK    1  A    between atoms: C_1  and  C_2
REMARK    2  A    between atoms: C_2  and  C_3
REMARK    3  A    between atoms: N_10  and  C_11
REMARK    4  A    between atoms: C_16  and  O_17
REMARK    5  A    between atoms: O_17  and  C_18
REMARK                            x       y       z     vdW  Elec       q    Type
REMARK                         _______ _______ _______ _____ _____    ______ ____
ROOT
ATOM      1  C   UNL     1       6.491   4.137  14.190  0.00  0.00    +0.000 A 
ATOM      2  N   UNL     1       5.626   3.314  14.753  0.00  0.00    +0.000 NA
ATOM      3  N   UNL     1       5.579   3.484  16.120  0.00  0.00    +0.000 NA
ATOM      4  C   UNL     1       6.406   4.413  16.520  0.00  0.00    +0.000 A 
ATOM      5  N   UNL     1       6.555   4.928  17.776  0.00  0.00    +0.000 N 
ATOM      6  C   UNL     1       5.662   4.747  18.793  0.00  0.00    +0.000 C 
ATOM      7  O   UNL     1       5.848   5.368  19.840  0.00  0.00    +0.000 OA
ATOM      8  N   UNL     1       4.613   3.897  18.559  0.00  0.00    +0.000 N 
ATOM      9  S   UNL     1       7.373   5.104  15.304  0.00  0.00    +0.000 S 
ATOM     10  H   UNL     1       7.270   5.616  17.939  0.00  0.00    +0.000 HD
ATOM     11  H   UNL     1       4.730   3.215  17.818  0.00  0.00    +0.000 HD
ENDROOT
BRANCH   8  12
ATOM     12  C   UNL     1       3.507   3.726  19.403  0.00  0.00    +0.000 A 
ATOM     13  C   UNL     1       3.540   2.717  20.376  0.00  0.00    +0.000 A 
ATOM     14  C   UNL     1       2.519   2.602  21.318  0.00  0.00    +0.000 A 
ATOM     15  C   UNL     1       1.439   3.477  21.280  0.00  0.00    +0.000 A 
ATOM     16  C   UNL     1       1.395   4.482  20.311  0.00  0.00    +0.000 A 
ATOM     17  C   UNL     1       2.426   4.623  19.374  0.00  0.00    +0.000 A 
BRANCH  17  18
ATOM     18  O   UNL     1       2.267   5.684  18.520  0.00  0.00    +0.000 OA
ATOM     19  C   UNL     1       2.533   6.981  19.050  0.00  0.00    +0.000 C 
ENDBRANCH  17  18
ENDBRANCH   8  12
BRANCH   1  21
ATOM     20  C   UNL     1       6.064   3.093  11.975  0.00  0.00    +0.000 C 
ATOM     21  C   UNL     1       6.672   4.273  12.717  0.00  0.00    +0.000 C 
ENDBRANCH   1  21
TORSDOF 3
ENDMDL
MODEL 2
REMARK VINA RESULT:      -6.7      3.025      3.676
REMARK  Name = 
REMARK  5 active torsions:
REMARK  status: ('A' for Active; 'I' for Inactive)
REMARK    1  A    between atoms: C_1  and  C_2
REMARK    2  A    between atoms: C_2  and  C_3
REMARK    3  A    between atoms: N_10  and  C_11
REMARK    4  A    between atoms: C_16  and  O_17
REMARK    5  A    between atoms: O_17  and  C_18
REMARK                            x       y       z     vdW  Elec       q    Type
REMARK                         _______ _______ _______ _____ _____    ______ ____
ROOT
ATOM      1  C   UNL     1       7.309   7.748  17.676  0.00  0.00    +0.000 A 
ATOM      2  N   UNL     1       6.119   7.467  17.180  0.00  0.00    +0.000 NA
ATOM      3  N   UNL     1       5.684   6.222  17.581  0.00  0.00    +0.000 NA
ATOM      4  C   UNL     1       6.560   5.627  18.347  0.00  0.00    +0.000 A 
ATOM      5  N   UNL     1       6.434   4.443  19.014  0.00  0.00    +0.000 N 
ATOM      6  C   UNL     1       5.248   3.797  19.216  0.00  0.00    +0.000 C 
ATOM      7  O   UNL     1       5.251   2.802  19.943  0.00  0.00    +0.000 OA
ATOM      8  N   UNL     1       4.140   4.319  18.606  0.00  0.00    +0.000 N 
ATOM      9  S   UNL     1       8.017   6.473  18.584  0.00  0.00    +0.000 S 
ATOM     10  H   UNL     1       7.218   4.091  19.536  0.00  0.00    +0.000 HD
ATOM     11  H   UNL     1       4.296   4.918  17.801  0.00  0.00    +0.000 HD
ENDROOT
BRANCH   8  12
ATOM     12  C   UNL     1       2.819   3.910  18.837  0.00  0.00    +0.000 A 
ATOM     13  C   UNL     1       2.333   2.769  18.184  0.00  0.00    +0.000 A 
ATOM     14  C   UNL     1       1.074   2.254  18.489  0.00  0.00    +0.000 A 
ATOM     15  C   UNL     1       0.274   2.893  19.430  0.00  0.00    +0.000 A 
ATOM     16  C   UNL     1       0.748   4.034  20.083  0.00  0.00    +0.000 A 
ATOM     17  C   UNL     1       2.020   4.546  19.801  0.00  0.00    +0.000 A 
BRANCH  17  18
ATOM     18  O   UNL     1       2.364   5.639  20.556  0.00  0.00    +0.000 OA
ATOM     19  C   UNL     1       2.119   6.920  19.981  0.00  0.00    +0.000 C 
ENDBRANCH  17  18
ENDBRANCH   8  12
BRANCH   1  21
ATOM     20  C   UNL     1       8.833   9.403  18.735  0.00  0.00    +0.000 C 
ATOM     21  C   UNL     1       7.983   9.069  17.519  0.00  0.00    +0.000 C 
ENDBRANCH   1  21
TORSDOF 3
ENDMDL
MODEL 3
REMARK VINA RESULT:      -6.3      1.770      2.872
REMARK  Name = 
REMARK  5 active torsions:
REMARK  status: ('A' for Active; 'I' for Inactive)
REMARK    1  A    between atoms: C_1  and  C_2
REMARK    2  A    between atoms: C_2  and  C_3
REMARK    3  A    between atoms: N_10  and  C_11
REMARK    4  A    between atoms: C_16  and  O_17
REMARK    5  A    between atoms: O_17  and  C_18
REMARK                            x       y       z     vdW  Elec       q    Type
REMARK                         _______ _______ _______ _____ _____    ______ ____
ROOT
ATOM      1  C   UNL     1       6.820   3.816  12.739  0.00  0.00    +0.000 A 
ATOM      2  N   UNL     1       6.016   3.334  13.669  0.00  0.00    +0.000 NA
ATOM      3  N   UNL     1       6.157   4.013  14.861  0.00  0.00    +0.000 NA
ATOM      4  C   UNL     1       7.053   4.958  14.776  0.00  0.00    +0.000 A 
ATOM      5  N   UNL     1       7.383   5.898  15.711  0.00  0.00    +0.000 N 
ATOM      6  C   UNL     1       6.628   6.183  16.813  0.00  0.00    +0.000 C 
ATOM      7  O   UNL     1       6.969   7.138  17.512  0.00  0.00    +0.000 OA
ATOM      8  N   UNL     1       5.536   5.390  17.045  0.00  0.00    +0.000 N 
ATOM      9  S   UNL     1       7.868   5.063  13.287  0.00  0.00    +0.000 S 
ATOM     10  H   UNL     1       8.131   6.540  15.515  0.00  0.00    +0.000 HD
ATOM     11  H   UNL     1       5.535   4.471  16.616  0.00  0.00    +0.000 HD
ENDROOT
BRANCH   8  12
ATOM     12  C   UNL     1       4.548   5.635  18.009  0.00  0.00    +0.000 A 
ATOM     13  C   UNL     1       3.669   6.712  17.827  0.00  0.00    +0.000 A 
ATOM     14  C   UNL     1       2.592   6.908  18.690  0.00  0.00    +0.000 A 
ATOM     15  C   UNL     1       2.400   6.045  19.764  0.00  0.00    +0.000 A 
ATOM     16  C   UNL     1       3.274   4.973  19.957  0.00  0.00    +0.000 A 
ATOM     17  C   UNL     1       4.345   4.753  19.082  0.00  0.00    +0.000 A 
BRANCH  17  18
ATOM     18  O   UNL     1       5.084   3.634  19.371  0.00  0.00    +0.000 OA
ATOM     19  C   UNL     1       4.376   2.516  19.903  0.00  0.00    +0.000 C 
ENDBRANCH  17  18
ENDBRANCH   8  12
BRANCH   1  21
ATOM     20  C   UNL     1       6.994   1.864  11.209  0.00  0.00    +0.000 C 
ATOM     21  C   UNL     1       6.806   3.369  11.317  0.00  0.00    +0.000 C 
ENDBRANCH   1  21
TORSDOF 3
ENDMDL
MODEL 4
REMARK VINA RESULT:      -6.3      1.269      2.109
REMARK  Name = 
REMARK  5 active torsions:
REMARK  status: ('A' for Active; 'I' for Inactive)
REMARK    1  A    between atoms: C_1  and  C_2
REMARK    2  A    between atoms: C_2  and  C_3
REMARK    3  A    between atoms: N_10  and  C_11
REMARK    4  A    between atoms: C_16  and  O_17
REMARK    5  A    between atoms: O_17  and  C_18
REMARK                            x       y       z     vdW  Elec       q    Type
REMARK                         _______ _______ _______ _____ _____    ______ ____
ROOT
ATOM      1  C   UNL     1       6.387   3.947  13.786  0.00  0.00    +0.000 A 
ATOM      2  N   UNL     1       5.497   3.301  14.516  0.00  0.00    +0.000 NA
ATOM      3  N   UNL     1       5.609   3.620  15.852  0.00  0.00    +0.000 NA
ATOM      4  C   UNL     1       6.571   4.477  16.065  0.00  0.00    +0.000 A 
ATOM      5  N   UNL     1       6.905   5.100  17.234  0.00  0.00    +0.000 N 
ATOM      6  C   UNL     1       6.106   5.139  18.340  0.00  0.00    +0.000 C 
ATOM      7  O   UNL     1       6.466   5.840  19.286  0.00  0.00    +0.000 OA
ATOM      8  N   UNL     1       4.950   4.405  18.302  0.00  0.00    +0.000 N 
ATOM      9  S   UNL     1       7.481   4.911  14.696  0.00  0.00    +0.000 S 
ATOM     10  H   UNL     1       7.705   5.708  17.251  0.00  0.00    +0.000 HD
ATOM     11  H   UNL     1       4.913   3.638  17.638  0.00  0.00    +0.000 HD
ENDROOT
BRANCH   8  12
ATOM     12  C   UNL     1       3.924   4.461  19.255  0.00  0.00    +0.000 A 
ATOM     13  C   UNL     1       3.247   5.672  19.458  0.00  0.00    +0.000 A 
ATOM     14  C   UNL     1       2.135   5.736  20.297  0.00  0.00    +0.000 A 
ATOM     15  C   UNL     1       1.706   4.594  20.966  0.00  0.00    +0.000 A 
ATOM     16  C   UNL     1       2.377   3.385  20.774  0.00  0.00    +0.000 A 
ATOM     17  C   UNL     1       3.481   3.304  19.915  0.00  0.00    +0.000 A 
BRANCH  17  18
ATOM     18  O   UNL     1       4.003   2.041  19.791  0.00  0.00    +0.000 OA
ATOM     19  C   UNL     1       3.592   1.285  18.655  0.00  0.00    +0.000 C 
ENDBRANCH  17  18
ENDBRANCH   8  12
BRANCH   1  21
ATOM     20  C   UNL     1       5.210   3.195  11.730  0.00  0.00    +0.000 C 
ATOM     21  C   UNL     1       6.430   3.903  12.296  0.00  0.00    +0.000 C 
ENDBRANCH   1  21
TORSDOF 3
ENDMDL
MODEL 5
REMARK VINA RESULT:      -6.2      1.417      2.490
REMARK  Name = 
REMARK  5 active torsions:
REMARK  status: ('A' for Active; 'I' for Inactive)
REMARK    1  A    between atoms: C_1  and  C_2
REMARK    2  A    between atoms: C_2  and  C_3
REMARK    3  A    between atoms: N_10  and  C_11
REMARK    4  A    between atoms: C_16  and  O_17
REMARK    5  A    between atoms: O_17  and  C_18
REMARK                            x       y       z     vdW  Elec       q    Type
REMARK                         _______ _______ _______ _____ _____    ______ ____
ROOT
ATOM      1  C   UNL     1       6.070   4.151  14.265  0.00  0.00    +0.000 A 
ATOM      2  N   UNL     1       5.975   3.349  15.310  0.00  0.00    +0.000 NA
ATOM      3  N   UNL     1       5.452   4.003  16.405  0.00  0.00    +0.000 NA
ATOM      4  C   UNL     1       5.186   5.254  16.139  0.00  0.00    +0.000 A 
ATOM      5  N   UNL     1       4.565   6.174  16.934  0.00  0.00    +0.000 N 
ATOM      6  C   UNL     1       3.861   5.864  18.063  0.00  0.00    +0.000 C 
ATOM      7  O   UNL     1       3.242   6.771  18.622  0.00  0.00    +0.000 OA
ATOM      8  N   UNL     1       3.885   4.559  18.476  0.00  0.00    +0.000 N 
ATOM      9  S   UNL     1       5.618   5.778  14.580  0.00  0.00    +0.000 S 
ATOM     10  H   UNL     1       4.469   7.118  16.604  0.00  0.00    +0.000 HD
ATOM     11  H   UNL     1       4.657   3.987  18.149  0.00  0.00    +0.000 HD
ENDROOT
BRANCH   8  12
ATOM     12  C   UNL     1       3.087   4.017  19.493  0.00  0.00    +0.000 A 
ATOM     13  C   UNL     1       1.734   4.380  19.565  0.00  0.00    +0.000 A 
ATOM     14  C   UNL     1       0.878   3.763  20.476  0.00  0.00    +0.000 A 
ATOM     15  C   UNL     1       1.372   2.795  21.345  0.00  0.00    +0.000 A 
ATOM     16  C   UNL     1       2.719   2.431  21.283  0.00  0.00    +0.000 A 
ATOM     17  C   UNL     1       3.583   3.027  20.356  0.00  0.00    +0.000 A 
BRANCH  17  18
ATOM     18  O   UNL     1       4.862   2.531  20.382  0.00  0.00    +0.000 OA
ATOM     19  C   UNL     1       5.044   1.255  20.991  0.00  0.00    +0.000 C 
ENDBRANCH  17  18
ENDBRANCH   8  12
BRANCH   1  21
ATOM     20  C   UNL     1       5.279   3.315  12.062  0.00  0.00    +0.000 C 
ATOM     21  C   UNL     1       6.483   3.698  12.906  0.00  0.00    +0.000 C 
ENDBRANCH   1  21
TORSDOF 3
ENDMDL
MODEL 6
REMARK VINA RESULT:      -6.1      4.748      7.290
REMARK  Name = 
REMARK  5 active torsions:
REMARK  status: ('A' for Active; 'I' for Inactive)
REMARK    1  A    between atoms: C_1  and  C_2
REMARK    2  A    between atoms: C_2  and  C_3
REMARK    3  A    between atoms: N_10  and  C_11
REMARK    4  A    between atoms: C_16  and  O_17
REMARK    5  A    between atoms: O_17  and  C_18
REMARK                            x       y       z     vdW  Elec       q    Type
REMARK                         _______ _______ _______ _____ _____    ______ ____
ROOT
ATOM      1  C   UNL     1       2.398   4.480  20.039  0.00  0.00    +0.000 A 
ATOM      2  N   UNL     1       1.865   5.376  20.849  0.00  0.00    +0.000 NA
ATOM      3  N   UNL     1       1.927   6.644  20.313  0.00  0.00    +0.000 NA
ATOM      4  C   UNL     1       2.502   6.646  19.141  0.00  0.00    +0.000 A 
ATOM      5  N   UNL     1       2.643   7.689  18.270  0.00  0.00    +0.000 N 
ATOM      6  C   UNL     1       1.956   8.865  18.361  0.00  0.00    +0.000 C 
ATOM      7  O   UNL     1       2.079   9.676  17.443  0.00  0.00    +0.000 OA
ATOM      8  N   UNL     1       1.166   9.043  19.466  0.00  0.00    +0.000 N 
ATOM      9  S   UNL     1       3.096   5.142  18.615  0.00  0.00    +0.000 S 
ATOM     10  H   UNL     1       3.152   7.544  17.415  0.00  0.00    +0.000 HD
ATOM     11  H   UNL     1       1.384   8.482  20.283  0.00  0.00    +0.000 HD
ENDROOT
BRANCH   8  12
ATOM     12  C   UNL     1       0.253  10.092  19.647  0.00  0.00    +0.000 A 
ATOM     13  C   UNL     1      -0.579  10.465  18.582  0.00  0.00    +0.000 A 
ATOM     14  C   UNL     1      -1.589  11.409  18.763  0.00  0.00    +0.000 A 
ATOM     15  C   UNL     1      -1.758  12.012  20.005  0.00  0.00    +0.000 A 
ATOM     16  C   UNL     1      -0.931  11.651  21.070  0.00  0.00    +0.000 A 
ATOM     17  C   UNL     1       0.072  10.686  20.906  0.00  0.00    +0.000 A 
BRANCH  17  18
ATOM     18  O   UNL     1       0.768  10.402  22.053  0.00  0.00    +0.000 OA
ATOM     19  C   UNL     1       0.108   9.589  23.021  0.00  0.00    +0.000 C 
ENDBRANCH  17  18
ENDBRANCH   8  12
BRANCH   1  21
ATOM     20  C   UNL     1       1.627   2.685  21.576  0.00  0.00    +0.000 C 
ATOM     21  C   UNL     1       2.367   3.010  20.289  0.00  0.00    +0.000 C 
ENDBRANCH   1  21
TORSDOF 3
ENDMDL
MODEL 7
REMARK VINA RESULT:      -6.0      4.393      7.135
REMARK  Name = 
REMARK  5 active torsions:
REMARK  status: ('A' for Active; 'I' for Inactive)
REMARK    1  A    between atoms: C_1  and  C_2
REMARK    2  A    between atoms: C_2  and  C_3
REMARK    3  A    between atoms: N_10  and  C_11
REMARK    4  A    between atoms: C_16  and  O_17
REMARK    5  A    between atoms: O_17  and  C_18
REMARK                            x       y       z     vdW  Elec       q    Type
REMARK                         _______ _______ _______ _____ _____    ______ ____
ROOT
ATOM      1  C   UNL     1      -0.109  10.253  20.030  0.00  0.00    +0.000 A 
ATOM      2  N   UNL     1       0.824  10.027  19.123  0.00  0.00    +0.000 NA
ATOM      3  N   UNL     1       1.553   8.895  19.417  0.00  0.00    +0.000 NA
ATOM      4  C   UNL     1       1.146   8.331  20.522  0.00  0.00    +0.000 A 
ATOM      5  N   UNL     1       1.553   7.146  21.066  0.00  0.00    +0.000 N 
ATOM      6  C   UNL     1       2.275   6.200  20.397  0.00  0.00    +0.000 C 
ATOM      7  O   UNL     1       2.470   5.121  20.958  0.00  0.00    +0.000 OA
ATOM      8  N   UNL     1       2.711   6.521  19.139  0.00  0.00    +0.000 N 
ATOM      9  S   UNL     1      -0.090   9.153  21.350  0.00  0.00    +0.000 S 
ATOM     10  H   UNL     1       1.174   6.861  21.953  0.00  0.00    +0.000 HD
ATOM     11  H   UNL     1       2.777   7.508  18.913  0.00  0.00    +0.000 HD
ENDROOT
BRANCH   8  12
ATOM     12  C   UNL     1       3.302   5.628  18.234  0.00  0.00    +0.000 A 
ATOM     13  C   UNL     1       4.643   5.811  17.871  0.00  0.00    +0.000 A 
ATOM     14  C   UNL     1       5.303   4.870  17.081  0.00  0.00    +0.000 A 
ATOM     15  C   UNL     1       4.619   3.750  16.621  0.00  0.00    +0.000 A 
ATOM     16  C   UNL     1       3.281   3.562  16.974  0.00  0.00    +0.000 A 
ATOM     17  C   UNL     1       2.615   4.488  17.786  0.00  0.00    +0.000 A 
BRANCH  17  18
ATOM     18  O   UNL     1       1.321   4.142  18.086  0.00  0.00    +0.000 OA
ATOM     19  C   UNL     1       1.107   2.821  18.579  0.00  0.00    +0.000 C 
ENDBRANCH  17  18
ENDBRANCH   8  12
BRANCH   1  21
ATOM     20  C   UNL     1      -1.375  11.713  18.467  0.00  0.00    +0.000 C 
ATOM     21  C   UNL     1      -1.133  11.330  19.918  0.00  0.00    +0.000 C 
ENDBRANCH   1  21
TORSDOF 3
ENDMDL
MODEL 8
REMARK VINA RESULT:      -6.0      1.122      2.246
REMARK  Name = 
REMARK  5 active torsions:
REMARK  status: ('A' for Active; 'I' for Inactive)
REMARK    1  A    between atoms: C_1  and  C_2
REMARK    2  A    between atoms: C_2  and  C_3
REMARK    3  A    between atoms: N_10  and  C_11
REMARK    4  A    between atoms: C_16  and  O_17
REMARK    5  A    between atoms: O_17  and  C_18
REMARK                            x       y       z     vdW  Elec       q    Type
REMARK                         _______ _______ _______ _____ _____    ______ ____
ROOT
ATOM      1  C   UNL     1       6.159   4.150  14.093  0.00  0.00    +0.000 A 
ATOM      2  N   UNL     1       4.973   3.992  14.650  0.00  0.00    +0.000 NA
ATOM      3  N   UNL     1       5.034   4.130  16.020  0.00  0.00    +0.000 NA
ATOM      4  C   UNL     1       6.250   4.377  16.427  0.00  0.00    +0.000 A 
ATOM      5  N   UNL     1       6.674   4.677  17.690  0.00  0.00    +0.000 N 
ATOM      6  C   UNL     1       5.846   5.043  18.713  0.00  0.00    +0.000 C 
ATOM      7  O   UNL     1       6.363   5.411  19.768  0.00  0.00    +0.000 OA
ATOM      8  N   UNL     1       4.499   4.988  18.476  0.00  0.00    +0.000 N 
ATOM      9  S   UNL     1       7.441   4.381  15.213  0.00  0.00    +0.000 S 
ATOM     10  H   UNL     1       7.657   4.802  17.857  0.00  0.00    +0.000 HD
ATOM     11  H   UNL     1       4.188   4.385  17.721  0.00  0.00    +0.000 HD
ENDROOT
BRANCH   8  12
ATOM     12  C   UNL     1       3.506   5.492  19.327  0.00  0.00    +0.000 A 
ATOM     13  C   UNL     1       3.107   6.830  19.195  0.00  0.00    +0.000 A 
ATOM     14  C   UNL     1       2.033   7.330  19.930  0.00  0.00    +0.000 A 
ATOM     15  C   UNL     1       1.364   6.505  20.828  0.00  0.00    +0.000 A 
ATOM     16  C   UNL     1       1.758   5.172  20.970  0.00  0.00    +0.000 A 
ATOM     17  C   UNL     1       2.820   4.653  20.220  0.00  0.00    +0.000 A 
BRANCH  17  18
ATOM     18  O   UNL     1       3.056   3.318  20.433  0.00  0.00    +0.000 OA
ATOM     19  C   UNL     1       2.309   2.691  21.472  0.00  0.00    +0.000 C 
ENDBRANCH  17  18
ENDBRANCH   8  12
BRANCH   1  21
ATOM     20  C   UNL     1       5.686   3.023  11.928  0.00  0.00    +0.000 C 
ATOM     21  C   UNL     1       6.388   4.181  12.620  0.00  0.00    +0.000 C 
ENDBRANCH   1  21
TORSDOF 3
ENDMDL
MODEL 9
REMARK VINA RESULT:      -5.9      4.840      7.490
REMARK  Name = 
REMARK  5 active torsions:
REMARK  status: ('A' for Active; 'I' for Inactive)
REMARK    1  A    between atoms: C_1  and  C_2
REMARK    2  A    between atoms: C_2  and  C_3
REMARK    3  A    between atoms: N_10  and  C_11
REMARK    4  A    between atoms: C_16  and  O_17
REMARK    5  A    between atoms: O_17  and  C_18
REMARK                            x       y       z     vdW  Elec       q    Type
REMARK                         _______ _______ _______ _____ _____    ______ ____
ROOT
ATOM      1  C   UNL     1       2.396   4.842  19.967  0.00  0.00    +0.000 A 
ATOM      2  N   UNL     1       1.737   5.719  20.702  0.00  0.00    +0.000 NA
ATOM      3  N   UNL     1       1.810   6.986  20.166  0.00  0.00    +0.000 NA
ATOM      4  C   UNL     1       2.518   7.008  19.068  0.00  0.00    +0.000 A 
ATOM      5  N   UNL     1       2.717   8.051  18.211  0.00  0.00    +0.000 N 
ATOM      6  C   UNL     1       1.977   9.199  18.211  0.00  0.00    +0.000 C 
ATOM      7  O   UNL     1       2.174  10.011  17.306  0.00  0.00    +0.000 OA
ATOM      8  N   UNL     1       1.057   9.349  19.214  0.00  0.00    +0.000 N 
ATOM      9  S   UNL     1       3.229   5.527  18.628  0.00  0.00    +0.000 S 
ATOM     10  H   UNL     1       3.328   7.925  17.422  0.00  0.00    +0.000 HD
ATOM     11  H   UNL     1       1.200   8.801  20.056  0.00  0.00    +0.000 HD
ENDROOT
BRANCH   8  12
ATOM     12  C   UNL     1       0.088  10.360  19.279  0.00  0.00    +0.000 A 
ATOM     13  C   UNL     1      -1.104  10.210  18.555  0.00  0.00    +0.000 A 
ATOM     14  C   UNL     1      -2.145  11.126  18.699  0.00  0.00    +0.000 A 
ATOM     15  C   UNL     1      -1.994  12.219  19.545  0.00  0.00    +0.000 A 
ATOM     16  C   UNL     1      -0.808  12.379  20.266  0.00  0.00    +0.000 A 
ATOM     17  C   UNL     1       0.235  11.452  20.148  0.00  0.00    +0.000 A 
BRANCH  17  18
ATOM     18  O   UNL     1       1.313  11.716  20.954  0.00  0.00    +0.000 OA
ATOM     19  C   UNL     1       1.965  12.970  20.766  0.00  0.00    +0.000 C 
ENDBRANCH  17  18
ENDBRANCH   8  12
BRANCH   1  21
ATOM     20  C   UNL     1       1.760   3.050  21.567  0.00  0.00    +0.000 C 
ATOM     21  C   UNL     1       2.395   3.374  20.224  0.00  0.00    +0.000 C 
ENDBRANCH   1  21
TORSDOF 3
ENDMDL
