MODEL 1
REMARK VINA RESULT:      -7.4      0.000      0.000
REMARK  Name = 
REMARK  5 active torsions:
REMARK  status: ('A' for Active; 'I' for Inactive)
REMARK    1  A    between atoms: C_1  and  C_2
REMARK    2  A    between atoms: C_2  and  C_3
REMARK    3  A    between atoms: C_3  and  C_4
REMARK    4  A    between atoms: C_4  and  C_5
REMARK    5  A    between atoms: C_5  and  N_6
REMARK                            x       y       z     vdW  Elec       q    Type
REMARK                         _______ _______ _______ _____ _____    ______ ____
ROOT
ATOM      1  N   UNL     1       5.750   4.693  16.092  0.00  0.00    +0.000 NA
ATOM      2  C   UNL     1       5.348   6.102  16.231  0.00  0.00    +0.000 C 
ATOM      3  C   UNL     1       4.625   6.428  17.557  0.00  0.00    +0.000 C 
ATOM      4  C   UNL     1       5.457   5.968  18.747  0.00  0.00    +0.000 C 
ATOM      5  C   UNL     1       5.666   4.464  18.587  0.00  0.00    +0.000 C 
ATOM      6  C   UNL     1       6.467   4.215  17.284  0.00  0.00    +0.000 C 
ATOM      7  C   UNL     1       4.337   3.718  18.535  0.00  0.00    +0.000 A 
ATOM      8  C   UNL     1       4.247   2.437  18.936  0.00  0.00    +0.000 A 
ATOM      9  C   UNL     1       3.020   1.701  18.788  0.00  0.00    +0.000 A 
ATOM     10  C   UNL     1       1.938   2.284  18.261  0.00  0.00    +0.000 A 
ATOM     11  C   UNL     1       1.983   3.711  17.857  0.00  0.00    +0.000 A 
ATOM     12  O   UNL     1       0.957   4.240  17.431  0.00  0.00    +0.000 OA
ATOM     13  N   UNL     1       3.212   4.360  18.005  0.00  0.00    +0.000 N 
ATOM     14  C   UNL     1       3.241   5.777  17.647  0.00  0.00    +0.000 C 
ENDROOT
BRANCH   1  15
ATOM     15  C   UNL     1       6.478   4.480  14.834  0.00  0.00    +0.000 C 
BRANCH  15  16
ATOM     16  C   UNL     1       5.624   4.063  13.626  0.00  0.00    +0.000 C 
BRANCH  16  17
ATOM     17  C   UNL     1       6.430   3.472  12.464  0.00  0.00    +0.000 C 
BRANCH  17  19
ATOM     18  C   UNL     1       4.189   3.210  11.325  0.00  0.00    +0.000 C 
ATOM     19  C   UNL     1       5.541   2.573  11.601  0.00  0.00    +0.000 C 
ENDBRANCH  17  19
ENDBRANCH  16  17
ENDBRANCH  15  16
ENDBRANCH   1  15
TORSDOF 4
ENDMDL
MODEL 2
REMARK VINA RESULT:      -7.2      2.494      5.886
REMARK  Name = 
REMARK  5 active torsions:
REMARK  status: ('A' for Active; 'I' for Inactive)
REMARK    1  A    between atoms: C_1  and  C_2
REMARK    2  A    between atoms: C_2  and  C_3
REMARK    3  A    between atoms: C_3  and  C_4
REMARK    4  A    between atoms: C_4  and  C_5
REMARK    5  A    between atoms: C_5  and  N_6
REMARK                            x       y       z     vdW  Elec       q    Type
REMARK                         _______ _______ _______ _____ _____    ______ ____
ROOT
ATOM      1  N   UNL     1       3.539   3.187  18.011  0.00  0.00    +0.000 NA
ATOM      2  C   UNL     1       4.004   3.484  19.376  0.00  0.00    +0.000 C 
ATOM      3  C   UNL     1       4.806   4.798  19.501  0.00  0.00    +0.000 C 
ATOM      4  C   UNL     1       4.017   5.963  18.918  0.00  0.00    +0.000 C 
ATOM      5  C   UNL     1       3.740   5.624  17.457  0.00  0.00    +0.000 C 
ATOM      6  C   UNL     1       2.864   4.347  17.406  0.00  0.00    +0.000 C 
ATOM      7  C   UNL     1       5.034   5.403  16.679  0.00  0.00    +0.000 A 
ATOM      8  C   UNL     1       5.092   5.630  15.355  0.00  0.00    +0.000 A 
ATOM      9  C   UNL     1       6.280   5.322  14.604  0.00  0.00    +0.000 A 
ATOM     10  C   UNL     1       7.356   4.815  15.214  0.00  0.00    +0.000 A 
ATOM     11  C   UNL     1       7.348   4.600  16.683  0.00  0.00    +0.000 A 
ATOM     12  O   UNL     1       8.371   4.189  17.228  0.00  0.00    +0.000 OA
ATOM     13  N   UNL     1       6.155   4.898  17.347  0.00  0.00    +0.000 N 
ATOM     14  C   UNL     1       6.165   4.727  18.799  0.00  0.00    +0.000 C 
ENDROOT
BRANCH   1  15
ATOM     15  C   UNL     1       2.740   1.954  17.988  0.00  0.00    +0.000 C 
BRANCH  15  16
ATOM     16  C   UNL     1       1.783   1.752  19.174  0.00  0.00    +0.000 C 
BRANCH  16  17
ATOM     17  C   UNL     1       0.637   2.766  19.233  0.00  0.00    +0.000 C 
BRANCH  17  19
ATOM     18  C   UNL     1       1.448   2.887  21.623  0.00  0.00    +0.000 C 
ATOM     19  C   UNL     1       0.750   3.626  20.494  0.00  0.00    +0.000 C 
ENDBRANCH  17  19
ENDBRANCH  16  17
ENDBRANCH  15  16
ENDBRANCH   1  15
TORSDOF 4
ENDMDL
MODEL 3
REMARK VINA RESULT:      -7.1      2.386      4.149
REMARK  Name = 
REMARK  5 active torsions:
REMARK  status: ('A' for Active; 'I' for Inactive)
REMARK    1  A    between atoms: C_1  and  C_2
REMARK    2  A    between atoms: C_2  and  C_3
REMARK    3  A    between atoms: C_3  and  C_4
REMARK    4  A    between atoms: C_4  and  C_5
REMARK    5  A    between atoms: C_5  and  N_6
REMARK                            x       y       z     vdW  Elec       q    Type
REMARK                         _______ _______ _______ _____ _____    ______ ____
ROOT
ATOM      1  N   UNL     1       5.640   4.362  15.847  0.00  0.00    +0.000 NA
ATOM      2  C   UNL     1       4.687   3.697  16.750  0.00  0.00    +0.000 C 
ATOM      3  C   UNL     1       4.235   4.564  17.946  0.00  0.00    +0.000 C 
ATOM      4  C   UNL     1       3.697   5.904  17.462  0.00  0.00    +0.000 C 
ATOM      5  C   UNL     1       4.823   6.580  16.685  0.00  0.00    +0.000 C 
ATOM      6  C   UNL     1       5.170   5.701  15.457  0.00  0.00    +0.000 C 
ATOM      7  C   UNL     1       6.062   6.775  17.555  0.00  0.00    +0.000 A 
ATOM      8  C   UNL     1       6.928   7.774  17.308  0.00  0.00    +0.000 A 
ATOM      9  C   UNL     1       8.149   7.895  18.060  0.00  0.00    +0.000 A 
ATOM     10  C   UNL     1       8.437   7.022  19.031  0.00  0.00    +0.000 A 
ATOM     11  C   UNL     1       7.481   5.938  19.367  0.00  0.00    +0.000 A 
ATOM     12  O   UNL     1       7.742   5.185  20.304  0.00  0.00    +0.000 OA
ATOM     13  N   UNL     1       6.327   5.863  18.583  0.00  0.00    +0.000 N 
ATOM     14  C   UNL     1       5.366   4.823  18.945  0.00  0.00    +0.000 C 
ENDROOT
BRANCH   1  15
ATOM     15  C   UNL     1       5.975   3.494  14.710  0.00  0.00    +0.000 C 
BRANCH  15  16
ATOM     16  C   UNL     1       6.024   4.178  13.334  0.00  0.00    +0.000 C 
BRANCH  16  17
ATOM     17  C   UNL     1       6.553   3.283  12.209  0.00  0.00    +0.000 C 
BRANCH  17  19
ATOM     18  C   UNL     1       4.145   3.340  11.446  0.00  0.00    +0.000 C 
ATOM     19  C   UNL     1       5.406   2.500  11.566  0.00  0.00    +0.000 C 
ENDBRANCH  17  19
ENDBRANCH  16  17
ENDBRANCH  15  16
ENDBRANCH   1  15
TORSDOF 4
ENDMDL
MODEL 4
REMARK VINA RESULT:      -7.1      3.164      5.505
REMARK  Name = 
REMARK  5 active torsions:
REMARK  status: ('A' for Active; 'I' for Inactive)
REMARK    1  A    between atoms: C_1  and  C_2
REMARK    2  A    between atoms: C_2  and  C_3
REMARK    3  A    between atoms: C_3  and  C_4
REMARK    4  A    between atoms: C_4  and  C_5
REMARK    5  A    between atoms: C_5  and  N_6
REMARK                            x       y       z     vdW  Elec       q    Type
REMARK                         _______ _______ _______ _____ _____    ______ ____
ROOT
ATOM      1  N   UNL     1       6.854   6.464  17.913  0.00  0.00    +0.000 NA
ATOM      2  C   UNL     1       7.229   5.166  17.330  0.00  0.00    +0.000 C 
ATOM      3  C   UNL     1       6.038   4.350  16.779  0.00  0.00    +0.000 C 
ATOM      4  C   UNL     1       5.226   5.185  15.798  0.00  0.00    +0.000 C 
ATOM      5  C   UNL     1       4.745   6.418  16.556  0.00  0.00    +0.000 C 
ATOM      6  C   UNL     1       5.984   7.232  17.007  0.00  0.00    +0.000 C 
ATOM      7  C   UNL     1       3.902   6.035  17.769  0.00  0.00    +0.000 A 
ATOM      8  C   UNL     1       2.960   6.868  18.246  0.00  0.00    +0.000 A 
ATOM      9  C   UNL     1       2.238   6.553  19.450  0.00  0.00    +0.000 A 
ATOM     10  C   UNL     1       2.482   5.416  20.110  0.00  0.00    +0.000 A 
ATOM     11  C   UNL     1       3.476   4.448  19.585  0.00  0.00    +0.000 A 
ATOM     12  O   UNL     1       3.638   3.383  20.178  0.00  0.00    +0.000 OA
ATOM     13  N   UNL     1       4.158   4.826  18.425  0.00  0.00    +0.000 N 
ATOM     14  C   UNL     1       5.105   3.851  17.886  0.00  0.00    +0.000 C 
ENDROOT
BRANCH   1  15
ATOM     15  C   UNL     1       8.045   7.199  18.361  0.00  0.00    +0.000 C 
BRANCH  15  16
ATOM     16  C   UNL     1       8.151   8.657  17.887  0.00  0.00    +0.000 C 
BRANCH  16  17
ATOM     17  C   UNL     1       8.955   9.562  18.825  0.00  0.00    +0.000 C 
BRANCH  17  19
ATOM     18  C   UNL     1      10.508  11.419  18.102  0.00  0.00    +0.000 C 
ATOM     19  C   UNL     1       9.063  10.974  18.244  0.00  0.00    +0.000 C 
ENDBRANCH  17  19
ENDBRANCH  16  17
ENDBRANCH  15  16
ENDBRANCH   1  15
TORSDOF 4
ENDMDL
MODEL 5
REMARK VINA RESULT:      -6.9      3.037      4.205
REMARK  Name = 
REMARK  5 active torsions:
REMARK  status: ('A' for Active; 'I' for Inactive)
REMARK    1  A    between atoms: C_1  and  C_2
REMARK    2  A    between atoms: C_2  and  C_3
REMARK    3  A    between atoms: C_3  and  C_4
REMARK    4  A    between atoms: C_4  and  C_5
REMARK    5  A    between atoms: C_5  and  N_6
REMARK                            x       y       z     vdW  Elec       q    Type
REMARK                         _______ _______ _______ _____ _____    ______ ____
ROOT
ATOM      1  N   UNL     1       4.812   4.836  18.384  0.00  0.00    +0.000 NA
ATOM      2  C   UNL     1       4.120   5.370  17.200  0.00  0.00    +0.000 C 
ATOM      3  C   UNL     1       2.653   5.782  17.455  0.00  0.00    +0.000 C 
ATOM      4  C   UNL     1       2.566   6.747  18.631  0.00  0.00    +0.000 C 
ATOM      5  C   UNL     1       3.155   6.027  19.840  0.00  0.00    +0.000 C 
ATOM      6  C   UNL     1       4.645   5.717  19.551  0.00  0.00    +0.000 C 
ATOM      7  C   UNL     1       2.402   4.735  20.142  0.00  0.00    +0.000 A 
ATOM      8  C   UNL     1       2.357   4.237  21.391  0.00  0.00    +0.000 A 
ATOM      9  C   UNL     1       1.737   2.966  21.658  0.00  0.00    +0.000 A 
ATOM     10  C   UNL     1       1.180   2.262  20.668  0.00  0.00    +0.000 A 
ATOM     11  C   UNL     1       1.163   2.803  19.286  0.00  0.00    +0.000 A 
ATOM     12  O   UNL     1       0.591   2.163  18.405  0.00  0.00    +0.000 OA
ATOM     13  N   UNL     1       1.803   4.031  19.092  0.00  0.00    +0.000 N 
ATOM     14  C   UNL     1       1.745   4.581  17.740  0.00  0.00    +0.000 C 
ENDROOT
BRANCH   1  15
ATOM     15  C   UNL     1       6.213   4.521  18.071  0.00  0.00    +0.000 C 
BRANCH  15  16
ATOM     16  C   UNL     1       6.975   5.582  17.259  0.00  0.00    +0.000 C 
BRANCH  16  17
ATOM     17  C   UNL     1       7.685   6.635  18.117  0.00  0.00    +0.000 C 
BRANCH  17  19
ATOM     18  C   UNL     1       8.395   9.057  18.221  0.00  0.00    +0.000 C 
ATOM     19  C   UNL     1       7.657   7.997  17.420  0.00  0.00    +0.000 C 
ENDBRANCH  17  19
ENDBRANCH  16  17
ENDBRANCH  15  16
ENDBRANCH   1  15
TORSDOF 4
ENDMDL
MODEL 6
REMARK VINA RESULT:      -6.8      3.212      5.671
REMARK  Name = 
REMARK  5 active torsions:
REMARK  status: ('A' for Active; 'I' for Inactive)
REMARK    1  A    between atoms: C_1  and  C_2
REMARK    2  A    between atoms: C_2  and  C_3
REMARK    3  A    between atoms: C_3  and  C_4
REMARK    4  A    between atoms: C_4  and  C_5
REMARK    5  A    between atoms: C_5  and  N_6
REMARK                            x       y       z     vdW  Elec       q    Type
REMARK                         _______ _______ _______ _____ _____    ______ ____
ROOT
ATOM      1  N   UNL     1       3.166   5.812  18.130  0.00  0.00    +0.000 NA
ATOM      2  C   UNL     1       4.156   5.155  17.261  0.00  0.00    +0.000 C 
ATOM      3  C   UNL     1       3.987   3.623  17.153  0.00  0.00    +0.000 C 
ATOM      4  C   UNL     1       2.564   3.270  16.740  0.00  0.00    +0.000 C 
ATOM      5  C   UNL     1       1.636   3.853  17.801  0.00  0.00    +0.000 C 
ATOM      6  C   UNL     1       1.794   5.395  17.800  0.00  0.00    +0.000 C 
ATOM      7  C   UNL     1       1.953   3.297  19.186  0.00  0.00    +0.000 A 
ATOM      8  C   UNL     1       1.001   3.217  20.133  0.00  0.00    +0.000 A 
ATOM      9  C   UNL     1       1.322   2.791  21.469  0.00  0.00    +0.000 A 
ATOM     10  C   UNL     1       2.574   2.452  21.791  0.00  0.00    +0.000 A 
ATOM     11  C   UNL     1       3.641   2.476  20.760  0.00  0.00    +0.000 A 
ATOM     12  O   UNL     1       4.772   2.102  21.067  0.00  0.00    +0.000 OA
ATOM     13  N   UNL     1       3.266   2.922  19.489  0.00  0.00    +0.000 N 
ATOM     14  C   UNL     1       4.309   2.902  18.465  0.00  0.00    +0.000 C 
ENDROOT
BRANCH   1  15
ATOM     15  C   UNL     1       3.361   7.269  18.135  0.00  0.00    +0.000 C 
BRANCH  15  16
ATOM     16  C   UNL     1       2.154   8.105  18.589  0.00  0.00    +0.000 C 
BRANCH  16  17
ATOM     17  C   UNL     1       1.966   9.409  17.806  0.00  0.00    +0.000 C 
BRANCH  17  19
ATOM     18  C   UNL     1       0.522   9.773  19.847  0.00  0.00    +0.000 C 
ATOM     19  C   UNL     1       1.170  10.420  18.634  0.00  0.00    +0.000 C 
ENDBRANCH  17  19
ENDBRANCH  16  17
ENDBRANCH  15  16
ENDBRANCH   1  15
TORSDOF 4
ENDMDL
MODEL 7
REMARK VINA RESULT:      -6.7      1.023      1.076
REMARK  Name = 
REMARK  5 active torsions:
REMARK  status: ('A' for Active; 'I' for Inactive)
REMARK    1  A    between atoms: C_1  and  C_2
REMARK    2  A    between atoms: C_2  and  C_3
REMARK    3  A    between atoms: C_3  and  C_4
REMARK    4  A    between atoms: C_4  and  C_5
REMARK    5  A    between atoms: C_5  and  N_6
REMARK                            x       y       z     vdW  Elec       q    Type
REMARK                         _______ _______ _______ _____ _____    ______ ____
ROOT
ATOM      1  N   UNL     1       5.868   4.441  15.775  0.00  0.00    +0.000 NA
ATOM      2  C   UNL     1       5.597   5.859  15.492  0.00  0.00    +0.000 C 
ATOM      3  C   UNL     1       5.218   6.693  16.736  0.00  0.00    +0.000 C 
ATOM      4  C   UNL     1       6.270   6.537  17.825  0.00  0.00    +0.000 C 
ATOM      5  C   UNL     1       6.344   5.050  18.160  0.00  0.00    +0.000 C 
ATOM      6  C   UNL     1       6.808   4.284  16.896  0.00  0.00    +0.000 C 
ATOM      7  C   UNL     1       4.994   4.515  18.629  0.00  0.00    +0.000 A 
ATOM      8  C   UNL     1       4.920   3.459  19.460  0.00  0.00    +0.000 A 
ATOM      9  C   UNL     1       3.648   2.890  19.818  0.00  0.00    +0.000 A 
ATOM     10  C   UNL     1       2.513   3.411  19.342  0.00  0.00    +0.000 A 
ATOM     11  C   UNL     1       2.552   4.609  18.467  0.00  0.00    +0.000 A 
ATOM     12  O   UNL     1       1.491   5.105  18.092  0.00  0.00    +0.000 OA
ATOM     13  N   UNL     1       3.820   5.097  18.139  0.00  0.00    +0.000 N 
ATOM     14  C   UNL     1       3.854   6.302  17.313  0.00  0.00    +0.000 C 
ENDROOT
BRANCH   1  15
ATOM     15  C   UNL     1       6.274   3.732  14.554  0.00  0.00    +0.000 C 
BRANCH  15  16
ATOM     16  C   UNL     1       6.956   4.590  13.476  0.00  0.00    +0.000 C 
BRANCH  16  17
ATOM     17  C   UNL     1       6.717   4.101  12.044  0.00  0.00    +0.000 C 
BRANCH  17  19
ATOM     18  C   UNL     1       4.430   3.225  11.422  0.00  0.00    +0.000 C 
ATOM     19  C   UNL     1       5.778   2.893  12.042  0.00  0.00    +0.000 C 
ENDBRANCH  17  19
ENDBRANCH  16  17
ENDBRANCH  15  16
ENDBRANCH   1  15
TORSDOF 4
ENDMDL
MODEL 8
REMARK VINA RESULT:      -6.7      1.862      2.822
REMARK  Name = 
REMARK  5 active torsions:
REMARK  status: ('A' for Active; 'I' for Inactive)
REMARK    1  A    between atoms: C_1  and  C_2
REMARK    2  A    between atoms: C_2  and  C_3
REMARK    3  A    between atoms: C_3  and  C_4
REMARK    4  A    between atoms: C_4  and  C_5
REMARK    5  A    between atoms: C_5  and  N_6
REMARK                            x       y       z     vdW  Elec       q    Type
REMARK                         _______ _______ _______ _____ _____    ______ ____
ROOT
ATOM      1  N   UNL     1       4.696   4.716  18.260  0.00  0.00    +0.000 NA
ATOM      2  C   UNL     1       3.943   5.356  17.169  0.00  0.00    +0.000 C 
ATOM      3  C   UNL     1       2.532   5.840  17.570  0.00  0.00    +0.000 C 
ATOM      4  C   UNL     1       2.604   6.740  18.796  0.00  0.00    +0.000 C 
ATOM      5  C   UNL     1       3.243   5.918  19.912  0.00  0.00    +0.000 C 
ATOM      6  C   UNL     1       4.682   5.538  19.480  0.00  0.00    +0.000 C 
ATOM      7  C   UNL     1       2.436   4.658  20.211  0.00  0.00    +0.000 A 
ATOM      8  C   UNL     1       2.463   4.094  21.432  0.00  0.00    +0.000 A 
ATOM      9  C   UNL     1       1.787   2.850  21.685  0.00  0.00    +0.000 A 
ATOM     10  C   UNL     1       1.106   2.237  20.711  0.00  0.00    +0.000 A 
ATOM     11  C   UNL     1       1.010   2.855  19.366  0.00  0.00    +0.000 A 
ATOM     12  O   UNL     1       0.328   2.301  18.505  0.00  0.00    +0.000 OA
ATOM     13  N   UNL     1       1.709   4.052  19.181  0.00  0.00    +0.000 N 
ATOM     14  C   UNL     1       1.576   4.681  17.868  0.00  0.00    +0.000 C 
ENDROOT
BRANCH   1  15
ATOM     15  C   UNL     1       6.043   4.336  17.813  0.00  0.00    +0.000 C 
BRANCH  15  16
ATOM     16  C   UNL     1       6.719   5.301  16.824  0.00  0.00    +0.000 C 
BRANCH  16  17
ATOM     17  C   UNL     1       7.141   4.648  15.504  0.00  0.00    +0.000 C 
BRANCH  17  19
ATOM     18  C   UNL     1       6.157   3.720  13.370  0.00  0.00    +0.000 C 
ATOM     19  C   UNL     1       6.017   4.758  14.471  0.00  0.00    +0.000 C 
ENDBRANCH  17  19
ENDBRANCH  16  17
ENDBRANCH  15  16
ENDBRANCH   1  15
TORSDOF 4
ENDMDL
MODEL 9
REMARK VINA RESULT:      -6.7      2.860      5.839
REMARK  Name = 
REMARK  5 active torsions:
REMARK  status: ('A' for Active; 'I' for Inactive)
REMARK    1  A    between atoms: C_1  and  C_2
REMARK    2  A    between atoms: C_2  and  C_3
REMARK    3  A    between atoms: C_3  and  C_4
REMARK    4  A    between atoms: C_4  and  C_5
REMARK    5  A    between atoms: C_5  and  N_6
REMARK                            x       y       z     vdW  Elec       q    Type
REMARK                         _______ _______ _______ _____ _____    ______ ____
ROOT
ATOM      1  N   UNL     1       2.897   5.456  19.145  0.00  0.00    +0.000 NA
ATOM      2  C   UNL     1       2.320   4.623  18.077  0.00  0.00    +0.000 C 
ATOM      3  C   UNL     1       3.340   3.708  17.365  0.00  0.00    +0.000 C 
ATOM      4  C   UNL     1       4.100   2.863  18.379  0.00  0.00    +0.000 C 
ATOM      5  C   UNL     1       4.797   3.831  19.330  0.00  0.00    +0.000 C 
ATOM      6  C   UNL     1       3.716   4.657  20.070  0.00  0.00    +0.000 C 
ATOM      7  C   UNL     1       5.746   4.762  18.581  0.00  0.00    +0.000 A 
ATOM      8  C   UNL     1       6.822   5.290  19.193  0.00  0.00    +0.000 A 
ATOM      9  C   UNL     1       7.657   6.249  18.521  0.00  0.00    +0.000 A 
ATOM     10  C   UNL     1       7.385   6.625  17.267  0.00  0.00    +0.000 A 
ATOM     11  C   UNL     1       6.238   6.025  16.541  0.00  0.00    +0.000 A 
ATOM     12  O   UNL     1       6.046   6.343  15.368  0.00  0.00    +0.000 OA
ATOM     13  N   UNL     1       5.455   5.118  17.260  0.00  0.00    +0.000 N 
ATOM     14  C   UNL     1       4.352   4.496  16.528  0.00  0.00    +0.000 C 
ENDROOT
BRANCH   1  15
ATOM     15  C   UNL     1       1.854   6.252  19.807  0.00  0.00    +0.000 C 
BRANCH  15  16
ATOM     16  C   UNL     1       1.958   7.775  19.629  0.00  0.00    +0.000 C 
BRANCH  16  17
ATOM     17  C   UNL     1       2.246   8.218  18.191  0.00  0.00    +0.000 C 
BRANCH  17  19
ATOM     18  C   UNL     1       0.358   9.896  18.221  0.00  0.00    +0.000 C 
ATOM     19  C   UNL     1       1.844   9.681  17.992  0.00  0.00    +0.000 C 
ENDBRANCH  17  19
ENDBRANCH  16  17
ENDBRANCH  15  16
ENDBRANCH   1  15
TORSDOF 4
ENDMDL
