MODEL 1
REMARK VINA RESULT:      -7.7      0.000      0.000
REMARK  Name = 
REMARK  20 active torsions:
REMARK  status: ('A' for Active; 'I' for Inactive)
REMARK    1  A    between atoms: C_1  and  C_2
REMARK    2  A    between atoms: C_2  and  C_3
REMARK    3  A    between atoms: C_2  and  C_4
REMARK    4  A    between atoms: C_4  and  C_5
REMARK    5  A    between atoms: C_5  and  O_7
REMARK    6  A    between atoms: O_7  and  C_8
REMARK    7  A    between atoms: C_11  and  C_12
REMARK    8  A    between atoms: C_12  and  O_13
REMARK    9  A    between atoms: C_12  and  C_14
REMARK   10  A    between atoms: C_14  and  N_15
REMARK   11  A    between atoms: N_15  and  C_16
REMARK   12  A    between atoms: C_16  and  C_17
REMARK   13  A    between atoms: C_16  and  C_18
REMARK   14  A    between atoms: C_16  and  C_19
REMARK   15  A    between atoms: C_21  and  O_22
REMARK   16  A    between atoms: O_22  and  C_23
REMARK   17  A    between atoms: C_23  and  C_25
REMARK   18  A    between atoms: C_25  and  C_26
REMARK   19  A    between atoms: C_26  and  C_27
REMARK   20  A    between atoms: C_26  and  C_28
REMARK                            x       y       z     vdW  Elec       q    Type
REMARK                         _______ _______ _______ _____ _____    ______ ____
ROOT
ATOM      1  C   UNL     1       5.216   5.026  16.574  0.00  0.00    +0.000 A 
ATOM      2  C   UNL     1       5.169   6.419  16.422  0.00  0.00    +0.000 A 
ATOM      3  C   UNL     1       4.205   7.178  17.088  0.00  0.00    +0.000 A 
ATOM      4  C   UNL     1       3.280   6.568  17.946  0.00  0.00    +0.000 A 
ATOM      5  C   UNL     1       3.336   5.176  18.093  0.00  0.00    +0.000 A 
ATOM      6  C   UNL     1       4.319   4.408  17.460  0.00  0.00    +0.000 A 
ENDROOT
BRANCH   1   7
ATOM      7  O   UNL     1       6.249   4.301  15.936  0.00  0.00    +0.000 OA
BRANCH   7   8
ATOM      8  C   UNL     1       6.400   4.488  14.553  0.00  0.00    +0.000 C 
ATOM      9  O   UNL     1       7.210   5.227  14.004  0.00  0.00    +0.000 OA
BRANCH   8  10
ATOM     10  C   UNL     1       5.398   3.620  13.812  0.00  0.00    +0.000 C 
BRANCH  10  12
ATOM     11  C   UNL     1       6.625   2.584  11.823  0.00  0.00    +0.000 C 
ATOM     12  C   UNL     1       5.602   3.630  12.280  0.00  0.00    +0.000 C 
ATOM     13  C   UNL     1       4.275   3.382  11.552  0.00  0.00    +0.000 C 
ENDBRANCH  10  12
ENDBRANCH   8  10
ENDBRANCH   7   8
ENDBRANCH   1   7
BRANCH   4  14
ATOM     14  C   UNL     1       2.232   7.415  18.632  0.00  0.00    +0.000 C 
BRANCH  14  15
ATOM     15  O   UNL     1       2.403   7.248  20.045  0.00  0.00    +0.000 OA
ATOM     16  H   UNL     1       2.512   6.293  20.205  0.00  0.00    +0.000 HD
ENDBRANCH  14  15
BRANCH  14  17
ATOM     17  C   UNL     1       2.248   8.939  18.336  0.00  0.00    +0.000 C 
BRANCH  17  18
ATOM     18  N   UNL     1       0.996   9.487  17.796  0.00  0.00    +0.000 NA
ATOM     19  H   UNL     1       0.396   8.727  17.478  0.00  0.00    +0.000 HD
BRANCH  18  20
ATOM     20  C   UNL     1       0.245  10.369  18.714  0.00  0.00    +0.000 C 
ATOM     21  C   UNL     1       0.386   9.903  20.170  0.00  0.00    +0.000 C 
ATOM     22  C   UNL     1       0.861  11.779  18.611  0.00  0.00    +0.000 C 
ATOM     23  C   UNL     1      -1.242  10.460  18.337  0.00  0.00    +0.000 C 
ENDBRANCH  18  20
ENDBRANCH  17  18
ENDBRANCH  14  17
ENDBRANCH   4  14
BRANCH   6  24
ATOM     24  O   UNL     1       4.293   3.010  17.650  0.00  0.00    +0.000 OA
BRANCH  24  25
ATOM     25  C   UNL     1       3.060   2.483  18.070  0.00  0.00    +0.000 C 
ATOM     26  O   UNL     1       2.118   2.213  17.337  0.00  0.00    +0.000 OA
BRANCH  25  27
ATOM     27  C   UNL     1       3.051   2.306  19.581  0.00  0.00    +0.000 C 
BRANCH  27  28
ATOM     28  C   UNL     1       1.704   2.555  20.302  0.00  0.00    +0.000 C 
ATOM     29  C   UNL     1       1.792   2.520  21.829  0.00  0.00    +0.000 C 
ATOM     30  C   UNL     1       1.003   3.830  19.830  0.00  0.00    +0.000 C 
ENDBRANCH  27  28
ENDBRANCH  25  27
ENDBRANCH  24  25
ENDBRANCH   6  24
TORSDOF 13
ENDMDL
MODEL 2
REMARK VINA RESULT:      -7.4      1.964      3.040
REMARK  Name = 
REMARK  20 active torsions:
REMARK  status: ('A' for Active; 'I' for Inactive)
REMARK    1  A    between atoms: C_1  and  C_2
REMARK    2  A    between atoms: C_2  and  C_3
REMARK    3  A    between atoms: C_2  and  C_4
REMARK    4  A    between atoms: C_4  and  C_5
REMARK    5  A    between atoms: C_5  and  O_7
REMARK    6  A    between atoms: O_7  and  C_8
REMARK    7  A    between atoms: C_11  and  C_12
REMARK    8  A    between atoms: C_12  and  O_13
REMARK    9  A    between atoms: C_12  and  C_14
REMARK   10  A    between atoms: C_14  and  N_15
REMARK   11  A    between atoms: N_15  and  C_16
REMARK   12  A    between atoms: C_16  and  C_17
REMARK   13  A    between atoms: C_16  and  C_18
REMARK   14  A    between atoms: C_16  and  C_19
REMARK   15  A    between atoms: C_21  and  O_22
REMARK   16  A    between atoms: O_22  and  C_23
REMARK   17  A    between atoms: C_23  and  C_25
REMARK   18  A    between atoms: C_25  and  C_26
REMARK   19  A    between atoms: C_26  and  C_27
REMARK   20  A    between atoms: C_26  and  C_28
REMARK                            x       y       z     vdW  Elec       q    Type
REMARK                         _______ _______ _______ _____ _____    ______ ____
ROOT
ATOM      1  C   UNL     1       4.733   5.291  16.998  0.00  0.00    +0.000 A 
ATOM      2  C   UNL     1       4.363   6.550  16.503  0.00  0.00    +0.000 A 
ATOM      3  C   UNL     1       3.467   7.358  17.206  0.00  0.00    +0.000 A 
ATOM      4  C   UNL     1       2.939   6.942  18.436  0.00  0.00    +0.000 A 
ATOM      5  C   UNL     1       3.316   5.684  18.923  0.00  0.00    +0.000 A 
ATOM      6  C   UNL     1       4.240   4.879  18.247  0.00  0.00    +0.000 A 
ENDROOT
BRANCH   1   7
ATOM      7  O   UNL     1       5.693   4.532  16.291  0.00  0.00    +0.000 OA
BRANCH   7   8
ATOM      8  C   UNL     1       7.008   5.023  16.273  0.00  0.00    +0.000 C 
ATOM      9  O   UNL     1       7.526   5.680  15.376  0.00  0.00    +0.000 OA
BRANCH   8  10
ATOM     10  C   UNL     1       7.717   4.622  17.555  0.00  0.00    +0.000 C 
BRANCH  10  12
ATOM     11  C   UNL     1       7.577   7.155  17.870  0.00  0.00    +0.000 C 
ATOM     12  C   UNL     1       8.019   5.821  18.482  0.00  0.00    +0.000 C 
ATOM     13  C   UNL     1       7.334   5.645  19.843  0.00  0.00    +0.000 C 
ENDBRANCH  10  12
ENDBRANCH   8  10
ENDBRANCH   7   8
ENDBRANCH   1   7
BRANCH   4  14
ATOM     14  C   UNL     1       1.952   7.830  19.159  0.00  0.00    +0.000 C 
BRANCH  14  15
ATOM     15  O   UNL     1       2.262   7.768  20.557  0.00  0.00    +0.000 OA
ATOM     16  H   UNL     1       2.401   8.685  20.855  0.00  0.00    +0.000 HD
ENDBRANCH  14  15
BRANCH  14  17
ATOM     17  C   UNL     1       1.917   9.328  18.753  0.00  0.00    +0.000 C 
BRANCH  17  18
ATOM     18  N   UNL     1       0.762   9.732  17.939  0.00  0.00    +0.000 NA
ATOM     19  H   UNL     1       0.320   8.906  17.536  0.00  0.00    +0.000 HD
BRANCH  18  20
ATOM     20  C   UNL     1      -0.249  10.552  18.639  0.00  0.00    +0.000 C 
ATOM     21  C   UNL     1       0.176  12.026  18.697  0.00  0.00    +0.000 C 
ATOM     22  C   UNL     1      -1.555  10.473  17.823  0.00  0.00    +0.000 C 
ATOM     23  C   UNL     1      -0.530  10.034  20.057  0.00  0.00    +0.000 C 
ENDBRANCH  18  20
ENDBRANCH  17  18
ENDBRANCH  14  17
ENDBRANCH   4  14
BRANCH   6  24
ATOM     24  O   UNL     1       4.553   3.620  18.800  0.00  0.00    +0.000 OA
BRANCH  24  25
ATOM     25  C   UNL     1       3.608   2.607  18.561  0.00  0.00    +0.000 C 
ATOM     26  O   UNL     1       3.314   2.158  17.461  0.00  0.00    +0.000 OA
BRANCH  25  27
ATOM     27  C   UNL     1       2.983   2.150  19.871  0.00  0.00    +0.000 C 
BRANCH  27  28
ATOM     28  C   UNL     1       1.811   3.003  20.416  0.00  0.00    +0.000 C 
ATOM     29  C   UNL     1       0.586   3.046  19.500  0.00  0.00    +0.000 C 
ATOM     30  C   UNL     1       1.408   2.620  21.841  0.00  0.00    +0.000 C 
ENDBRANCH  27  28
ENDBRANCH  25  27
ENDBRANCH  24  25
ENDBRANCH   6  24
TORSDOF 13
ENDMDL
MODEL 3
REMARK VINA RESULT:      -7.4      1.995      2.961
REMARK  Name = 
REMARK  20 active torsions:
REMARK  status: ('A' for Active; 'I' for Inactive)
REMARK    1  A    between atoms: C_1  and  C_2
REMARK    2  A    between atoms: C_2  and  C_3
REMARK    3  A    between atoms: C_2  and  C_4
REMARK    4  A    between atoms: C_4  and  C_5
REMARK    5  A    between atoms: C_5  and  O_7
REMARK    6  A    between atoms: O_7  and  C_8
REMARK    7  A    between atoms: C_11  and  C_12
REMARK    8  A    between atoms: C_12  and  O_13
REMARK    9  A    between atoms: C_12  and  C_14
REMARK   10  A    between atoms: C_14  and  N_15
REMARK   11  A    between atoms: N_15  and  C_16
REMARK   12  A    between atoms: C_16  and  C_17
REMARK   13  A    between atoms: C_16  and  C_18
REMARK   14  A    between atoms: C_16  and  C_19
REMARK   15  A    between atoms: C_21  and  O_22
REMARK   16  A    between atoms: O_22  and  C_23
REMARK   17  A    between atoms: C_23  and  C_25
REMARK   18  A    between atoms: C_25  and  C_26
REMARK   19  A    between atoms: C_26  and  C_27
REMARK   20  A    between atoms: C_26  and  C_28
REMARK                            x       y       z     vdW  Elec       q    Type
REMARK                         _______ _______ _______ _____ _____    ______ ____
ROOT
ATOM      1  C   UNL     1       4.592   5.374  16.701  0.00  0.00    +0.000 A 
ATOM      2  C   UNL     1       4.738   6.768  16.654  0.00  0.00    +0.000 A 
ATOM      3  C   UNL     1       3.806   7.604  17.269  0.00  0.00    +0.000 A 
ATOM      4  C   UNL     1       2.718   7.070  17.973  0.00  0.00    +0.000 A 
ATOM      5  C   UNL     1       2.582   5.678  18.016  0.00  0.00    +0.000 A 
ATOM      6  C   UNL     1       3.528   4.826  17.435  0.00  0.00    +0.000 A 
ENDROOT
BRANCH   1   7
ATOM      7  O   UNL     1       5.593   4.560  16.122  0.00  0.00    +0.000 OA
BRANCH   7   8
ATOM      8  C   UNL     1       6.917   5.021  16.204  0.00  0.00    +0.000 C 
ATOM      9  O   UNL     1       7.478   5.763  15.406  0.00  0.00    +0.000 OA
BRANCH   8  10
ATOM     10  C   UNL     1       7.572   4.461  17.455  0.00  0.00    +0.000 C 
BRANCH  10  12
ATOM     11  C   UNL     1       7.793   6.928  18.086  0.00  0.00    +0.000 C 
ATOM     12  C   UNL     1       7.667   5.490  18.603  0.00  0.00    +0.000 C 
ATOM     13  C   UNL     1       6.444   5.396  19.524  0.00  0.00    +0.000 C 
ENDBRANCH  10  12
ENDBRANCH   8  10
ENDBRANCH   7   8
ENDBRANCH   1   7
BRANCH   4  14
ATOM     14  C   UNL     1       1.712   8.005  18.607  0.00  0.00    +0.000 C 
BRANCH  14  15
ATOM     15  O   UNL     1       1.991   8.047  20.012  0.00  0.00    +0.000 OA
ATOM     16  H   UNL     1       1.134   8.135  20.467  0.00  0.00    +0.000 HD
ENDBRANCH  14  15
BRANCH  14  17
ATOM     17  C   UNL     1       1.682   9.469  18.091  0.00  0.00    +0.000 C 
BRANCH  17  18
ATOM     18  N   UNL     1       0.344  10.018  17.837  0.00  0.00    +0.000 NA
ATOM     19  H   UNL     1      -0.344   9.265  17.838  0.00  0.00    +0.000 HD
BRANCH  18  20
ATOM     20  C   UNL     1      -0.085  11.092  18.757  0.00  0.00    +0.000 C 
ATOM     21  C   UNL     1       1.002  12.165  18.902  0.00  0.00    +0.000 C 
ATOM     22  C   UNL     1      -1.328  11.764  18.138  0.00  0.00    +0.000 C 
ATOM     23  C   UNL     1      -0.467  10.546  20.141  0.00  0.00    +0.000 C 
ENDBRANCH  18  20
ENDBRANCH  17  18
ENDBRANCH  14  17
ENDBRANCH   4  14
BRANCH   6  24
ATOM     24  O   UNL     1       3.306   3.435  17.511  0.00  0.00    +0.000 OA
BRANCH  24  25
ATOM     25  C   UNL     1       2.455   3.019  18.550  0.00  0.00    +0.000 C 
ATOM     26  O   UNL     1       1.245   2.857  18.454  0.00  0.00    +0.000 OA
BRANCH  25  27
ATOM     27  C   UNL     1       3.250   2.808  19.830  0.00  0.00    +0.000 C 
BRANCH  27  28
ATOM     28  C   UNL     1       2.613   3.334  21.139  0.00  0.00    +0.000 C 
ATOM     29  C   UNL     1       2.159   4.795  21.074  0.00  0.00    +0.000 C 
ATOM     30  C   UNL     1       1.484   2.440  21.654  0.00  0.00    +0.000 C 
ENDBRANCH  27  28
ENDBRANCH  25  27
ENDBRANCH  24  25
ENDBRANCH   6  24
TORSDOF 13
ENDMDL
MODEL 4
REMARK VINA RESULT:      -7.4      1.930      5.448
REMARK  Name = 
REMARK  20 active torsions:
REMARK  status: ('A' for Active; 'I' for Inactive)
REMARK    1  A    between atoms: C_1  and  C_2
REMARK    2  A    between atoms: C_2  and  C_3
REMARK    3  A    between atoms: C_2  and  C_4
REMARK    4  A    between atoms: C_4  and  C_5
REMARK    5  A    between atoms: C_5  and  O_7
REMARK    6  A    between atoms: O_7  and  C_8
REMARK    7  A    between atoms: C_11  and  C_12
REMARK    8  A    between atoms: C_12  and  O_13
REMARK    9  A    between atoms: C_12  and  C_14
REMARK   10  A    between atoms: C_14  and  N_15
REMARK   11  A    between atoms: N_15  and  C_16
REMARK   12  A    between atoms: C_16  and  C_17
REMARK   13  A    between atoms: C_16  and  C_18
REMARK   14  A    between atoms: C_16  and  C_19
REMARK   15  A    between atoms: C_21  and  O_22
REMARK   16  A    between atoms: O_22  and  C_23
REMARK   17  A    between atoms: C_23  and  C_25
REMARK   18  A    between atoms: C_25  and  C_26
REMARK   19  A    between atoms: C_26  and  C_27
REMARK   20  A    between atoms: C_26  and  C_28
REMARK                            x       y       z     vdW  Elec       q    Type
REMARK                         _______ _______ _______ _____ _____    ______ ____
ROOT
ATOM      1  C   UNL     1       3.470   6.113  18.826  0.00  0.00    +0.000 A 
ATOM      2  C   UNL     1       2.584   6.494  19.844  0.00  0.00    +0.000 A 
ATOM      3  C   UNL     1       1.910   7.715  19.784  0.00  0.00    +0.000 A 
ATOM      4  C   UNL     1       2.083   8.577  18.692  0.00  0.00    +0.000 A 
ATOM      5  C   UNL     1       2.969   8.187  17.680  0.00  0.00    +0.000 A 
ATOM      6  C   UNL     1       3.623   6.950  17.709  0.00  0.00    +0.000 A 
ENDROOT
BRANCH   1   7
ATOM      7  O   UNL     1       4.081   4.840  18.890  0.00  0.00    +0.000 OA
BRANCH   7   8
ATOM      8  C   UNL     1       3.352   3.756  18.376  0.00  0.00    +0.000 C 
ATOM      9  O   UNL     1       2.825   3.695  17.271  0.00  0.00    +0.000 OA
BRANCH   8  10
ATOM     10  C   UNL     1       3.312   2.638  19.404  0.00  0.00    +0.000 C 
BRANCH  10  12
ATOM     11  C   UNL     1       2.191   3.185  21.635  0.00  0.00    +0.000 C 
ATOM     12  C   UNL     1       2.003   2.615  20.224  0.00  0.00    +0.000 C 
ATOM     13  C   UNL     1       0.897   3.403  19.510  0.00  0.00    +0.000 C 
ENDBRANCH  10  12
ENDBRANCH   8  10
ENDBRANCH   7   8
ENDBRANCH   1   7
BRANCH   4  14
ATOM     14  C   UNL     1       1.359   9.903  18.671  0.00  0.00    +0.000 C 
BRANCH  14  15
ATOM     15  O   UNL     1       1.808  10.619  17.512  0.00  0.00    +0.000 OA
ATOM     16  H   UNL     1       1.795  11.565  17.744  0.00  0.00    +0.000 HD
ENDBRANCH  14  15
BRANCH  14  17
ATOM     17  C   UNL     1      -0.192   9.864  18.624  0.00  0.00    +0.000 C 
BRANCH  17  18
ATOM     18  N   UNL     1      -0.784   9.984  17.285  0.00  0.00    +0.000 NA
ATOM     19  H   UNL     1      -0.751   9.082  16.811  0.00  0.00    +0.000 HD
BRANCH  18  20
ATOM     20  C   UNL     1      -2.160  10.521  17.248  0.00  0.00    +0.000 C 
ATOM     21  C   UNL     1      -3.159   9.529  17.861  0.00  0.00    +0.000 C 
ATOM     22  C   UNL     1      -2.183  11.800  18.109  0.00  0.00    +0.000 C 
ATOM     23  C   UNL     1      -2.598  10.887  15.822  0.00  0.00    +0.000 C 
ENDBRANCH  18  20
ENDBRANCH  17  18
ENDBRANCH  14  17
ENDBRANCH   4  14
BRANCH   6  24
ATOM     24  O   UNL     1       4.511   6.643  16.656  0.00  0.00    +0.000 OA
BRANCH  24  25
ATOM     25  C   UNL     1       5.876   6.782  16.962  0.00  0.00    +0.000 C 
ATOM     26  O   UNL     1       6.387   7.758  17.496  0.00  0.00    +0.000 OA
BRANCH  25  27
ATOM     27  C   UNL     1       6.643   5.544  16.521  0.00  0.00    +0.000 C 
BRANCH  27  28
ATOM     28  C   UNL     1       6.192   4.883  15.196  0.00  0.00    +0.000 C 
ATOM     29  C   UNL     1       7.216   4.983  14.063  0.00  0.00    +0.000 C 
ATOM     30  C   UNL     1       5.728   3.437  15.378  0.00  0.00    +0.000 C 
ENDBRANCH  27  28
ENDBRANCH  25  27
ENDBRANCH  24  25
ENDBRANCH   6  24
TORSDOF 13
ENDMDL
MODEL 5
REMARK VINA RESULT:      -7.3      0.949      1.554
REMARK  Name = 
REMARK  20 active torsions:
REMARK  status: ('A' for Active; 'I' for Inactive)
REMARK    1  A    between atoms: C_1  and  C_2
REMARK    2  A    between atoms: C_2  and  C_3
REMARK    3  A    between atoms: C_2  and  C_4
REMARK    4  A    between atoms: C_4  and  C_5
REMARK    5  A    between atoms: C_5  and  O_7
REMARK    6  A    between atoms: O_7  and  C_8
REMARK    7  A    between atoms: C_11  and  C_12
REMARK    8  A    between atoms: C_12  and  O_13
REMARK    9  A    between atoms: C_12  and  C_14
REMARK   10  A    between atoms: C_14  and  N_15
REMARK   11  A    between atoms: N_15  and  C_16
REMARK   12  A    between atoms: C_16  and  C_17
REMARK   13  A    between atoms: C_16  and  C_18
REMARK   14  A    between atoms: C_16  and  C_19
REMARK   15  A    between atoms: C_21  and  O_22
REMARK   16  A    between atoms: O_22  and  C_23
REMARK   17  A    between atoms: C_23  and  C_25
REMARK   18  A    between atoms: C_25  and  C_26
REMARK   19  A    between atoms: C_26  and  C_27
REMARK   20  A    between atoms: C_26  and  C_28
REMARK                            x       y       z     vdW  Elec       q    Type
REMARK                         _______ _______ _______ _____ _____    ______ ____
ROOT
ATOM      1  C   UNL     1       4.735   4.882  16.744  0.00  0.00    +0.000 A 
ATOM      2  C   UNL     1       4.879   6.265  16.556  0.00  0.00    +0.000 A 
ATOM      3  C   UNL     1       4.051   7.166  17.227  0.00  0.00    +0.000 A 
ATOM      4  C   UNL     1       3.074   6.712  18.124  0.00  0.00    +0.000 A 
ATOM      5  C   UNL     1       2.939   5.330  18.305  0.00  0.00    +0.000 A 
ATOM      6  C   UNL     1       3.786   4.417  17.668  0.00  0.00    +0.000 A 
ENDROOT
BRANCH   1   7
ATOM      7  O   UNL     1       5.638   4.005  16.099  0.00  0.00    +0.000 OA
BRANCH   7   8
ATOM      8  C   UNL     1       6.859   4.549  15.669  0.00  0.00    +0.000 C 
ATOM      9  O   UNL     1       7.899   4.597  16.317  0.00  0.00    +0.000 OA
BRANCH   8  10
ATOM     10  C   UNL     1       6.709   5.075  14.253  0.00  0.00    +0.000 C 
BRANCH  10  12
ATOM     11  C   UNL     1       5.225   3.467  12.933  0.00  0.00    +0.000 C 
ATOM     12  C   UNL     1       6.655   3.954  13.191  0.00  0.00    +0.000 C 
ATOM     13  C   UNL     1       7.268   4.426  11.867  0.00  0.00    +0.000 C 
ENDBRANCH  10  12
ENDBRANCH   8  10
ENDBRANCH   7   8
ENDBRANCH   1   7
BRANCH   4  14
ATOM     14  C   UNL     1       2.176   7.713  18.813  0.00  0.00    +0.000 C 
BRANCH  14  15
ATOM     15  O   UNL     1       2.474   7.663  20.215  0.00  0.00    +0.000 OA
ATOM     16  H   UNL     1       1.620   7.631  20.683  0.00  0.00    +0.000 HD
ENDBRANCH  14  15
BRANCH  14  17
ATOM     17  C   UNL     1       2.290   9.195  18.364  0.00  0.00    +0.000 C 
BRANCH  17  18
ATOM     18  N   UNL     1       1.075   9.765  17.765  0.00  0.00    +0.000 NA
ATOM     19  H   UNL     1       0.486   9.016  17.402  0.00  0.00    +0.000 HD
BRANCH  18  20
ATOM     20  C   UNL     1       0.283  10.641  18.653  0.00  0.00    +0.000 C 
ATOM     21  C   UNL     1       0.815  12.081  18.630  0.00  0.00    +0.000 C 
ATOM     22  C   UNL     1      -1.161  10.666  18.113  0.00  0.00    +0.000 C 
ATOM     23  C   UNL     1       0.252  10.120  20.098  0.00  0.00    +0.000 C 
ENDBRANCH  18  20
ENDBRANCH  17  18
ENDBRANCH  14  17
ENDBRANCH   4  14
BRANCH   6  24
ATOM     24  O   UNL     1       3.571   3.041  17.896  0.00  0.00    +0.000 OA
BRANCH  24  25
ATOM     25  C   UNL     1       3.890   2.589  19.188  0.00  0.00    +0.000 C 
ATOM     26  O   UNL     1       4.924   2.841  19.792  0.00  0.00    +0.000 OA
BRANCH  25  27
ATOM     27  C   UNL     1       2.765   1.721  19.734  0.00  0.00    +0.000 C 
BRANCH  27  28
ATOM     28  C   UNL     1       1.607   2.456  20.451  0.00  0.00    +0.000 C 
ATOM     29  C   UNL     1       2.061   3.481  21.492  0.00  0.00    +0.000 C 
ATOM     30  C   UNL     1       0.604   3.080  19.478  0.00  0.00    +0.000 C 
ENDBRANCH  27  28
ENDBRANCH  25  27
ENDBRANCH  24  25
ENDBRANCH   6  24
TORSDOF 13
ENDMDL
MODEL 6
REMARK VINA RESULT:      -7.3      3.247      7.043
REMARK  Name = 
REMARK  20 active torsions:
REMARK  status: ('A' for Active; 'I' for Inactive)
REMARK    1  A    between atoms: C_1  and  C_2
REMARK    2  A    between atoms: C_2  and  C_3
REMARK    3  A    between atoms: C_2  and  C_4
REMARK    4  A    between atoms: C_4  and  C_5
REMARK    5  A    between atoms: C_5  and  O_7
REMARK    6  A    between atoms: O_7  and  C_8
REMARK    7  A    between atoms: C_11  and  C_12
REMARK    8  A    between atoms: C_12  and  O_13
REMARK    9  A    between atoms: C_12  and  C_14
REMARK   10  A    between atoms: C_14  and  N_15
REMARK   11  A    between atoms: N_15  and  C_16
REMARK   12  A    between atoms: C_16  and  C_17
REMARK   13  A    between atoms: C_16  and  C_18
REMARK   14  A    between atoms: C_16  and  C_19
REMARK   15  A    between atoms: C_21  and  O_22
REMARK   16  A    between atoms: O_22  and  C_23
REMARK   17  A    between atoms: C_23  and  C_25
REMARK   18  A    between atoms: C_25  and  C_26
REMARK   19  A    between atoms: C_26  and  C_27
REMARK   20  A    between atoms: C_26  and  C_28
REMARK                            x       y       z     vdW  Elec       q    Type
REMARK                         _______ _______ _______ _____ _____    ______ ____
ROOT
ATOM      1  C   UNL     1       6.463   6.605  16.772  0.00  0.00    +0.000 A 
ATOM      2  C   UNL     1       5.378   6.792  17.639  0.00  0.00    +0.000 A 
ATOM      3  C   UNL     1       4.384   5.819  17.759  0.00  0.00    +0.000 A 
ATOM      4  C   UNL     1       4.463   4.621  17.036  0.00  0.00    +0.000 A 
ATOM      5  C   UNL     1       5.552   4.443  16.173  0.00  0.00    +0.000 A 
ATOM      6  C   UNL     1       6.573   5.393  16.071  0.00  0.00    +0.000 A 
ENDROOT
BRANCH   1   7
ATOM      7  O   UNL     1       7.483   7.584  16.729  0.00  0.00    +0.000 OA
BRANCH   7   8
ATOM      8  C   UNL     1       8.031   7.988  17.957  0.00  0.00    +0.000 C 
ATOM      9  O   UNL     1       8.444   7.251  18.846  0.00  0.00    +0.000 OA
BRANCH   8  10
ATOM     10  C   UNL     1       8.048   9.505  18.030  0.00  0.00    +0.000 C 
BRANCH  10  12
ATOM     11  C   UNL     1       9.846  11.312  17.849  0.00  0.00    +0.000 C 
ATOM     12  C   UNL     1       9.364  10.071  18.608  0.00  0.00    +0.000 C 
ATOM     13  C   UNL     1       9.201  10.424  20.092  0.00  0.00    +0.000 C 
ENDBRANCH  10  12
ENDBRANCH   8  10
ENDBRANCH   7   8
ENDBRANCH   1   7
BRANCH   4  14
ATOM     14  C   UNL     1       3.357   3.599  17.168  0.00  0.00    +0.000 C 
BRANCH  14  15
ATOM     15  O   UNL     1       3.953   2.376  17.619  0.00  0.00    +0.000 OA
ATOM     16  H   UNL     1       4.859   2.356  17.260  0.00  0.00    +0.000 HD
ENDBRANCH  14  15
BRANCH  14  17
ATOM     17  C   UNL     1       2.192   3.937  18.138  0.00  0.00    +0.000 C 
BRANCH  17  18
ATOM     18  N   UNL     1       1.912   2.921  19.162  0.00  0.00    +0.000 NA
ATOM     19  H   UNL     1       2.317   2.028  18.880  0.00  0.00    +0.000 HD
BRANCH  18  20
ATOM     20  C   UNL     1       2.354   3.263  20.530  0.00  0.00    +0.000 C 
ATOM     21  C   UNL     1       2.402   4.784  20.732  0.00  0.00    +0.000 C 
ATOM     22  C   UNL     1       1.309   2.694  21.510  0.00  0.00    +0.000 C 
ATOM     23  C   UNL     1       3.721   2.648  20.865  0.00  0.00    +0.000 C 
ENDBRANCH  18  20
ENDBRANCH  17  18
ENDBRANCH  14  17
ENDBRANCH   4  14
BRANCH   6  24
ATOM     24  O   UNL     1       7.627   5.142  15.166  0.00  0.00    +0.000 OA
BRANCH  24  25
ATOM     25  C   UNL     1       7.233   4.905  13.837  0.00  0.00    +0.000 C 
ATOM     26  O   UNL     1       7.679   5.479  12.853  0.00  0.00    +0.000 OA
BRANCH  25  27
ATOM     27  C   UNL     1       6.154   3.833  13.791  0.00  0.00    +0.000 C 
BRANCH  27  28
ATOM     28  C   UNL     1       5.949   3.111  12.437  0.00  0.00    +0.000 C 
ATOM     29  C   UNL     1       4.749   3.614  11.631  0.00  0.00    +0.000 C 
ATOM     30  C   UNL     1       7.212   3.095  11.573  0.00  0.00    +0.000 C 
ENDBRANCH  27  28
ENDBRANCH  25  27
ENDBRANCH  24  25
ENDBRANCH   6  24
TORSDOF 13
ENDMDL
MODEL 7
REMARK VINA RESULT:      -7.3      2.787      3.913
REMARK  Name = 
REMARK  20 active torsions:
REMARK  status: ('A' for Active; 'I' for Inactive)
REMARK    1  A    between atoms: C_1  and  C_2
REMARK    2  A    between atoms: C_2  and  C_3
REMARK    3  A    between atoms: C_2  and  C_4
REMARK    4  A    between atoms: C_4  and  C_5
REMARK    5  A    between atoms: C_5  and  O_7
REMARK    6  A    between atoms: O_7  and  C_8
REMARK    7  A    between atoms: C_11  and  C_12
REMARK    8  A    between atoms: C_12  and  O_13
REMARK    9  A    between atoms: C_12  and  C_14
REMARK   10  A    between atoms: C_14  and  N_15
REMARK   11  A    between atoms: N_15  and  C_16
REMARK   12  A    between atoms: C_16  and  C_17
REMARK   13  A    between atoms: C_16  and  C_18
REMARK   14  A    between atoms: C_16  and  C_19
REMARK   15  A    between atoms: C_21  and  O_22
REMARK   16  A    between atoms: O_22  and  C_23
REMARK   17  A    between atoms: C_23  and  C_25
REMARK   18  A    between atoms: C_25  and  C_26
REMARK   19  A    between atoms: C_26  and  C_27
REMARK   20  A    between atoms: C_26  and  C_28
REMARK                            x       y       z     vdW  Elec       q    Type
REMARK                         _______ _______ _______ _____ _____    ______ ____
ROOT
ATOM      1  C   UNL     1       3.413   6.352  18.198  0.00  0.00    +0.000 A 
ATOM      2  C   UNL     1       2.877   7.613  17.900  0.00  0.00    +0.000 A 
ATOM      3  C   UNL     1       2.081   8.288  18.827  0.00  0.00    +0.000 A 
ATOM      4  C   UNL     1       1.821   7.733  20.087  0.00  0.00    +0.000 A 
ATOM      5  C   UNL     1       2.361   6.474  20.376  0.00  0.00    +0.000 A 
ATOM      6  C   UNL     1       3.191   5.803  19.472  0.00  0.00    +0.000 A 
ENDROOT
BRANCH   1   7
ATOM      7  O   UNL     1       4.270   5.731  17.260  0.00  0.00    +0.000 OA
BRANCH   7   8
ATOM      8  C   UNL     1       5.202   6.552  16.607  0.00  0.00    +0.000 C 
ATOM      9  O   UNL     1       5.087   7.031  15.483  0.00  0.00    +0.000 OA
BRANCH   8  10
ATOM     10  C   UNL     1       6.402   6.776  17.510  0.00  0.00    +0.000 C 
BRANCH  10  12
ATOM     11  C   UNL     1       7.569   4.521  17.220  0.00  0.00    +0.000 C 
ATOM     12  C   UNL     1       6.891   5.483  18.201  0.00  0.00    +0.000 C 
ATOM     13  C   UNL     1       7.867   5.808  19.338  0.00  0.00    +0.000 C 
ENDBRANCH  10  12
ENDBRANCH   8  10
ENDBRANCH   7   8
ENDBRANCH   1   7
BRANCH   4  14
ATOM     14  C   UNL     1       0.932   8.478  21.057  0.00  0.00    +0.000 C 
BRANCH  14  15
ATOM     15  O   UNL     1       1.754   8.903  22.152  0.00  0.00    +0.000 OA
ATOM     16  H   UNL     1       1.185   8.919  22.942  0.00  0.00    +0.000 HD
ENDBRANCH  14  15
BRANCH  14  17
ATOM     17  C   UNL     1       0.186   9.729  20.519  0.00  0.00    +0.000 C 
BRANCH  17  18
ATOM     18  N   UNL     1       0.645  11.015  21.061  0.00  0.00    +0.000 NA
ATOM     19  H   UNL     1       1.210  11.500  20.365  0.00  0.00    +0.000 HD
BRANCH  18  20
ATOM     20  C   UNL     1      -0.423  11.910  21.553  0.00  0.00    +0.000 C 
ATOM     21  C   UNL     1       0.104  13.336  21.767  0.00  0.00    +0.000 C 
ATOM     22  C   UNL     1      -1.514  11.973  20.464  0.00  0.00    +0.000 C 
ATOM     23  C   UNL     1      -1.060  11.389  22.850  0.00  0.00    +0.000 C 
ENDBRANCH  18  20
ENDBRANCH  17  18
ENDBRANCH  14  17
ENDBRANCH   4  14
BRANCH   6  24
ATOM     24  O   UNL     1       3.681   4.531  19.837  0.00  0.00    +0.000 OA
BRANCH  24  25
ATOM     25  C   UNL     1       2.721   3.642  20.351  0.00  0.00    +0.000 C 
ATOM     26  O   UNL     1       2.668   3.246  21.508  0.00  0.00    +0.000 OA
BRANCH  25  27
ATOM     27  C   UNL     1       1.752   3.224  19.254  0.00  0.00    +0.000 C 
BRANCH  27  28
ATOM     28  C   UNL     1       2.314   2.300  18.146  0.00  0.00    +0.000 C 
ATOM     29  C   UNL     1       2.649   3.020  16.838  0.00  0.00    +0.000 C 
ATOM     30  C   UNL     1       3.499   1.456  18.618  0.00  0.00    +0.000 C 
ENDBRANCH  27  28
ENDBRANCH  25  27
ENDBRANCH  24  25
ENDBRANCH   6  24
TORSDOF 13
ENDMDL
MODEL 8
REMARK VINA RESULT:      -7.3      2.004      2.935
REMARK  Name = 
REMARK  20 active torsions:
REMARK  status: ('A' for Active; 'I' for Inactive)
REMARK    1  A    between atoms: C_1  and  C_2
REMARK    2  A    between atoms: C_2  and  C_3
REMARK    3  A    between atoms: C_2  and  C_4
REMARK    4  A    between atoms: C_4  and  C_5
REMARK    5  A    between atoms: C_5  and  O_7
REMARK    6  A    between atoms: O_7  and  C_8
REMARK    7  A    between atoms: C_11  and  C_12
REMARK    8  A    between atoms: C_12  and  O_13
REMARK    9  A    between atoms: C_12  and  C_14
REMARK   10  A    between atoms: C_14  and  N_15
REMARK   11  A    between atoms: N_15  and  C_16
REMARK   12  A    between atoms: C_16  and  C_17
REMARK   13  A    between atoms: C_16  and  C_18
REMARK   14  A    between atoms: C_16  and  C_19
REMARK   15  A    between atoms: C_21  and  O_22
REMARK   16  A    between atoms: O_22  and  C_23
REMARK   17  A    between atoms: C_23  and  C_25
REMARK   18  A    between atoms: C_25  and  C_26
REMARK   19  A    between atoms: C_26  and  C_27
REMARK   20  A    between atoms: C_26  and  C_28
REMARK                            x       y       z     vdW  Elec       q    Type
REMARK                         _______ _______ _______ _____ _____    ______ ____
ROOT
ATOM      1  C   UNL     1       4.584   5.470  16.802  0.00  0.00    +0.000 A 
ATOM      2  C   UNL     1       4.437   6.840  16.538  0.00  0.00    +0.000 A 
ATOM      3  C   UNL     1       3.540   7.616  17.274  0.00  0.00    +0.000 A 
ATOM      4  C   UNL     1       2.787   7.051  18.311  0.00  0.00    +0.000 A 
ATOM      5  C   UNL     1       2.942   5.683  18.568  0.00  0.00    +0.000 A 
ATOM      6  C   UNL     1       3.863   4.901  17.864  0.00  0.00    +0.000 A 
ENDROOT
BRANCH   1   7
ATOM      7  O   UNL     1       5.552   4.734  16.080  0.00  0.00    +0.000 OA
BRANCH   7   8
ATOM      8  C   UNL     1       6.896   5.098  16.258  0.00  0.00    +0.000 C 
ATOM      9  O   UNL     1       7.603   5.684  15.445  0.00  0.00    +0.000 OA
BRANCH   8  10
ATOM     10  C   UNL     1       7.362   4.660  17.635  0.00  0.00    +0.000 C 
BRANCH  10  12
ATOM     11  C   UNL     1       7.551   7.186  17.973  0.00  0.00    +0.000 C 
ATOM     12  C   UNL     1       8.006   5.803  18.451  0.00  0.00    +0.000 C 
ATOM     13  C   UNL     1       7.683   5.659  19.943  0.00  0.00    +0.000 C 
ENDBRANCH  10  12
ENDBRANCH   8  10
ENDBRANCH   7   8
ENDBRANCH   1   7
BRANCH   4  14
ATOM     14  C   UNL     1       1.805   7.913  19.072  0.00  0.00    +0.000 C 
BRANCH  14  15
ATOM     15  O   UNL     1       2.255   7.981  20.431  0.00  0.00    +0.000 OA
ATOM     16  H   UNL     1       3.217   8.134  20.402  0.00  0.00    +0.000 HD
ENDBRANCH  14  15
BRANCH  14  17
ATOM     17  C   UNL     1       1.606   9.370  18.572  0.00  0.00    +0.000 C 
BRANCH  17  18
ATOM     18  N   UNL     1       1.318  10.360  19.619  0.00  0.00    +0.000 NA
ATOM     19  H   UNL     1       2.066  11.051  19.654  0.00  0.00    +0.000 HD
BRANCH  18  20
ATOM     20  C   UNL     1       0.010  11.038  19.504  0.00  0.00    +0.000 C 
ATOM     21  C   UNL     1      -0.744  11.019  20.841  0.00  0.00    +0.000 C 
ATOM     22  C   UNL     1       0.283  12.512  19.142  0.00  0.00    +0.000 C 
ATOM     23  C   UNL     1      -0.865  10.421  18.403  0.00  0.00    +0.000 C 
ENDBRANCH  18  20
ENDBRANCH  17  18
ENDBRANCH  14  17
ENDBRANCH   4  14
BRANCH   6  24
ATOM     24  O   UNL     1       3.945   3.527  18.176  0.00  0.00    +0.000 OA
BRANCH  24  25
ATOM     25  C   UNL     1       2.784   2.781  17.910  0.00  0.00    +0.000 C 
ATOM     26  O   UNL     1       2.078   2.898  16.917  0.00  0.00    +0.000 OA
BRANCH  25  27
ATOM     27  C   UNL     1       2.514   1.805  19.047  0.00  0.00    +0.000 C 
BRANCH  27  28
ATOM     28  C   UNL     1       1.726   2.354  20.261  0.00  0.00    +0.000 C 
ATOM     29  C   UNL     1       2.604   2.970  21.353  0.00  0.00    +0.000 C 
ATOM     30  C   UNL     1       0.607   3.317  19.860  0.00  0.00    +0.000 C 
ENDBRANCH  27  28
ENDBRANCH  25  27
ENDBRANCH  24  25
ENDBRANCH   6  24
TORSDOF 13
ENDMDL
MODEL 9
REMARK VINA RESULT:      -7.2      1.660      2.028
REMARK  Name = 
REMARK  20 active torsions:
REMARK  status: ('A' for Active; 'I' for Inactive)
REMARK    1  A    between atoms: C_1  and  C_2
REMARK    2  A    between atoms: C_2  and  C_3
REMARK    3  A    between atoms: C_2  and  C_4
REMARK    4  A    between atoms: C_4  and  C_5
REMARK    5  A    between atoms: C_5  and  O_7
REMARK    6  A    between atoms: O_7  and  C_8
REMARK    7  A    between atoms: C_11  and  C_12
REMARK    8  A    between atoms: C_12  and  O_13
REMARK    9  A    between atoms: C_12  and  C_14
REMARK   10  A    between atoms: C_14  and  N_15
REMARK   11  A    between atoms: N_15  and  C_16
REMARK   12  A    between atoms: C_16  and  C_17
REMARK   13  A    between atoms: C_16  and  C_18
REMARK   14  A    between atoms: C_16  and  C_19
REMARK   15  A    between atoms: C_21  and  O_22
REMARK   16  A    between atoms: O_22  and  C_23
REMARK   17  A    between atoms: C_23  and  C_25
REMARK   18  A    between atoms: C_25  and  C_26
REMARK   19  A    between atoms: C_26  and  C_27
REMARK   20  A    between atoms: C_26  and  C_28
REMARK                            x       y       z     vdW  Elec       q    Type
REMARK                         _______ _______ _______ _____ _____    ______ ____
ROOT
ATOM      1  C   UNL     1       5.575   5.268  16.396  0.00  0.00    +0.000 A 
ATOM      2  C   UNL     1       5.234   6.482  15.784  0.00  0.00    +0.000 A 
ATOM      3  C   UNL     1       4.369   7.380  16.412  0.00  0.00    +0.000 A 
ATOM      4  C   UNL     1       3.845   7.101  17.681  0.00  0.00    +0.000 A 
ATOM      5  C   UNL     1       4.193   5.887  18.285  0.00  0.00    +0.000 A 
ATOM      6  C   UNL     1       5.087   4.994  17.683  0.00  0.00    +0.000 A 
ENDROOT
BRANCH   1   7
ATOM      7  O   UNL     1       6.507   4.417  15.757  0.00  0.00    +0.000 OA
BRANCH   7   8
ATOM      8  C   UNL     1       6.612   4.518  14.361  0.00  0.00    +0.000 C 
ATOM      9  O   UNL     1       7.387   5.239  13.742  0.00  0.00    +0.000 OA
BRANCH   8  10
ATOM     10  C   UNL     1       5.610   3.582  13.708  0.00  0.00    +0.000 C 
BRANCH  10  12
ATOM     11  C   UNL     1       6.726   2.394  11.739  0.00  0.00    +0.000 C 
ATOM     12  C   UNL     1       5.763   3.505  12.172  0.00  0.00    +0.000 C 
ATOM     13  C   UNL     1       4.404   3.280  11.498  0.00  0.00    +0.000 C 
ENDBRANCH  10  12
ENDBRANCH   8  10
ENDBRANCH   7   8
ENDBRANCH   1   7
BRANCH   4  14
ATOM     14  C   UNL     1       2.890   8.082  18.323  0.00  0.00    +0.000 C 
BRANCH  14  15
ATOM     15  O   UNL     1       2.160   8.723  17.269  0.00  0.00    +0.000 OA
ATOM     16  H   UNL     1       1.477   8.093  16.976  0.00  0.00    +0.000 HD
ENDBRANCH  14  15
BRANCH  14  17
ATOM     17  C   UNL     1       1.855   7.510  19.329  0.00  0.00    +0.000 C 
BRANCH  17  18
ATOM     18  N   UNL     1       2.022   7.949  20.721  0.00  0.00    +0.000 NA
ATOM     19  H   UNL     1       2.933   8.392  20.835  0.00  0.00    +0.000 HD
BRANCH  18  20
ATOM     20  C   UNL     1       0.961   8.841  21.234  0.00  0.00    +0.000 C 
ATOM     21  C   UNL     1      -0.367   8.088  21.393  0.00  0.00    +0.000 C 
ATOM     22  C   UNL     1       1.397   9.322  22.633  0.00  0.00    +0.000 C 
ATOM     23  C   UNL     1       0.759  10.072  20.338  0.00  0.00    +0.000 C 
ENDBRANCH  18  20
ENDBRANCH  17  18
ENDBRANCH  14  17
ENDBRANCH   4  14
BRANCH   6  24
ATOM     24  O   UNL     1       5.372   3.786  18.354  0.00  0.00    +0.000 OA
BRANCH  24  25
ATOM     25  C   UNL     1       4.267   3.156  18.953  0.00  0.00    +0.000 C 
ATOM     26  O   UNL     1       3.979   3.209  20.141  0.00  0.00    +0.000 OA
BRANCH  25  27
ATOM     27  C   UNL     1       3.475   2.379  17.911  0.00  0.00    +0.000 C 
BRANCH  27  28
ATOM     28  C   UNL     1       1.945   2.611  17.886  0.00  0.00    +0.000 C 
ATOM     29  C   UNL     1       1.197   1.999  19.072  0.00  0.00    +0.000 C 
ATOM     30  C   UNL     1       1.568   4.084  17.711  0.00  0.00    +0.000 C 
ENDBRANCH  27  28
ENDBRANCH  25  27
ENDBRANCH  24  25
ENDBRANCH   6  24
TORSDOF 13
ENDMDL
