MODEL 1
REMARK VINA RESULT:      -8.4      0.000      0.000
REMARK  Name = 
REMARK  3 active torsions:
REMARK  status: ('A' for Active; 'I' for Inactive)
REMARK    1  A    between atoms: C_2  and  C_20
REMARK    2  A    between atoms: N_3  and  N_4
REMARK    3  A    between atoms: C_14  and  C_15
REMARK                            x       y       z     vdW  Elec       q    Type
REMARK                         _______ _______ _______ _____ _____    ______ ____
ROOT
ATOM      1  N   UNL     1       3.981   5.633  18.647  0.00  0.00    +0.000 N 
ATOM      2  C   UNL     1       4.978   6.197  17.853  0.00  0.00    +0.000 C 
ATOM      3  O   UNL     1       5.457   7.319  17.991  0.00  0.00    +0.000 OA
ATOM      4  C   UNL     1       5.378   5.341  16.723  0.00  0.00    +0.000 A 
ATOM      5  C   UNL     1       5.927   5.913  15.568  0.00  0.00    +0.000 A 
ATOM      6  C   UNL     1       6.222   5.103  14.475  0.00  0.00    +0.000 A 
ATOM      7  C   UNL     1       5.981   3.731  14.548  0.00  0.00    +0.000 A 
ATOM      8  C   UNL     1       5.424   3.173  15.704  0.00  0.00    +0.000 A 
ATOM      9  C   UNL     1       5.080   3.978  16.797  0.00  0.00    +0.000 A 
ATOM     10  N   UNL     1       4.560   3.401  17.951  0.00  0.00    +0.000 N 
ATOM     11  C   UNL     1       4.172   4.252  19.075  0.00  0.00    +0.000 C 
ATOM     12  H   UNL     1       3.978   2.588  17.807  0.00  0.00    +0.000 HD
ENDROOT
BRANCH  11  13
ATOM     13  C   UNL     1       2.957   3.734  19.786  0.00  0.00    +0.000 A 
ATOM     14  C   UNL     1       2.767   3.067  20.980  0.00  0.00    +0.000 A 
ATOM     15  C   UNL     1       1.369   2.869  21.113  0.00  0.00    +0.000 A 
ATOM     16  C   UNL     1       0.797   3.428  19.991  0.00  0.00    +0.000 A 
ATOM     17  O   UNL     1       1.751   3.944  19.175  0.00  0.00    +0.000 OA
ENDBRANCH  11  13
BRANCH   1  20
ATOM     18  O   UNL     1       2.039   7.353  17.826  0.00  0.00    +0.000 OA
ATOM     19  C   UNL     1       2.348   7.358  19.019  0.00  0.00    +0.000 C 
ATOM     20  N   UNL     1       3.315   6.519  19.556  0.00  0.00    +0.000 N 
ATOM     21  H   UNL     1       3.461   6.384  20.548  0.00  0.00    +0.000 HD
BRANCH  19  22
ATOM     22  C   UNL     1       1.622   8.292  19.926  0.00  0.00    +0.000 A 
ATOM     23  C   UNL     1       1.128   9.481  19.354  0.00  0.00    +0.000 A 
ATOM     24  C   UNL     1       0.361  10.374  20.103  0.00  0.00    +0.000 A 
ATOM     25  C   UNL     1       0.083  10.086  21.432  0.00  0.00    +0.000 A 
ATOM     26 BR   UNL     1      -1.003  11.265  22.437  0.00  0.00    +0.000 Br
ATOM     27  C   UNL     1       0.586   8.927  22.026  0.00  0.00    +0.000 A 
ATOM     28  C   UNL     1       1.359   8.029  21.276  0.00  0.00    +0.000 A 
ENDBRANCH  19  22
ENDBRANCH   1  20
TORSDOF 3
ENDMDL
MODEL 2
REMARK VINA RESULT:      -8.0      0.548      1.201
REMARK  Name = 
REMARK  3 active torsions:
REMARK  status: ('A' for Active; 'I' for Inactive)
REMARK    1  A    between atoms: C_2  and  C_20
REMARK    2  A    between atoms: N_3  and  N_4
REMARK    3  A    between atoms: C_14  and  C_15
REMARK                            x       y       z     vdW  Elec       q    Type
REMARK                         _______ _______ _______ _____ _____    ______ ____
ROOT
ATOM      1  N   UNL     1       3.962   5.681  18.415  0.00  0.00    +0.000 N 
ATOM      2  C   UNL     1       5.030   6.233  17.709  0.00  0.00    +0.000 C 
ATOM      3  O   UNL     1       5.515   7.345  17.891  0.00  0.00    +0.000 OA
ATOM      4  C   UNL     1       5.505   5.375  16.609  0.00  0.00    +0.000 A 
ATOM      5  C   UNL     1       6.157   5.943  15.507  0.00  0.00    +0.000 A 
ATOM      6  C   UNL     1       6.526   5.133  14.435  0.00  0.00    +0.000 A 
ATOM      7  C   UNL     1       6.256   3.766  14.480  0.00  0.00    +0.000 A 
ATOM      8  C   UNL     1       5.597   3.212  15.583  0.00  0.00    +0.000 A 
ATOM      9  C   UNL     1       5.179   4.017  16.649  0.00  0.00    +0.000 A 
ATOM     10  N   UNL     1       4.557   3.444  17.754  0.00  0.00    +0.000 N 
ATOM     11  C   UNL     1       4.093   4.296  18.848  0.00  0.00    +0.000 C 
ATOM     12  H   UNL     1       3.975   2.642  17.557  0.00  0.00    +0.000 HD
ENDROOT
BRANCH  11  13
ATOM     13  C   UNL     1       2.816   3.795  19.455  0.00  0.00    +0.000 A 
ATOM     14  C   UNL     1       1.663   3.249  18.927  0.00  0.00    +0.000 A 
ATOM     15  C   UNL     1       0.817   2.953  20.026  0.00  0.00    +0.000 A 
ATOM     16  C   UNL     1       1.510   3.337  21.153  0.00  0.00    +0.000 A 
ATOM     17  O   UNL     1       2.717   3.861  20.818  0.00  0.00    +0.000 OA
ENDBRANCH  11  13
BRANCH   1  20
ATOM     18  O   UNL     1       2.066   7.384  17.459  0.00  0.00    +0.000 OA
ATOM     19  C   UNL     1       2.302   7.404  18.669  0.00  0.00    +0.000 C 
ATOM     20  N   UNL     1       3.239   6.575  19.272  0.00  0.00    +0.000 N 
ATOM     21  H   UNL     1       3.326   6.451  20.272  0.00  0.00    +0.000 HD
BRANCH  19  22
ATOM     22  C   UNL     1       1.520   8.345  19.520  0.00  0.00    +0.000 A 
ATOM     23  C   UNL     1       1.287   7.955  20.853  0.00  0.00    +0.000 A 
ATOM     24  C   UNL     1       0.641   8.807  21.748  0.00  0.00    +0.000 A 
ATOM     25  C   UNL     1       0.219  10.058  21.317  0.00  0.00    +0.000 A 
ATOM     26 BR   UNL     1      -0.607  11.240  22.540  0.00  0.00    +0.000 Br
ATOM     27  C   UNL     1       0.416  10.452  19.992  0.00  0.00    +0.000 A 
ATOM     28  C   UNL     1       1.063   9.596  19.090  0.00  0.00    +0.000 A 
ENDBRANCH  19  22
ENDBRANCH   1  20
TORSDOF 3
ENDMDL
MODEL 3
REMARK VINA RESULT:      -7.4      4.832     10.074
REMARK  Name = 
REMARK  3 active torsions:
REMARK  status: ('A' for Active; 'I' for Inactive)
REMARK    1  A    between atoms: C_2  and  C_20
REMARK    2  A    between atoms: N_3  and  N_4
REMARK    3  A    between atoms: C_14  and  C_15
REMARK                            x       y       z     vdW  Elec       q    Type
REMARK                         _______ _______ _______ _____ _____    ______ ____
ROOT
ATOM      1  N   UNL     1      -0.164  12.042  21.739  0.00  0.00    +0.000 N 
ATOM      2  C   UNL     1      -0.986  11.651  22.795  0.00  0.00    +0.000 C 
ATOM      3  O   UNL     1      -0.895  10.602  23.426  0.00  0.00    +0.000 OA
ATOM      4  C   UNL     1      -2.086  12.595  23.057  0.00  0.00    +0.000 A 
ATOM      5  C   UNL     1      -3.265  12.147  23.666  0.00  0.00    +0.000 A 
ATOM      6  C   UNL     1      -4.330  13.029  23.832  0.00  0.00    +0.000 A 
ATOM      7  C   UNL     1      -4.204  14.350  23.404  0.00  0.00    +0.000 A 
ATOM      8  C   UNL     1      -3.023  14.784  22.789  0.00  0.00    +0.000 A 
ATOM      9  C   UNL     1      -1.959  13.900  22.574  0.00  0.00    +0.000 A 
ATOM     10  N   UNL     1      -0.780  14.356  21.994  0.00  0.00    +0.000 N 
ATOM     11  C   UNL     1       0.314  13.419  21.741  0.00  0.00    +0.000 C 
ATOM     12  H   UNL     1      -0.890  15.085  21.302  0.00  0.00    +0.000 HD
ENDROOT
BRANCH  11  13
ATOM     13  C   UNL     1       1.053  13.737  20.475  0.00  0.00    +0.000 A 
ATOM     14  C   UNL     1       0.678  14.296  19.271  0.00  0.00    +0.000 A 
ATOM     15  C   UNL     1       1.848  14.356  18.472  0.00  0.00    +0.000 A 
ATOM     16  C   UNL     1       2.861  13.830  19.242  0.00  0.00    +0.000 A 
ATOM     17  O   UNL     1       2.388  13.440  20.453  0.00  0.00    +0.000 OA
ENDBRANCH  11  13
BRANCH   1  20
ATOM     18  O   UNL     1      -0.784  10.595  19.519  0.00  0.00    +0.000 OA
ATOM     19  C   UNL     1       0.288  10.359  20.081  0.00  0.00    +0.000 C 
ATOM     20  N   UNL     1       0.716  11.039  21.214  0.00  0.00    +0.000 N 
ATOM     21  H   UNL     1       1.654  10.985  21.587  0.00  0.00    +0.000 HD
BRANCH  19  22
ATOM     22  C   UNL     1       1.172   9.312  19.493  0.00  0.00    +0.000 A 
ATOM     23  C   UNL     1       1.491   8.214  20.313  0.00  0.00    +0.000 A 
ATOM     24  C   UNL     1       2.239   7.143  19.822  0.00  0.00    +0.000 A 
ATOM     25  C   UNL     1       2.676   7.164  18.504  0.00  0.00    +0.000 A 
ATOM     26 BR   UNL     1       3.642   5.692  17.816  0.00  0.00    +0.000 Br
ATOM     27  C   UNL     1       2.393   8.257  17.683  0.00  0.00    +0.000 A 
ATOM     28  C   UNL     1       1.644   9.335  18.176  0.00  0.00    +0.000 A 
ENDBRANCH  19  22
ENDBRANCH   1  20
TORSDOF 3
ENDMDL
MODEL 4
REMARK VINA RESULT:      -7.2      4.663      9.429
REMARK  Name = 
REMARK  3 active torsions:
REMARK  status: ('A' for Active; 'I' for Inactive)
REMARK    1  A    between atoms: C_2  and  C_20
REMARK    2  A    between atoms: N_3  and  N_4
REMARK    3  A    between atoms: C_14  and  C_15
REMARK                            x       y       z     vdW  Elec       q    Type
REMARK                         _______ _______ _______ _____ _____    ______ ____
ROOT
ATOM      1  N   UNL     1      -0.843  11.641  19.935  0.00  0.00    +0.000 N 
ATOM      2  C   UNL     1      -0.461  12.381  21.052  0.00  0.00    +0.000 C 
ATOM      3  O   UNL     1       0.688  12.529  21.457  0.00  0.00    +0.000 OA
ATOM      4  C   UNL     1      -1.602  12.930  21.805  0.00  0.00    +0.000 A 
ATOM      5  C   UNL     1      -1.470  13.216  23.170  0.00  0.00    +0.000 A 
ATOM      6  C   UNL     1      -2.579  13.655  23.890  0.00  0.00    +0.000 A 
ATOM      7  C   UNL     1      -3.802  13.819  23.239  0.00  0.00    +0.000 A 
ATOM      8  C   UNL     1      -3.922  13.522  21.877  0.00  0.00    +0.000 A 
ATOM      9  C   UNL     1      -2.830  13.038  21.148  0.00  0.00    +0.000 A 
ATOM     10  N   UNL     1      -2.959  12.781  19.786  0.00  0.00    +0.000 N 
ATOM     11  C   UNL     1      -1.822  12.243  19.039  0.00  0.00    +0.000 C 
ATOM     12  H   UNL     1      -3.865  12.446  19.491  0.00  0.00    +0.000 HD
ENDROOT
BRANCH  11  13
ATOM     13  C   UNL     1      -2.250  11.276  17.975  0.00  0.00    +0.000 A 
ATOM     14  C   UNL     1      -2.754   9.992  18.005  0.00  0.00    +0.000 A 
ATOM     15  C   UNL     1      -2.986   9.618  16.657  0.00  0.00    +0.000 A 
ATOM     16  C   UNL     1      -2.609  10.700  15.892  0.00  0.00    +0.000 A 
ATOM     17  O   UNL     1      -2.149  11.706  16.680  0.00  0.00    +0.000 OA
ENDBRANCH  11  13
BRANCH   1  20
ATOM     18  O   UNL     1      -0.242   9.174  20.915  0.00  0.00    +0.000 OA
ATOM     19  C   UNL     1       0.393   9.577  19.939  0.00  0.00    +0.000 C 
ATOM     20  N   UNL     1       0.168  10.813  19.345  0.00  0.00    +0.000 N 
ATOM     21  H   UNL     1       0.550  11.089  18.450  0.00  0.00    +0.000 HD
BRANCH  19  22
ATOM     22  C   UNL     1       1.429   8.677  19.357  0.00  0.00    +0.000 A 
ATOM     23  C   UNL     1       1.785   7.543  20.112  0.00  0.00    +0.000 A 
ATOM     24  C   UNL     1       2.680   6.598  19.610  0.00  0.00    +0.000 A 
ATOM     25  C   UNL     1       3.228   6.780  18.348  0.00  0.00    +0.000 A 
ATOM     26 BR   UNL     1       4.398   5.474  17.640  0.00  0.00    +0.000 Br
ATOM     27  C   UNL     1       2.910   7.911  17.595  0.00  0.00    +0.000 A 
ATOM     28  C   UNL     1       2.013   8.864  18.098  0.00  0.00    +0.000 A 
ENDBRANCH  19  22
ENDBRANCH   1  20
TORSDOF 3
ENDMDL
MODEL 5
REMARK VINA RESULT:      -7.0      4.653      9.376
REMARK  Name = 
REMARK  3 active torsions:
REMARK  status: ('A' for Active; 'I' for Inactive)
REMARK    1  A    between atoms: C_2  and  C_20
REMARK    2  A    between atoms: N_3  and  N_4
REMARK    3  A    between atoms: C_14  and  C_15
REMARK                            x       y       z     vdW  Elec       q    Type
REMARK                         _______ _______ _______ _____ _____    ______ ____
ROOT
ATOM      1  N   UNL     1      -0.581  11.862  19.958  0.00  0.00    +0.000 N 
ATOM      2  C   UNL     1      -0.096  12.636  21.010  0.00  0.00    +0.000 C 
ATOM      3  O   UNL     1       1.077  12.713  21.364  0.00  0.00    +0.000 OA
ATOM      4  C   UNL     1      -1.157  13.324  21.765  0.00  0.00    +0.000 A 
ATOM      5  C   UNL     1      -0.949  13.683  23.103  0.00  0.00    +0.000 A 
ATOM      6  C   UNL     1      -1.989  14.257  23.830  0.00  0.00    +0.000 A 
ATOM      7  C   UNL     1      -3.219  14.481  23.213  0.00  0.00    +0.000 A 
ATOM      8  C   UNL     1      -3.418  14.111  21.878  0.00  0.00    +0.000 A 
ATOM      9  C   UNL     1      -2.398  13.492  21.145  0.00  0.00    +0.000 A 
ATOM     10  N   UNL     1      -2.602  13.163  19.808  0.00  0.00    +0.000 N 
ATOM     11  C   UNL     1      -1.544  12.487  19.059  0.00  0.00    +0.000 C 
ATOM     12  H   UNL     1      -3.543  12.886  19.568  0.00  0.00    +0.000 HD
ENDROOT
BRANCH  11  13
ATOM     13  C   UNL     1      -2.090  11.494  18.076  0.00  0.00    +0.000 A 
ATOM     14  C   UNL     1      -2.144  11.453  16.697  0.00  0.00    +0.000 A 
ATOM     15  C   UNL     1      -2.771  10.228  16.355  0.00  0.00    +0.000 A 
ATOM     16  C   UNL     1      -3.058   9.602  17.547  0.00  0.00    +0.000 A 
ATOM     17  O   UNL     1      -2.661  10.365  18.597  0.00  0.00    +0.000 OA
ENDBRANCH  11  13
BRANCH   1  20
ATOM     18  O   UNL     1      -0.280   9.352  20.967  0.00  0.00    +0.000 OA
ATOM     19  C   UNL     1       0.409   9.670  19.996  0.00  0.00    +0.000 C 
ATOM     20  N   UNL     1       0.335  10.917  19.389  0.00  0.00    +0.000 N 
ATOM     21  H   UNL     1       0.757  11.140  18.497  0.00  0.00    +0.000 HD
BRANCH  19  22
ATOM     22  C   UNL     1       1.342   8.651  19.435  0.00  0.00    +0.000 A 
ATOM     23  C   UNL     1       1.851   8.895  18.146  0.00  0.00    +0.000 A 
ATOM     24  C   UNL     1       2.797   8.043  17.574  0.00  0.00    +0.000 A 
ATOM     25  C   UNL     1       3.241   6.938  18.288  0.00  0.00    +0.000 A 
ATOM     26 BR   UNL     1       4.564   5.812  17.543  0.00  0.00    +0.000 Br
ATOM     27  C   UNL     1       2.727   6.664  19.557  0.00  0.00    +0.000 A 
ATOM     28  C   UNL     1       1.774   7.517  20.133  0.00  0.00    +0.000 A 
ENDBRANCH  19  22
ENDBRANCH   1  20
TORSDOF 3
ENDMDL
MODEL 6
REMARK VINA RESULT:      -6.9      4.876     10.032
REMARK  Name = 
REMARK  3 active torsions:
REMARK  status: ('A' for Active; 'I' for Inactive)
REMARK    1  A    between atoms: C_2  and  C_20
REMARK    2  A    between atoms: N_3  and  N_4
REMARK    3  A    between atoms: C_14  and  C_15
REMARK                            x       y       z     vdW  Elec       q    Type
REMARK                         _______ _______ _______ _____ _____    ______ ____
ROOT
ATOM      1  N   UNL     1      -0.176  12.112  21.791  0.00  0.00    +0.000 N 
ATOM      2  C   UNL     1      -1.100  11.832  22.797  0.00  0.00    +0.000 C 
ATOM      3  O   UNL     1      -1.158  10.795  23.451  0.00  0.00    +0.000 OA
ATOM      4  C   UNL     1      -2.110  12.890  22.972  0.00  0.00    +0.000 A 
ATOM      5  C   UNL     1      -3.365  12.581  23.510  0.00  0.00    +0.000 A 
ATOM      6  C   UNL     1      -4.341  13.572  23.592  0.00  0.00    +0.000 A 
ATOM      7  C   UNL     1      -4.050  14.862  23.151  0.00  0.00    +0.000 A 
ATOM      8  C   UNL     1      -2.795  15.157  22.607  0.00  0.00    +0.000 A 
ATOM      9  C   UNL     1      -1.817  14.164  22.476  0.00  0.00    +0.000 A 
ATOM     10  N   UNL     1      -0.562  14.483  21.967  0.00  0.00    +0.000 N 
ATOM     11  C   UNL     1       0.442  13.432  21.802  0.00  0.00    +0.000 C 
ATOM     12  H   UNL     1      -0.552  15.203  21.258  0.00  0.00    +0.000 HD
ENDROOT
BRANCH  11  13
ATOM     13  C   UNL     1       1.288  13.643  20.581  0.00  0.00    +0.000 A 
ATOM     14  C   UNL     1       2.643  13.814  20.383  0.00  0.00    +0.000 A 
ATOM     15  C   UNL     1       2.833  13.944  18.984  0.00  0.00    +0.000 A 
ATOM     16  C   UNL     1       1.580  13.844  18.420  0.00  0.00    +0.000 A 
ATOM     17  O   UNL     1       0.635  13.674  19.380  0.00  0.00    +0.000 OA
ENDBRANCH  11  13
BRANCH   1  20
ATOM     18  O   UNL     1      -0.782  10.708  19.539  0.00  0.00    +0.000 OA
ATOM     19  C   UNL     1       0.212  10.366  20.183  0.00  0.00    +0.000 C 
ATOM     20  N   UNL     1       0.625  11.012  21.341  0.00  0.00    +0.000 N 
ATOM     21  H   UNL     1       1.522  10.863  21.784  0.00  0.00    +0.000 HD
BRANCH  19  22
ATOM     22  C   UNL     1       1.017   9.221  19.671  0.00  0.00    +0.000 A 
ATOM     23  C   UNL     1       1.404   9.269  18.318  0.00  0.00    +0.000 A 
ATOM     24  C   UNL     1       2.232   8.288  17.772  0.00  0.00    +0.000 A 
ATOM     25  C   UNL     1       2.680   7.248  18.576  0.00  0.00    +0.000 A 
ATOM     26 BR   UNL     1       3.848   5.946  17.857  0.00  0.00    +0.000 Br
ATOM     27  C   UNL     1       2.285   7.167  19.913  0.00  0.00    +0.000 A 
ATOM     28  C   UNL     1       1.451   8.150  20.463  0.00  0.00    +0.000 A 
ENDBRANCH  19  22
ENDBRANCH   1  20
TORSDOF 3
ENDMDL
MODEL 7
REMARK VINA RESULT:      -6.7      2.929      4.781
REMARK  Name = 
REMARK  3 active torsions:
REMARK  status: ('A' for Active; 'I' for Inactive)
REMARK    1  A    between atoms: C_2  and  C_20
REMARK    2  A    between atoms: N_3  and  N_4
REMARK    3  A    between atoms: C_14  and  C_15
REMARK                            x       y       z     vdW  Elec       q    Type
REMARK                         _______ _______ _______ _____ _____    ______ ____
ROOT
ATOM      1  N   UNL     1       2.086   7.760  19.481  0.00  0.00    +0.000 N 
ATOM      2  C   UNL     1       2.823   6.968  18.603  0.00  0.00    +0.000 C 
ATOM      3  O   UNL     1       3.711   7.362  17.852  0.00  0.00    +0.000 OA
ATOM      4  C   UNL     1       2.380   5.563  18.573  0.00  0.00    +0.000 A 
ATOM      5  C   UNL     1       2.605   4.780  17.435  0.00  0.00    +0.000 A 
ATOM      6  C   UNL     1       2.106   3.480  17.386  0.00  0.00    +0.000 A 
ATOM      7  C   UNL     1       1.403   2.970  18.477  0.00  0.00    +0.000 A 
ATOM      8  C   UNL     1       1.178   3.766  19.606  0.00  0.00    +0.000 A 
ATOM      9  C   UNL     1       1.633   5.089  19.655  0.00  0.00    +0.000 A 
ATOM     10  N   UNL     1       1.430   5.855  20.799  0.00  0.00    +0.000 N 
ATOM     11  C   UNL     1       1.879   7.246  20.829  0.00  0.00    +0.000 C 
ATOM     12  H   UNL     1       0.573   5.668  21.301  0.00  0.00    +0.000 HD
ENDROOT
BRANCH  11  13
ATOM     13  C   UNL     1       0.945   8.127  21.607  0.00  0.00    +0.000 A 
ATOM     14  C   UNL     1      -0.430   8.228  21.675  0.00  0.00    +0.000 A 
ATOM     15  C   UNL     1      -0.713   9.246  22.620  0.00  0.00    +0.000 A 
ATOM     16  C   UNL     1       0.509   9.700  23.067  0.00  0.00    +0.000 A 
ATOM     17  O   UNL     1       1.520   9.037  22.450  0.00  0.00    +0.000 OA
ENDBRANCH  11  13
BRANCH   1  20
ATOM     18  O   UNL     1       0.127   9.308  18.398  0.00  0.00    +0.000 OA
ATOM     19  C   UNL     1       1.168   9.862  18.756  0.00  0.00    +0.000 C 
ATOM     20  N   UNL     1       2.231   9.179  19.331  0.00  0.00    +0.000 N 
ATOM     21  H   UNL     1       3.015   9.629  19.787  0.00  0.00    +0.000 HD
BRANCH  19  22
ATOM     22  C   UNL     1       1.269  11.340  18.587  0.00  0.00    +0.000 A 
ATOM     23  C   UNL     1       0.138  12.100  18.938  0.00  0.00    +0.000 A 
ATOM     24  C   UNL     1       0.168  13.494  18.897  0.00  0.00    +0.000 A 
ATOM     25  C   UNL     1       1.331  14.140  18.501  0.00  0.00    +0.000 A 
ATOM     26 BR   UNL     1       1.396  16.030  18.496  0.00  0.00    +0.000 Br
ATOM     27  C   UNL     1       2.455  13.404  18.122  0.00  0.00    +0.000 A 
ATOM     28  C   UNL     1       2.426  12.003  18.160  0.00  0.00    +0.000 A 
ENDBRANCH  19  22
ENDBRANCH   1  20
TORSDOF 3
ENDMDL
MODEL 8
REMARK VINA RESULT:      -6.7      4.640      9.253
REMARK  Name = 
REMARK  3 active torsions:
REMARK  status: ('A' for Active; 'I' for Inactive)
REMARK    1  A    between atoms: C_2  and  C_20
REMARK    2  A    between atoms: N_3  and  N_4
REMARK    3  A    between atoms: C_14  and  C_15
REMARK                            x       y       z     vdW  Elec       q    Type
REMARK                         _______ _______ _______ _____ _____    ______ ____
ROOT
ATOM      1  N   UNL     1      -0.048  12.115  19.452  0.00  0.00    +0.000 N 
ATOM      2  C   UNL     1       0.618  13.012  20.286  0.00  0.00    +0.000 C 
ATOM      3  O   UNL     1       1.833  13.078  20.445  0.00  0.00    +0.000 OA
ATOM      4  C   UNL     1      -0.292  13.864  21.071  0.00  0.00    +0.000 A 
ATOM      5  C   UNL     1       0.132  14.409  22.289  0.00  0.00    +0.000 A 
ATOM      6  C   UNL     1      -0.765  15.143  23.062  0.00  0.00    +0.000 A 
ATOM      7  C   UNL     1      -2.068  15.337  22.607  0.00  0.00    +0.000 A 
ATOM      8  C   UNL     1      -2.483  14.780  21.392  0.00  0.00    +0.000 A 
ATOM      9  C   UNL     1      -1.609  14.003  20.623  0.00  0.00    +0.000 A 
ATOM     10  N   UNL     1      -2.026  13.487  19.400  0.00  0.00    +0.000 N 
ATOM     11  C   UNL     1      -1.118  12.648  18.619  0.00  0.00    +0.000 C 
ATOM     12  H   UNL     1      -3.002  13.228  19.348  0.00  0.00    +0.000 HD
ENDROOT
BRANCH  11  13
ATOM     13  C   UNL     1      -1.840  11.549  17.897  0.00  0.00    +0.000 A 
ATOM     14  C   UNL     1      -2.163  11.334  16.573  0.00  0.00    +0.000 A 
ATOM     15  C   UNL     1      -2.837  10.087  16.519  0.00  0.00    +0.000 A 
ATOM     16  C   UNL     1      -2.881   9.623  17.815  0.00  0.00    +0.000 A 
ATOM     17  O   UNL     1      -2.291  10.507  18.660  0.00  0.00    +0.000 OA
ENDBRANCH  11  13
BRANCH   1  20
ATOM     18  O   UNL     1       0.422   9.820  20.838  0.00  0.00    +0.000 OA
ATOM     19  C   UNL     1       0.919   9.928  19.715  0.00  0.00    +0.000 C 
ATOM     20  N   UNL     1       0.740  11.047  18.911  0.00  0.00    +0.000 N 
ATOM     21  H   UNL     1       0.989  11.086  17.931  0.00  0.00    +0.000 HD
BRANCH  19  22
ATOM     22  C   UNL     1       1.724   8.788  19.192  0.00  0.00    +0.000 A 
ATOM     23  C   UNL     1       1.852   7.662  20.028  0.00  0.00    +0.000 A 
ATOM     24  C   UNL     1       2.512   6.513  19.591  0.00  0.00    +0.000 A 
ATOM     25  C   UNL     1       3.052   6.481  18.313  0.00  0.00    +0.000 A 
ATOM     26 BR   UNL     1       3.898   4.908  17.694  0.00  0.00    +0.000 Br
ATOM     27  C   UNL     1       2.960   7.597  17.478  0.00  0.00    +0.000 A 
ATOM     28  C   UNL     1       2.299   8.753  17.916  0.00  0.00    +0.000 A 
ENDBRANCH  19  22
ENDBRANCH   1  20
TORSDOF 3
ENDMDL
MODEL 9
REMARK VINA RESULT:      -6.6      4.665      9.187
REMARK  Name = 
REMARK  3 active torsions:
REMARK  status: ('A' for Active; 'I' for Inactive)
REMARK    1  A    between atoms: C_2  and  C_20
REMARK    2  A    between atoms: N_3  and  N_4
REMARK    3  A    between atoms: C_14  and  C_15
REMARK                            x       y       z     vdW  Elec       q    Type
REMARK                         _______ _______ _______ _____ _____    ______ ____
ROOT
ATOM      1  N   UNL     1       0.179  12.289  19.504  0.00  0.00    +0.000 N 
ATOM      2  C   UNL     1       0.963  13.237  20.160  0.00  0.00    +0.000 C 
ATOM      3  O   UNL     1       2.189  13.245  20.209  0.00  0.00    +0.000 OA
ATOM      4  C   UNL     1       0.172  14.233  20.904  0.00  0.00    +0.000 A 
ATOM      5  C   UNL     1       0.732  14.894  22.005  0.00  0.00    +0.000 A 
ATOM      6  C   UNL     1      -0.053  15.770  22.751  0.00  0.00    +0.000 A 
ATOM      7  C   UNL     1      -1.380  15.990  22.384  0.00  0.00    +0.000 A 
ATOM      8  C   UNL     1      -1.930  15.317  21.287  0.00  0.00    +0.000 A 
ATOM      9  C   UNL     1      -1.170  14.399  20.552  0.00  0.00    +0.000 A 
ATOM     10  N   UNL     1      -1.722  13.766  19.443  0.00  0.00    +0.000 N 
ATOM     11  C   UNL     1      -0.933  12.783  18.701  0.00  0.00    +0.000 C 
ATOM     12  H   UNL     1      -2.711  13.565  19.505  0.00  0.00    +0.000 HD
ENDROOT
BRANCH  11  13
ATOM     13  C   UNL     1      -1.773  11.653  18.186  0.00  0.00    +0.000 A 
ATOM     14  C   UNL     1      -3.045  11.204  18.478  0.00  0.00    +0.000 A 
ATOM     15  C   UNL     1      -3.286  10.094  17.629  0.00  0.00    +0.000 A 
ATOM     16  C   UNL     1      -2.145   9.938  16.875  0.00  0.00    +0.000 A 
ATOM     17  O   UNL     1      -1.217  10.869  17.212  0.00  0.00    +0.000 OA
ENDBRANCH  11  13
BRANCH   1  20
ATOM     18  O   UNL     1       0.254   9.989  20.958  0.00  0.00    +0.000 OA
ATOM     19  C   UNL     1       0.837  10.005  19.871  0.00  0.00    +0.000 C 
ATOM     20  N   UNL     1       0.858  11.116  19.038  0.00  0.00    +0.000 N 
ATOM     21  H   UNL     1       1.177  11.098  18.078  0.00  0.00    +0.000 HD
BRANCH  19  22
ATOM     22  C   UNL     1       1.522   8.758  19.427  0.00  0.00    +0.000 A 
ATOM     23  C   UNL     1       2.034   8.745  18.115  0.00  0.00    +0.000 A 
ATOM     24  C   UNL     1       2.767   7.657  17.640  0.00  0.00    +0.000 A 
ATOM     25  C   UNL     1       2.993   6.571  18.474  0.00  0.00    +0.000 A 
ATOM     26 BR   UNL     1       4.033   5.118  17.856  0.00  0.00    +0.000 Br
ATOM     27  C   UNL     1       2.471   6.552  19.769  0.00  0.00    +0.000 A 
ATOM     28  C   UNL     1       1.732   7.643  20.247  0.00  0.00    +0.000 A 
ENDBRANCH  19  22
ENDBRANCH   1  20
TORSDOF 3
ENDMDL
