MODEL 1
REMARK VINA RESULT:      -8.6      0.000      0.000
REMARK  Name = 
REMARK  6 active torsions:
REMARK  status: ('A' for Active; 'I' for Inactive)
REMARK    1  A    between atoms: C_1  and  O_2
REMARK    2  A    between atoms: O_2  and  C_3
REMARK    3  A    between atoms: C_6  and  N_7
REMARK    4  A    between atoms: C_8  and  C_10
REMARK    5  A    between atoms: N_14  and  S_15
REMARK    6  A    between atoms: S_15  and  C_18
REMARK                            x       y       z     vdW  Elec       q    Type
REMARK                         _______ _______ _______ _____ _____    ______ ____
ROOT
ATOM      1  C   UNL     1       1.257   9.435  21.852  0.00  0.00    +0.000 C 
ATOM      2  C   UNL     1       0.611   9.617  23.224  0.00  0.00    +0.000 C 
ATOM      3  C   UNL     1      -0.868   9.963  23.121  0.00  0.00    +0.000 C 
ATOM      4  C   UNL     1      -1.126  11.142  22.188  0.00  0.00    +0.000 C 
ATOM      5  N   UNL     1      -0.459  10.948  20.875  0.00  0.00    +0.000 NA
ATOM      6  C   UNL     1       0.992  10.635  20.960  0.00  0.00    +0.000 C 
ENDROOT
BRANCH   1   8
ATOM      7  N   UNL     1       2.000   7.426  20.618  0.00  0.00    +0.000 N 
ATOM      8  C   UNL     1       0.947   8.078  21.238  0.00  0.00    +0.000 C 
ATOM      9  O   UNL     1      -0.215   7.676  21.262  0.00  0.00    +0.000 OA
ATOM     10  H   UNL     1       2.898   7.911  20.615  0.00  0.00    +0.000 HD
BRANCH   7  14
ATOM     11  C   UNL     1       2.064   3.563  18.861  0.00  0.00    +0.000 A 
ATOM     12  C   UNL     1       1.590   3.727  20.161  0.00  0.00    +0.000 A 
ATOM     13  C   UNL     1       1.538   4.995  20.749  0.00  0.00    +0.000 A 
ATOM     14  C   UNL     1       1.980   6.126  20.060  0.00  0.00    +0.000 A 
ATOM     15  C   UNL     1       2.464   5.955  18.754  0.00  0.00    +0.000 A 
ATOM     16  C   UNL     1       2.504   4.683  18.157  0.00  0.00    +0.000 A 
BRANCH  11  18
ATOM     17  C   UNL     1       3.374   1.749  18.093  0.00  0.00    +0.000 C 
ATOM     18  O   UNL     1       2.094   2.270  18.422  0.00  0.00    +0.000 OA
ENDBRANCH  11  18
ENDBRANCH   7  14
ENDBRANCH   1   8
BRANCH   5  19
ATOM     19  S   UNL     1      -0.890  12.107  19.678  0.00  0.00    +0.000 S 
ATOM     20  O   UNL     1      -1.505  13.246  20.329  0.00  0.00    +0.000 OA
ATOM     21  O   UNL     1       0.323  12.314  18.911  0.00  0.00    +0.000 OA
BRANCH  19  22
ATOM     22  C   UNL     1      -2.074  11.365  18.566  0.00  0.00    +0.000 A 
ATOM     23  C   UNL     1      -1.556  10.567  17.525  0.00  0.00    +0.000 A 
ATOM     24  C   UNL     1      -2.381  10.127  16.498  0.00  0.00    +0.000 A 
ATOM     25  C   UNL     1      -3.713  10.515  16.486  0.00  0.00    +0.000 A 
ATOM     26  C   UNL     1      -4.232  11.310  17.518  0.00  0.00    +0.000 A 
ATOM     27  C   UNL     1      -5.568  11.734  17.464  0.00  0.00    +0.000 A 
ATOM     28  C   UNL     1      -6.108  12.474  18.503  0.00  0.00    +0.000 A 
ATOM     29  C   UNL     1      -5.291  12.754  19.573  0.00  0.00    +0.000 A 
ATOM     30  N   UNL     1      -3.982  12.413  19.626  0.00  0.00    +0.000 NA
ATOM     31  C   UNL     1      -3.426  11.720  18.610  0.00  0.00    +0.000 A 
ENDBRANCH  19  22
ENDBRANCH   5  19
TORSDOF 5
ENDMDL
MODEL 2
REMARK VINA RESULT:      -8.5      1.072      2.113
REMARK  Name = 
REMARK  6 active torsions:
REMARK  status: ('A' for Active; 'I' for Inactive)
REMARK    1  A    between atoms: C_1  and  O_2
REMARK    2  A    between atoms: O_2  and  C_3
REMARK    3  A    between atoms: C_6  and  N_7
REMARK    4  A    between atoms: C_8  and  C_10
REMARK    5  A    between atoms: N_14  and  S_15
REMARK    6  A    between atoms: S_15  and  C_18
REMARK                            x       y       z     vdW  Elec       q    Type
REMARK                         _______ _______ _______ _____ _____    ______ ____
ROOT
ATOM      1  C   UNL     1       1.428   9.675  21.860  0.00  0.00    +0.000 C 
ATOM      2  C   UNL     1       0.723   9.315  23.165  0.00  0.00    +0.000 C 
ATOM      3  C   UNL     1      -0.771   9.602  23.109  0.00  0.00    +0.000 C 
ATOM      4  C   UNL     1      -1.073  11.026  22.651  0.00  0.00    +0.000 C 
ATOM      5  N   UNL     1      -0.348  11.355  21.397  0.00  0.00    +0.000 NA
ATOM      6  C   UNL     1       1.117  11.103  21.447  0.00  0.00    +0.000 C 
ENDROOT
BRANCH   1   8
ATOM      7  N   UNL     1       1.973   7.461  20.908  0.00  0.00    +0.000 N 
ATOM      8  C   UNL     1       1.231   8.622  20.779  0.00  0.00    +0.000 C 
ATOM      9  O   UNL     1       0.493   8.886  19.832  0.00  0.00    +0.000 OA
ATOM     10  H   UNL     1       2.599   7.406  21.712  0.00  0.00    +0.000 HD
BRANCH   7  14
ATOM     11  C   UNL     1       1.868   4.054  18.379  0.00  0.00    +0.000 A 
ATOM     12  C   UNL     1       1.322   3.986  19.659  0.00  0.00    +0.000 A 
ATOM     13  C   UNL     1       1.325   5.104  20.498  0.00  0.00    +0.000 A 
ATOM     14  C   UNL     1       1.895   6.310  20.087  0.00  0.00    +0.000 A 
ATOM     15  C   UNL     1       2.450   6.372  18.800  0.00  0.00    +0.000 A 
ATOM     16  C   UNL     1       2.435   5.252  17.950  0.00  0.00    +0.000 A 
BRANCH  11  18
ATOM     17  C   UNL     1       2.882   1.961  17.940  0.00  0.00    +0.000 C 
ATOM     18  O   UNL     1       1.831   2.881  17.679  0.00  0.00    +0.000 OA
ENDBRANCH  11  18
ENDBRANCH   7  14
ENDBRANCH   1   8
BRANCH   5  19
ATOM     19  S   UNL     1      -0.811  12.848  20.677  0.00  0.00    +0.000 S 
ATOM     20  O   UNL     1      -0.935  13.850  21.716  0.00  0.00    +0.000 OA
ATOM     21  O   UNL     1       0.153  13.060  19.615  0.00  0.00    +0.000 OA
BRANCH  19  22
ATOM     22  C   UNL     1      -2.398  12.631  19.886  0.00  0.00    +0.000 A 
ATOM     23  C   UNL     1      -3.501  13.271  20.487  0.00  0.00    +0.000 A 
ATOM     24  C   UNL     1      -4.794  12.988  20.066  0.00  0.00    +0.000 A 
ATOM     25  C   UNL     1      -4.991  12.038  19.074  0.00  0.00    +0.000 A 
ATOM     26  C   UNL     1      -3.896  11.397  18.475  0.00  0.00    +0.000 A 
ATOM     27  C   UNL     1      -4.116  10.404  17.509  0.00  0.00    +0.000 A 
ATOM     28  C   UNL     1      -3.043   9.802  16.871  0.00  0.00    +0.000 A 
ATOM     29  C   UNL     1      -1.781  10.229  17.214  0.00  0.00    +0.000 A 
ATOM     30  N   UNL     1      -1.535  11.139  18.185  0.00  0.00    +0.000 NA
ATOM     31  C   UNL     1      -2.564  11.714  18.843  0.00  0.00    +0.000 A 
ENDBRANCH  19  22
ENDBRANCH   5  19
TORSDOF 5
ENDMDL
MODEL 3
REMARK VINA RESULT:      -8.4      0.777      1.181
REMARK  Name = 
REMARK  6 active torsions:
REMARK  status: ('A' for Active; 'I' for Inactive)
REMARK    1  A    between atoms: C_1  and  O_2
REMARK    2  A    between atoms: O_2  and  C_3
REMARK    3  A    between atoms: C_6  and  N_7
REMARK    4  A    between atoms: C_8  and  C_10
REMARK    5  A    between atoms: N_14  and  S_15
REMARK    6  A    between atoms: S_15  and  C_18
REMARK                            x       y       z     vdW  Elec       q    Type
REMARK                         _______ _______ _______ _____ _____    ______ ____
ROOT
ATOM      1  C   UNL     1       1.547   9.802  21.356  0.00  0.00    +0.000 C 
ATOM      2  C   UNL     1       1.148   9.412  22.778  0.00  0.00    +0.000 C 
ATOM      3  C   UNL     1      -0.362   9.316  22.945  0.00  0.00    +0.000 C 
ATOM      4  C   UNL     1      -1.082  10.568  22.455  0.00  0.00    +0.000 C 
ATOM      5  N   UNL     1      -0.650  10.938  21.083  0.00  0.00    +0.000 NA
ATOM      6  C   UNL     1       0.822  11.060  20.912  0.00  0.00    +0.000 C 
ENDROOT
BRANCH   1   8
ATOM      7  N   UNL     1       2.082   7.453  20.802  0.00  0.00    +0.000 N 
ATOM      8  C   UNL     1       1.480   8.629  20.389  0.00  0.00    +0.000 C 
ATOM      9  O   UNL     1       0.968   8.810  19.285  0.00  0.00    +0.000 OA
ATOM     10  H   UNL     1       2.529   7.468  21.719  0.00  0.00    +0.000 HD
BRANCH   7  14
ATOM     11  C   UNL     1       1.910   3.704  18.822  0.00  0.00    +0.000 A 
ATOM     12  C   UNL     1       2.619   4.758  18.252  0.00  0.00    +0.000 A 
ATOM     13  C   UNL     1       2.708   5.994  18.900  0.00  0.00    +0.000 A 
ATOM     14  C   UNL     1       2.071   6.212  20.123  0.00  0.00    +0.000 A 
ATOM     15  C   UNL     1       1.352   5.149  20.690  0.00  0.00    +0.000 A 
ATOM     16  C   UNL     1       1.273   3.902  20.046  0.00  0.00    +0.000 A 
BRANCH  11  18
ATOM     17  C   UNL     1       3.101   1.861  17.935  0.00  0.00    +0.000 C 
ATOM     18  O   UNL     1       1.874   2.565  18.069  0.00  0.00    +0.000 OA
ENDBRANCH  11  18
ENDBRANCH   7  14
ENDBRANCH   1   8
BRANCH   5  19
ATOM     19  S   UNL     1      -1.579  12.191  20.355  0.00  0.00    +0.000 S 
ATOM     20  O   UNL     1      -2.530  12.692  21.327  0.00  0.00    +0.000 OA
ATOM     21  O   UNL     1      -0.598  13.105  19.804  0.00  0.00    +0.000 OA
BRANCH  19  22
ATOM     22  C   UNL     1      -2.472  11.506  18.969  0.00  0.00    +0.000 A 
ATOM     23  C   UNL     1      -1.732  10.721  18.061  0.00  0.00    +0.000 A 
ATOM     24  C   UNL     1      -2.292  10.327  16.852  0.00  0.00    +0.000 A 
ATOM     25  C   UNL     1      -3.574  10.749  16.529  0.00  0.00    +0.000 A 
ATOM     26  C   UNL     1      -4.312  11.533  17.429  0.00  0.00    +0.000 A 
ATOM     27  C   UNL     1      -5.587  11.992  17.065  0.00  0.00    +0.000 A 
ATOM     28  C   UNL     1      -6.348  12.722  17.964  0.00  0.00    +0.000 A 
ATOM     29  C   UNL     1      -5.809  12.955  19.209  0.00  0.00    +0.000 A 
ATOM     30  N   UNL     1      -4.559  12.578  19.566  0.00  0.00    +0.000 NA
ATOM     31  C   UNL     1      -3.787  11.896  18.695  0.00  0.00    +0.000 A 
ENDBRANCH  19  22
ENDBRANCH   5  19
TORSDOF 5
ENDMDL
MODEL 4
REMARK VINA RESULT:      -8.0      3.990      6.884
REMARK  Name = 
REMARK  6 active torsions:
REMARK  status: ('A' for Active; 'I' for Inactive)
REMARK    1  A    between atoms: C_1  and  O_2
REMARK    2  A    between atoms: O_2  and  C_3
REMARK    3  A    between atoms: C_6  and  N_7
REMARK    4  A    between atoms: C_8  and  C_10
REMARK    5  A    between atoms: N_14  and  S_15
REMARK    6  A    between atoms: S_15  and  C_18
REMARK                            x       y       z     vdW  Elec       q    Type
REMARK                         _______ _______ _______ _____ _____    ______ ____
ROOT
ATOM      1  C   UNL     1      -4.750  13.004  21.853  0.00  0.00    +0.000 C 
ATOM      2  C   UNL     1      -5.516  14.325  21.873  0.00  0.00    +0.000 C 
ATOM      3  C   UNL     1      -4.729  15.454  21.222  0.00  0.00    +0.000 C 
ATOM      4  C   UNL     1      -3.318  15.583  21.789  0.00  0.00    +0.000 C 
ATOM      5  N   UNL     1      -2.614  14.276  21.785  0.00  0.00    +0.000 NA
ATOM      6  C   UNL     1      -3.360  13.170  22.440  0.00  0.00    +0.000 C 
ENDROOT
BRANCH   1   8
ATOM      7  N   UNL     1      -3.671  12.376  19.720  0.00  0.00    +0.000 N 
ATOM      8  C   UNL     1      -4.813  12.313  20.499  0.00  0.00    +0.000 C 
ATOM      9  O   UNL     1      -5.880  11.809  20.148  0.00  0.00    +0.000 OA
ATOM     10  H   UNL     1      -2.880  12.888  20.111  0.00  0.00    +0.000 HD
BRANCH   7  14
ATOM     11  C   UNL     1      -2.959  10.353  16.057  0.00  0.00    +0.000 A 
ATOM     12  C   UNL     1      -4.118  11.109  16.219  0.00  0.00    +0.000 A 
ATOM     13  C   UNL     1      -4.359  11.802  17.409  0.00  0.00    +0.000 A 
ATOM     14  C   UNL     1      -3.459  11.739  18.474  0.00  0.00    +0.000 A 
ATOM     15  C   UNL     1      -2.297  10.971  18.309  0.00  0.00    +0.000 A 
ATOM     16  C   UNL     1      -2.046  10.284  17.108  0.00  0.00    +0.000 A 
BRANCH  11  18
ATOM     17  C   UNL     1      -3.816  10.062  13.871  0.00  0.00    +0.000 C 
ATOM     18  O   UNL     1      -2.865   9.699  14.862  0.00  0.00    +0.000 OA
ENDBRANCH  11  18
ENDBRANCH   7  14
ENDBRANCH   1   8
BRANCH   5  19
ATOM     19  S   UNL     1      -0.940  14.367  22.180  0.00  0.00    +0.000 S 
ATOM     20  O   UNL     1      -0.440  15.672  21.797  0.00  0.00    +0.000 OA
ATOM     21  O   UNL     1      -0.869  13.973  23.574  0.00  0.00    +0.000 OA
BRANCH  19  22
ATOM     22  C   UNL     1      -0.067  13.115  21.253  0.00  0.00    +0.000 A 
ATOM     23  C   UNL     1       0.480  13.506  20.014  0.00  0.00    +0.000 A 
ATOM     24  C   UNL     1       0.987  12.556  19.137  0.00  0.00    +0.000 A 
ATOM     25  C   UNL     1       0.914  11.212  19.477  0.00  0.00    +0.000 A 
ATOM     26  C   UNL     1       0.368  10.819  20.708  0.00  0.00    +0.000 A 
ATOM     27  C   UNL     1       0.257   9.455  21.013  0.00  0.00    +0.000 A 
ATOM     28  C   UNL     1      -0.230   9.054  22.247  0.00  0.00    +0.000 A 
ATOM     29  C   UNL     1      -0.576  10.039  23.143  0.00  0.00    +0.000 A 
ATOM     30  N   UNL     1      -0.539  11.361  22.854  0.00  0.00    +0.000 NA
ATOM     31  C   UNL     1      -0.099  11.773  21.646  0.00  0.00    +0.000 A 
ENDBRANCH  19  22
ENDBRANCH   5  19
TORSDOF 5
ENDMDL
MODEL 5
REMARK VINA RESULT:      -8.0      1.043      1.596
REMARK  Name = 
REMARK  6 active torsions:
REMARK  status: ('A' for Active; 'I' for Inactive)
REMARK    1  A    between atoms: C_1  and  O_2
REMARK    2  A    between atoms: O_2  and  C_3
REMARK    3  A    between atoms: C_6  and  N_7
REMARK    4  A    between atoms: C_8  and  C_10
REMARK    5  A    between atoms: N_14  and  S_15
REMARK    6  A    between atoms: S_15  and  C_18
REMARK                            x       y       z     vdW  Elec       q    Type
REMARK                         _______ _______ _______ _____ _____    ______ ____
ROOT
ATOM      1  C   UNL     1       1.419   9.922  21.511  0.00  0.00    +0.000 C 
ATOM      2  C   UNL     1       0.850   9.497  22.863  0.00  0.00    +0.000 C 
ATOM      3  C   UNL     1      -0.671   9.544  22.886  0.00  0.00    +0.000 C 
ATOM      4  C   UNL     1      -1.219  10.887  22.414  0.00  0.00    +0.000 C 
ATOM      5  N   UNL     1      -0.623  11.287  21.114  0.00  0.00    +0.000 NA
ATOM      6  C   UNL     1       0.864  11.270  21.085  0.00  0.00    +0.000 C 
ENDROOT
BRANCH   1   8
ATOM      7  N   UNL     1       2.003   7.641  20.760  0.00  0.00    +0.000 N 
ATOM      8  C   UNL     1       1.335   8.817  20.468  0.00  0.00    +0.000 C 
ATOM      9  O   UNL     1       0.750   9.053  19.412  0.00  0.00    +0.000 OA
ATOM     10  H   UNL     1       2.506   7.610  21.648  0.00  0.00    +0.000 HD
BRANCH   7  14
ATOM     11  C   UNL     1       1.854   4.025  18.543  0.00  0.00    +0.000 A 
ATOM     12  C   UNL     1       2.368   5.179  17.956  0.00  0.00    +0.000 A 
ATOM     13  C   UNL     1       2.449   6.374  18.678  0.00  0.00    +0.000 A 
ATOM     14  C   UNL     1       1.995   6.450  19.995  0.00  0.00    +0.000 A 
ATOM     15  C   UNL     1       1.471   5.288  20.580  0.00  0.00    +0.000 A 
ATOM     16  C   UNL     1       1.402   4.082  19.860  0.00  0.00    +0.000 A 
BRANCH  11  18
ATOM     17  C   UNL     1       2.798   1.948  17.918  0.00  0.00    +0.000 C 
ATOM     18  O   UNL     1       1.800   2.939  17.717  0.00  0.00    +0.000 OA
ENDBRANCH  11  18
ENDBRANCH   7  14
ENDBRANCH   1   8
BRANCH   5  19
ATOM     19  S   UNL     1      -1.354  12.665  20.387  0.00  0.00    +0.000 S 
ATOM     20  O   UNL     1      -1.777  13.576  21.432  0.00  0.00    +0.000 OA
ATOM     21  O   UNL     1      -0.385  13.125  19.411  0.00  0.00    +0.000 OA
BRANCH  19  22
ATOM     22  C   UNL     1      -2.788  12.131  19.467  0.00  0.00    +0.000 A 
ATOM     23  C   UNL     1      -2.567  11.678  18.150  0.00  0.00    +0.000 A 
ATOM     24  C   UNL     1      -3.638  11.445  17.297  0.00  0.00    +0.000 A 
ATOM     25  C   UNL     1      -4.927  11.701  17.742  0.00  0.00    +0.000 A 
ATOM     26  C   UNL     1      -5.152  12.154  19.051  0.00  0.00    +0.000 A 
ATOM     27  C   UNL     1      -6.457  12.455  19.467  0.00  0.00    +0.000 A 
ATOM     28  C   UNL     1      -6.698  12.852  20.772  0.00  0.00    +0.000 A 
ATOM     29  C   UNL     1      -5.620  12.919  21.625  0.00  0.00    +0.000 A 
ATOM     30  N   UNL     1      -4.343  12.695  21.236  0.00  0.00    +0.000 NA
ATOM     31  C   UNL     1      -4.081  12.340  19.961  0.00  0.00    +0.000 A 
ENDBRANCH  19  22
ENDBRANCH   5  19
TORSDOF 5
ENDMDL
MODEL 6
REMARK VINA RESULT:      -7.8      3.266      7.737
REMARK  Name = 
REMARK  6 active torsions:
REMARK  status: ('A' for Active; 'I' for Inactive)
REMARK    1  A    between atoms: C_1  and  O_2
REMARK    2  A    between atoms: O_2  and  C_3
REMARK    3  A    between atoms: C_6  and  N_7
REMARK    4  A    between atoms: C_8  and  C_10
REMARK    5  A    between atoms: N_14  and  S_15
REMARK    6  A    between atoms: S_15  and  C_18
REMARK                            x       y       z     vdW  Elec       q    Type
REMARK                         _______ _______ _______ _____ _____    ______ ____
ROOT
ATOM      1  C   UNL     1      -1.592  12.468  20.383  0.00  0.00    +0.000 C 
ATOM      2  C   UNL     1      -2.305  12.920  21.655  0.00  0.00    +0.000 C 
ATOM      3  C   UNL     1      -1.493  12.615  22.907  0.00  0.00    +0.000 C 
ATOM      4  C   UNL     1      -1.044  11.159  22.969  0.00  0.00    +0.000 C 
ATOM      5  N   UNL     1      -0.383  10.743  21.706  0.00  0.00    +0.000 NA
ATOM      6  C   UNL     1      -1.177  11.011  20.477  0.00  0.00    +0.000 C 
ENDROOT
BRANCH   1   8
ATOM      7  N   UNL     1       0.805  13.011  20.124  0.00  0.00    +0.000 N 
ATOM      8  C   UNL     1      -0.500  13.436  19.951  0.00  0.00    +0.000 C 
ATOM      9  O   UNL     1      -0.832  14.550  19.548  0.00  0.00    +0.000 OA
ATOM     10  H   UNL     1       0.933  12.085  20.534  0.00  0.00    +0.000 HD
BRANCH   7  14
ATOM     11  C   UNL     1       4.380  15.028  19.044  0.00  0.00    +0.000 A 
ATOM     12  C   UNL     1       3.679  14.298  18.087  0.00  0.00    +0.000 A 
ATOM     13  C   UNL     1       2.486  13.646  18.417  0.00  0.00    +0.000 A 
ATOM     14  C   UNL     1       1.979  13.690  19.716  0.00  0.00    +0.000 A 
ATOM     15  C   UNL     1       2.692  14.421  20.678  0.00  0.00    +0.000 A 
ATOM     16  C   UNL     1       3.884  15.088  20.345  0.00  0.00    +0.000 A 
BRANCH  11  18
ATOM     17  C   UNL     1       6.388  14.741  17.825  0.00  0.00    +0.000 C 
ATOM     18  O   UNL     1       5.545  15.584  18.598  0.00  0.00    +0.000 OA
ENDBRANCH  11  18
ENDBRANCH   7  14
ENDBRANCH   1   8
BRANCH   5  19
ATOM     19  S   UNL     1       0.368   9.196  21.770  0.00  0.00    +0.000 S 
ATOM     20  O   UNL     1       1.292   9.171  22.887  0.00  0.00    +0.000 OA
ATOM     21  O   UNL     1      -0.731   8.251  21.752  0.00  0.00    +0.000 OA
BRANCH  19  22
ATOM     22  C   UNL     1       1.281   8.943  20.256  0.00  0.00    +0.000 A 
ATOM     23  C   UNL     1       1.329  10.024  19.354  0.00  0.00    +0.000 A 
ATOM     24  C   UNL     1       1.832   9.849  18.071  0.00  0.00    +0.000 A 
ATOM     25  C   UNL     1       2.250   8.587  17.673  0.00  0.00    +0.000 A 
ATOM     26  C   UNL     1       2.202   7.507  18.568  0.00  0.00    +0.000 A 
ATOM     27  C   UNL     1       2.581   6.229  18.134  0.00  0.00    +0.000 A 
ATOM     28  C   UNL     1       2.589   5.165  19.021  0.00  0.00    +0.000 A 
ATOM     29  C   UNL     1       2.229   5.422  20.324  0.00  0.00    +0.000 A 
ATOM     30  N   UNL     1       1.799   6.631  20.757  0.00  0.00    +0.000 NA
ATOM     31  C   UNL     1       1.751   7.674  19.901  0.00  0.00    +0.000 A 
ENDBRANCH  19  22
ENDBRANCH   5  19
TORSDOF 5
ENDMDL
MODEL 7
REMARK VINA RESULT:      -7.5      4.379      6.184
REMARK  Name = 
REMARK  6 active torsions:
REMARK  status: ('A' for Active; 'I' for Inactive)
REMARK    1  A    between atoms: C_1  and  O_2
REMARK    2  A    between atoms: O_2  and  C_3
REMARK    3  A    between atoms: C_6  and  N_7
REMARK    4  A    between atoms: C_8  and  C_10
REMARK    5  A    between atoms: N_14  and  S_15
REMARK    6  A    between atoms: S_15  and  C_18
REMARK                            x       y       z     vdW  Elec       q    Type
REMARK                         _______ _______ _______ _____ _____    ______ ____
ROOT
ATOM      1  C   UNL     1      -0.473  11.860  21.087  0.00  0.00    +0.000 C 
ATOM      2  C   UNL     1      -0.285  11.004  22.337  0.00  0.00    +0.000 C 
ATOM      3  C   UNL     1      -1.603  10.730  23.049  0.00  0.00    +0.000 C 
ATOM      4  C   UNL     1      -2.393  12.006  23.323  0.00  0.00    +0.000 C 
ATOM      5  N   UNL     1      -2.530  12.830  22.095  0.00  0.00    +0.000 NA
ATOM      6  C   UNL     1      -1.247  13.127  21.405  0.00  0.00    +0.000 C 
ENDROOT
BRANCH   1   8
ATOM      7  N   UNL     1      -1.919  11.679  19.091  0.00  0.00    +0.000 N 
ATOM      8  C   UNL     1      -0.985  11.057  19.901  0.00  0.00    +0.000 C 
ATOM      9  O   UNL     1      -0.602   9.895  19.773  0.00  0.00    +0.000 OA
ATOM     10  H   UNL     1      -2.196  12.625  19.357  0.00  0.00    +0.000 HD
BRANCH   7  14
ATOM     11  C   UNL     1      -3.627  10.301  15.459  0.00  0.00    +0.000 A 
ATOM     12  C   UNL     1      -2.421   9.767  15.905  0.00  0.00    +0.000 A 
ATOM     13  C   UNL     1      -1.854  10.190  17.111  0.00  0.00    +0.000 A 
ATOM     14  C   UNL     1      -2.468  11.174  17.888  0.00  0.00    +0.000 A 
ATOM     15  C   UNL     1      -3.679  11.714  17.431  0.00  0.00    +0.000 A 
ATOM     16  C   UNL     1      -4.257  11.280  16.225  0.00  0.00    +0.000 A 
BRANCH  11  18
ATOM     17  C   UNL     1      -3.055   9.685  13.247  0.00  0.00    +0.000 C 
ATOM     18  O   UNL     1      -4.051   9.826  14.250  0.00  0.00    +0.000 OA
ENDBRANCH  11  18
ENDBRANCH   7  14
ENDBRANCH   1   8
BRANCH   5  19
ATOM     19  S   UNL     1      -3.607  14.165  22.250  0.00  0.00    +0.000 S 
ATOM     20  O   UNL     1      -3.186  14.977  23.373  0.00  0.00    +0.000 OA
ATOM     21  O   UNL     1      -3.642  14.764  20.929  0.00  0.00    +0.000 OA
BRANCH  19  22
ATOM     22  C   UNL     1      -5.248  13.538  22.568  0.00  0.00    +0.000 A 
ATOM     23  C   UNL     1      -5.716  13.623  23.895  0.00  0.00    +0.000 A 
ATOM     24  C   UNL     1      -6.885  12.976  24.273  0.00  0.00    +0.000 A 
ATOM     25  C   UNL     1      -7.568  12.210  23.338  0.00  0.00    +0.000 A 
ATOM     26  C   UNL     1      -7.105  12.121  22.017  0.00  0.00    +0.000 A 
ATOM     27  C   UNL     1      -7.780  11.304  21.098  0.00  0.00    +0.000 A 
ATOM     28  C   UNL     1      -7.365  11.249  19.778  0.00  0.00    +0.000 A 
ATOM     29  C   UNL     1      -6.293  12.031  19.416  0.00  0.00    +0.000 A 
ATOM     30  N   UNL     1      -5.584  12.781  20.292  0.00  0.00    +0.000 NA
ATOM     31  C   UNL     1      -5.950  12.823  21.591  0.00  0.00    +0.000 A 
ENDBRANCH  19  22
ENDBRANCH   5  19
TORSDOF 5
ENDMDL
MODEL 8
REMARK VINA RESULT:      -7.5      4.577      7.074
REMARK  Name = 
REMARK  6 active torsions:
REMARK  status: ('A' for Active; 'I' for Inactive)
REMARK    1  A    between atoms: C_1  and  O_2
REMARK    2  A    between atoms: O_2  and  C_3
REMARK    3  A    between atoms: C_6  and  N_7
REMARK    4  A    between atoms: C_8  and  C_10
REMARK    5  A    between atoms: N_14  and  S_15
REMARK    6  A    between atoms: S_15  and  C_18
REMARK                            x       y       z     vdW  Elec       q    Type
REMARK                         _______ _______ _______ _____ _____    ______ ____
ROOT
ATOM      1  C   UNL     1      -2.437   9.649  17.312  0.00  0.00    +0.000 C 
ATOM      2  C   UNL     1      -2.663   9.847  15.815  0.00  0.00    +0.000 C 
ATOM      3  C   UNL     1      -3.214  11.230  15.496  0.00  0.00    +0.000 C 
ATOM      4  C   UNL     1      -4.447  11.571  16.327  0.00  0.00    +0.000 C 
ATOM      5  N   UNL     1      -4.204  11.337  17.774  0.00  0.00    +0.000 NA
ATOM      6  C   UNL     1      -3.690   9.982  18.102  0.00  0.00    +0.000 C 
ENDROOT
BRANCH   1   8
ATOM      7  N   UNL     1      -1.245  11.647  18.146  0.00  0.00    +0.000 N 
ATOM      8  C   UNL     1      -1.156  10.310  17.801  0.00  0.00    +0.000 C 
ATOM      9  O   UNL     1      -0.118   9.650  17.795  0.00  0.00    +0.000 OA
ATOM     10  H   UNL     1      -2.159  12.087  18.037  0.00  0.00    +0.000 HD
BRANCH   7  14
ATOM     11  C   UNL     1       1.730  14.163  19.830  0.00  0.00    +0.000 A 
ATOM     12  C   UNL     1       1.698  12.810  20.158  0.00  0.00    +0.000 A 
ATOM     13  C   UNL     1       0.741  11.960  19.595  0.00  0.00    +0.000 A 
ATOM     14  C   UNL     1      -0.221  12.447  18.709  0.00  0.00    +0.000 A 
ATOM     15  C   UNL     1      -0.190  13.811  18.387  0.00  0.00    +0.000 A 
ATOM     16  C   UNL     1       0.780  14.665  18.941  0.00  0.00    +0.000 A 
BRANCH  11  18
ATOM     17  C   UNL     1       2.421  15.220  21.831  0.00  0.00    +0.000 C 
ATOM     18  O   UNL     1       2.691  14.887  20.477  0.00  0.00    +0.000 OA
ENDBRANCH  11  18
ENDBRANCH   7  14
ENDBRANCH   1   8
BRANCH   5  19
ATOM     19  S   UNL     1      -5.450  11.920  18.809  0.00  0.00    +0.000 S 
ATOM     20  O   UNL     1      -6.152  12.995  18.137  0.00  0.00    +0.000 OA
ATOM     21  O   UNL     1      -6.193  10.735  19.195  0.00  0.00    +0.000 OA
BRANCH  19  22
ATOM     22  C   UNL     1      -4.701  12.557  20.299  0.00  0.00    +0.000 A 
ATOM     23  C   UNL     1      -3.306  12.763  20.273  0.00  0.00    +0.000 A 
ATOM     24  C   UNL     1      -2.615  13.053  21.443  0.00  0.00    +0.000 A 
ATOM     25  C   UNL     1      -3.307  13.099  22.645  0.00  0.00    +0.000 A 
ATOM     26  C   UNL     1      -4.694  12.893  22.676  0.00  0.00    +0.000 A 
ATOM     27  C   UNL     1      -5.369  12.894  23.905  0.00  0.00    +0.000 A 
ATOM     28  C   UNL     1      -6.746  12.745  23.945  0.00  0.00    +0.000 A 
ATOM     29  C   UNL     1      -7.405  12.615  22.744  0.00  0.00    +0.000 A 
ATOM     30  N   UNL     1      -6.776  12.548  21.548  0.00  0.00    +0.000 NA
ATOM     31  C   UNL     1      -5.432  12.657  21.488  0.00  0.00    +0.000 A 
ENDBRANCH  19  22
ENDBRANCH   5  19
TORSDOF 5
ENDMDL
MODEL 9
REMARK VINA RESULT:      -7.5      3.735      6.115
REMARK  Name = 
REMARK  6 active torsions:
REMARK  status: ('A' for Active; 'I' for Inactive)
REMARK    1  A    between atoms: C_1  and  O_2
REMARK    2  A    between atoms: O_2  and  C_3
REMARK    3  A    between atoms: C_6  and  N_7
REMARK    4  A    between atoms: C_8  and  C_10
REMARK    5  A    between atoms: N_14  and  S_15
REMARK    6  A    between atoms: S_15  and  C_18
REMARK                            x       y       z     vdW  Elec       q    Type
REMARK                         _______ _______ _______ _____ _____    ______ ____
ROOT
ATOM      1  C   UNL     1       0.883  10.658  20.903  0.00  0.00    +0.000 C 
ATOM      2  C   UNL     1       0.736   9.563  21.956  0.00  0.00    +0.000 C 
ATOM      3  C   UNL     1      -0.623   9.605  22.642  0.00  0.00    +0.000 C 
ATOM      4  C   UNL     1      -0.958  10.991  23.184  0.00  0.00    +0.000 C 
ATOM      5  N   UNL     1      -0.775  12.036  22.145  0.00  0.00    +0.000 NA
ATOM      6  C   UNL     1       0.558  12.022  21.485  0.00  0.00    +0.000 C 
ENDROOT
BRANCH   1   8
ATOM      7  N   UNL     1      -1.103  10.818  19.440  0.00  0.00    +0.000 N 
ATOM      8  C   UNL     1       0.176  10.314  19.600  0.00  0.00    +0.000 C 
ATOM      9  O   UNL     1       0.742   9.561  18.809  0.00  0.00    +0.000 OA
ATOM     10  H   UNL     1      -1.474  11.374  20.211  0.00  0.00    +0.000 HD
BRANCH   7  14
ATOM     11  C   UNL     1      -3.588  10.644  16.004  0.00  0.00    +0.000 A 
ATOM     12  C   UNL     1      -2.423   9.883  16.057  0.00  0.00    +0.000 A 
ATOM     13  C   UNL     1      -1.603   9.908  17.190  0.00  0.00    +0.000 A 
ATOM     14  C   UNL     1      -1.917  10.712  18.287  0.00  0.00    +0.000 A 
ATOM     15  C   UNL     1      -3.088  11.482  18.226  0.00  0.00    +0.000 A 
ATOM     16  C   UNL     1      -3.920  11.447  17.093  0.00  0.00    +0.000 A 
BRANCH  11  18
ATOM     17  C   UNL     1      -3.591   9.943  13.744  0.00  0.00    +0.000 C 
ATOM     18  O   UNL     1      -4.277  10.554  14.828  0.00  0.00    +0.000 OA
ENDBRANCH  11  18
ENDBRANCH   7  14
ENDBRANCH   1   8
BRANCH   5  19
ATOM     19  S   UNL     1      -1.357  13.593  22.590  0.00  0.00    +0.000 S 
ATOM     20  O   UNL     1      -0.903  13.897  23.933  0.00  0.00    +0.000 OA
ATOM     21  O   UNL     1      -0.951  14.463  21.503  0.00  0.00    +0.000 OA
BRANCH  19  22
ATOM     22  C   UNL     1      -3.142  13.560  22.574  0.00  0.00    +0.000 A 
ATOM     23  C   UNL     1      -3.754  12.639  21.700  0.00  0.00    +0.000 A 
ATOM     24  C   UNL     1      -5.123  12.690  21.468  0.00  0.00    +0.000 A 
ATOM     25  C   UNL     1      -5.876  13.684  22.077  0.00  0.00    +0.000 A 
ATOM     26  C   UNL     1      -5.271  14.604  22.946  0.00  0.00    +0.000 A 
ATOM     27  C   UNL     1      -6.039  15.632  23.513  0.00  0.00    +0.000 A 
ATOM     28  C   UNL     1      -5.465  16.514  24.415  0.00  0.00    +0.000 A 
ATOM     29  C   UNL     1      -4.140  16.326  24.730  0.00  0.00    +0.000 A 
ATOM     30  N   UNL     1      -3.358  15.384  24.153  0.00  0.00    +0.000 NA
ATOM     31  C   UNL     1      -3.888  14.534  23.248  0.00  0.00    +0.000 A 
ENDBRANCH  19  22
ENDBRANCH   5  19
TORSDOF 5
ENDMDL
