MODEL 1
REMARK VINA RESULT:      -8.5      0.000      0.000
REMARK  Name = 
REMARK  5 active torsions:
REMARK  status: ('A' for Active; 'I' for Inactive)
REMARK    1  A    between atoms: C_1  and  O_2
REMARK    2  A    between atoms: O_2  and  C_3
REMARK    3  A    between atoms: C_7  and  C_8
REMARK    4  A    between atoms: C_26  and  C_27
REMARK    5  A    between atoms: C_27  and  O_29
REMARK                            x       y       z     vdW  Elec       q    Type
REMARK                         _______ _______ _______ _____ _____    ______ ____
ROOT
ATOM      1  C   UNL     1      -2.969  12.542  23.510  0.00  0.00    +0.000 A 
ATOM      2  C   UNL     1      -2.165  13.679  23.509  0.00  0.00    +0.000 A 
ATOM      3  C   UNL     1      -0.991  13.605  22.770  0.00  0.00    +0.000 A 
ATOM      4  C   UNL     1      -0.665  12.376  22.232  0.00  0.00    +0.000 A 
ATOM      5  C   UNL     1      -1.154  11.283  22.927  0.00  0.00    +0.000 A 
ATOM      6  N   UNL     1      -2.400  11.307  23.441  0.00  0.00    +0.000 NA
ATOM      7  C   UNL     1      -0.326  10.032  22.816  0.00  0.00    +0.000 C 
ATOM      8  C   UNL     1      -0.163   9.675  21.348  0.00  0.00    +0.000 C 
ATOM      9  C   UNL     1       0.196  10.886  20.441  0.00  0.00    +0.000 A 
ATOM     10  C   UNL     1      -0.406  12.095  20.797  0.00  0.00    +0.000 A 
ATOM     11  N   UNL     1      -1.345  12.623  19.953  0.00  0.00    +0.000 NA
ATOM     12  C   UNL     1      -1.759  11.869  18.899  0.00  0.00    +0.000 A 
ATOM     13  C   UNL     1      -3.025  12.040  18.328  0.00  0.00    +0.000 A 
ATOM     14  C   UNL     1      -3.543  11.133  17.380  0.00  0.00    +0.000 A 
ATOM     15  C   UNL     1      -2.760  10.071  16.955  0.00  0.00    +0.000 A 
ATOM     16  F   UNL     1      -3.270   9.151  16.128  0.00  0.00    +0.000 F 
ATOM     17  C   UNL     1      -1.472   9.922  17.427  0.00  0.00    +0.000 A 
ATOM     18  C   UNL     1      -0.980  10.811  18.416  0.00  0.00    +0.000 A 
ATOM     19  C   UNL     1       0.208  10.577  19.087  0.00  0.00    +0.000 A 
ENDROOT
BRANCH   1  24
ATOM     20  C   UNL     1      -6.126  12.919  21.378  0.00  0.00    +0.000 A 
ATOM     21  C   UNL     1      -7.094  13.136  22.362  0.00  0.00    +0.000 A 
ATOM     22  C   UNL     1      -6.738  13.130  23.703  0.00  0.00    +0.000 A 
ATOM     23  C   UNL     1      -5.409  12.898  24.055  0.00  0.00    +0.000 A 
ATOM     24  C   UNL     1      -4.398  12.652  23.091  0.00  0.00    +0.000 A 
ATOM     25  C   UNL     1      -4.790  12.686  21.742  0.00  0.00    +0.000 A 
BRANCH  20  27
ATOM     26  C   UNL     1      -6.837  11.739  19.450  0.00  0.00    +0.000 C 
ATOM     27  O   UNL     1      -6.611  12.982  20.099  0.00  0.00    +0.000 OA
ENDBRANCH  20  27
ENDBRANCH   1  24
BRANCH  19  28
ATOM     28  C   UNL     1       1.288   9.708  18.542  0.00  0.00    +0.000 C 
ATOM     29  O   UNL     1       1.583   8.631  18.987  0.00  0.00    +0.000 OA
BRANCH  28  30
ATOM     30  O   UNL     1       1.960  10.325  17.544  0.00  0.00    +0.000 OA
ATOM     31  H   UNL     1       2.923  10.135  17.491  0.00  0.00    +0.000 HD
ENDBRANCH  28  30
ENDBRANCH  19  28
TORSDOF 4
ENDMDL
MODEL 2
REMARK VINA RESULT:      -7.6      3.039      7.200
REMARK  Name = 
REMARK  5 active torsions:
REMARK  status: ('A' for Active; 'I' for Inactive)
REMARK    1  A    between atoms: C_1  and  O_2
REMARK    2  A    between atoms: O_2  and  C_3
REMARK    3  A    between atoms: C_7  and  C_8
REMARK    4  A    between atoms: C_26  and  C_27
REMARK    5  A    between atoms: C_27  and  O_29
REMARK                            x       y       z     vdW  Elec       q    Type
REMARK                         _______ _______ _______ _____ _____    ______ ____
ROOT
ATOM      1  C   UNL     1      -5.777  11.613  17.131  0.00  0.00    +0.000 A 
ATOM      2  C   UNL     1      -6.080  12.947  16.875  0.00  0.00    +0.000 A 
ATOM      3  C   UNL     1      -6.367  13.738  17.981  0.00  0.00    +0.000 A 
ATOM      4  C   UNL     1      -6.466  13.100  19.201  0.00  0.00    +0.000 A 
ATOM      5  C   UNL     1      -6.855  11.772  19.138  0.00  0.00    +0.000 A 
ATOM      6  N   UNL     1      -6.372  10.967  18.171  0.00  0.00    +0.000 NA
ATOM      7  C   UNL     1      -7.600  11.267  20.344  0.00  0.00    +0.000 C 
ATOM      8  C   UNL     1      -6.749  11.492  21.582  0.00  0.00    +0.000 C 
ATOM      9  C   UNL     1      -6.096  12.903  21.649  0.00  0.00    +0.000 A 
ATOM     10  C   UNL     1      -5.686  13.428  20.421  0.00  0.00    +0.000 A 
ATOM     11  N   UNL     1      -4.345  13.575  20.196  0.00  0.00    +0.000 NA
ATOM     12  C   UNL     1      -3.478  13.056  21.108  0.00  0.00    +0.000 A 
ATOM     13  C   UNL     1      -2.184  12.665  20.749  0.00  0.00    +0.000 A 
ATOM     14  C   UNL     1      -1.354  11.939  21.628  0.00  0.00    +0.000 A 
ATOM     15  C   UNL     1      -1.806  11.647  22.906  0.00  0.00    +0.000 A 
ATOM     16  F   UNL     1      -1.071  10.880  23.719  0.00  0.00    +0.000 F 
ATOM     17  C   UNL     1      -3.042  12.095  23.328  0.00  0.00    +0.000 A 
ATOM     18  C   UNL     1      -3.886  12.782  22.419  0.00  0.00    +0.000 A 
ATOM     19  C   UNL     1      -5.212  13.051  22.711  0.00  0.00    +0.000 A 
ENDROOT
BRANCH   1  24
ATOM     20  C   UNL     1      -3.078  10.183  14.824  0.00  0.00    +0.000 A 
ATOM     21  C   UNL     1      -2.148   9.709  15.754  0.00  0.00    +0.000 A 
ATOM     22  C   UNL     1      -2.375   9.876  17.112  0.00  0.00    +0.000 A 
ATOM     23  C   UNL     1      -3.532  10.527  17.536  0.00  0.00    +0.000 A 
ATOM     24  C   UNL     1      -4.491  11.042  16.627  0.00  0.00    +0.000 A 
ATOM     25  C   UNL     1      -4.241  10.837  15.260  0.00  0.00    +0.000 A 
BRANCH  20  27
ATOM     26  C   UNL     1      -3.821   9.774  12.611  0.00  0.00    +0.000 C 
ATOM     27  O   UNL     1      -2.741   9.924  13.522  0.00  0.00    +0.000 OA
ENDBRANCH  20  27
ENDBRANCH   1  24
BRANCH  19  28
ATOM     28  C   UNL     1      -5.740  13.109  24.102  0.00  0.00    +0.000 C 
ATOM     29  O   UNL     1      -5.969  12.144  24.783  0.00  0.00    +0.000 OA
BRANCH  28  30
ATOM     30  O   UNL     1      -6.020  14.379  24.470  0.00  0.00    +0.000 OA
ATOM     31  H   UNL     1      -5.298  14.864  24.928  0.00  0.00    +0.000 HD
ENDBRANCH  28  30
ENDBRANCH  19  28
TORSDOF 4
ENDMDL
MODEL 3
REMARK VINA RESULT:      -7.3      3.165      6.273
REMARK  Name = 
REMARK  5 active torsions:
REMARK  status: ('A' for Active; 'I' for Inactive)
REMARK    1  A    between atoms: C_1  and  O_2
REMARK    2  A    between atoms: O_2  and  C_3
REMARK    3  A    between atoms: C_7  and  C_8
REMARK    4  A    between atoms: C_26  and  C_27
REMARK    5  A    between atoms: C_27  and  O_29
REMARK                            x       y       z     vdW  Elec       q    Type
REMARK                         _______ _______ _______ _____ _____    ______ ____
ROOT
ATOM      1  C   UNL     1      -0.644  11.029  19.528  0.00  0.00    +0.000 A 
ATOM      2  C   UNL     1      -0.355  10.012  20.434  0.00  0.00    +0.000 A 
ATOM      3  C   UNL     1      -0.266  10.382  21.771  0.00  0.00    +0.000 A 
ATOM      4  C   UNL     1      -0.330  11.731  22.054  0.00  0.00    +0.000 A 
ATOM      5  C   UNL     1       0.114  12.565  21.040  0.00  0.00    +0.000 A 
ATOM      6  N   UNL     1      -0.189  12.292  19.756  0.00  0.00    +0.000 NA
ATOM      7  C   UNL     1       0.686  13.879  21.498  0.00  0.00    +0.000 C 
ATOM      8  C   UNL     1      -0.350  14.603  22.340  0.00  0.00    +0.000 C 
ATOM      9  C   UNL     1      -1.057  13.696  23.388  0.00  0.00    +0.000 A 
ATOM     10  C   UNL     1      -1.296  12.384  22.973  0.00  0.00    +0.000 A 
ATOM     11  N   UNL     1      -2.592  11.992  22.780  0.00  0.00    +0.000 NA
ATOM     12  C   UNL     1      -3.567  12.940  22.842  0.00  0.00    +0.000 A 
ATOM     13  C   UNL     1      -4.777  12.794  22.157  0.00  0.00    +0.000 A 
ATOM     14  C   UNL     1      -5.703  13.852  22.044  0.00  0.00    +0.000 A 
ATOM     15  C   UNL     1      -5.438  15.059  22.675  0.00  0.00    +0.000 A 
ATOM     16  F   UNL     1      -6.258  16.100  22.501  0.00  0.00    +0.000 F 
ATOM     17  C   UNL     1      -4.297  15.211  23.437  0.00  0.00    +0.000 A 
ATOM     18  C   UNL     1      -3.351  14.156  23.502  0.00  0.00    +0.000 A 
ATOM     19  C   UNL     1      -2.095  14.332  24.057  0.00  0.00    +0.000 A 
ENDROOT
BRANCH   1  24
ATOM     20  C   UNL     1      -2.836  10.132  16.522  0.00  0.00    +0.000 A 
ATOM     21  C   UNL     1      -3.987  10.878  16.792  0.00  0.00    +0.000 A 
ATOM     22  C   UNL     1      -4.068  11.639  17.948  0.00  0.00    +0.000 A 
ATOM     23  C   UNL     1      -2.995  11.644  18.838  0.00  0.00    +0.000 A 
ATOM     24  C   UNL     1      -1.817  10.887  18.614  0.00  0.00    +0.000 A 
ATOM     25  C   UNL     1      -1.760  10.144  17.423  0.00  0.00    +0.000 A 
BRANCH  20  27
ATOM     26  C   UNL     1      -3.368  10.177  14.212  0.00  0.00    +0.000 C 
ATOM     27  O   UNL     1      -2.882   9.453  15.333  0.00  0.00    +0.000 OA
ENDBRANCH  20  27
ENDBRANCH   1  24
BRANCH  19  28
ATOM     28  C   UNL     1      -1.786  15.410  25.037  0.00  0.00    +0.000 C 
ATOM     29  O   UNL     1      -1.269  16.458  24.753  0.00  0.00    +0.000 OA
BRANCH  28  30
ATOM     30  O   UNL     1      -2.070  15.022  26.301  0.00  0.00    +0.000 OA
ATOM     31  H   UNL     1      -2.740  14.308  26.392  0.00  0.00    +0.000 HD
ENDBRANCH  28  30
ENDBRANCH  19  28
TORSDOF 4
ENDMDL
MODEL 4
REMARK VINA RESULT:      -7.3      0.977      1.202
REMARK  Name = 
REMARK  5 active torsions:
REMARK  status: ('A' for Active; 'I' for Inactive)
REMARK    1  A    between atoms: C_1  and  O_2
REMARK    2  A    between atoms: O_2  and  C_3
REMARK    3  A    between atoms: C_7  and  C_8
REMARK    4  A    between atoms: C_26  and  C_27
REMARK    5  A    between atoms: C_27  and  O_29
REMARK                            x       y       z     vdW  Elec       q    Type
REMARK                         _______ _______ _______ _____ _____    ______ ____
ROOT
ATOM      1  C   UNL     1      -2.871  13.217  23.081  0.00  0.00    +0.000 A 
ATOM      2  C   UNL     1      -1.860  14.173  23.140  0.00  0.00    +0.000 A 
ATOM      3  C   UNL     1      -0.621  13.793  22.639  0.00  0.00    +0.000 A 
ATOM      4  C   UNL     1      -0.472  12.471  22.268  0.00  0.00    +0.000 A 
ATOM      5  C   UNL     1      -1.287  11.577  22.943  0.00  0.00    +0.000 A 
ATOM      6  N   UNL     1      -2.567  11.896  23.215  0.00  0.00    +0.000 NA
ATOM      7  C   UNL     1      -0.729  10.187  23.086  0.00  0.00    +0.000 C 
ATOM      8  C   UNL     1      -0.403   9.641  21.706  0.00  0.00    +0.000 C 
ATOM      9  C   UNL     1       0.345  10.651  20.789  0.00  0.00    +0.000 A 
ATOM     10  C   UNL     1      -0.044  11.985  20.932  0.00  0.00    +0.000 A 
ATOM     11  N   UNL     1      -0.699  12.583  19.891  0.00  0.00    +0.000 NA
ATOM     12  C   UNL     1      -1.081  11.807  18.840  0.00  0.00    +0.000 A 
ATOM     13  C   UNL     1      -2.171  12.150  18.033  0.00  0.00    +0.000 A 
ATOM     14  C   UNL     1      -2.702  11.257  17.079  0.00  0.00    +0.000 A 
ATOM     15  C   UNL     1      -2.098  10.023  16.891  0.00  0.00    +0.000 A 
ATOM     16  F   UNL     1      -2.643   9.130  16.058  0.00  0.00    +0.000 F 
ATOM     17  C   UNL     1      -0.965   9.686  17.603  0.00  0.00    +0.000 A 
ATOM     18  C   UNL     1      -0.470  10.572  18.594  0.00  0.00    +0.000 A 
ATOM     19  C   UNL     1       0.516  10.193  19.489  0.00  0.00    +0.000 A 
ENDROOT
BRANCH   1  24
ATOM     20  C   UNL     1      -6.326  12.910  21.463  0.00  0.00    +0.000 A 
ATOM     21  C   UNL     1      -6.456  14.164  20.858  0.00  0.00    +0.000 A 
ATOM     22  C   UNL     1      -5.452  15.111  20.997  0.00  0.00    +0.000 A 
ATOM     23  C   UNL     1      -4.321  14.800  21.750  0.00  0.00    +0.000 A 
ATOM     24  C   UNL     1      -4.157  13.549  22.398  0.00  0.00    +0.000 A 
ATOM     25  C   UNL     1      -5.183  12.606  22.219  0.00  0.00    +0.000 A 
BRANCH  20  27
ATOM     26  C   UNL     1      -7.116  10.970  20.353  0.00  0.00    +0.000 C 
ATOM     27  O   UNL     1      -7.377  12.066  21.218  0.00  0.00    +0.000 OA
ENDBRANCH  20  27
ENDBRANCH   1  24
BRANCH  19  28
ATOM     28  C   UNL     1       1.468   9.079  19.222  0.00  0.00    +0.000 C 
ATOM     29  O   UNL     1       1.648   8.148  19.962  0.00  0.00    +0.000 OA
BRANCH  28  30
ATOM     30  O   UNL     1       2.173   9.294  18.089  0.00  0.00    +0.000 OA
ATOM     31  H   UNL     1       3.080   8.914  18.068  0.00  0.00    +0.000 HD
ENDBRANCH  28  30
ENDBRANCH  19  28
TORSDOF 4
ENDMDL
MODEL 5
REMARK VINA RESULT:      -7.2      2.879      6.152
REMARK  Name = 
REMARK  5 active torsions:
REMARK  status: ('A' for Active; 'I' for Inactive)
REMARK    1  A    between atoms: C_1  and  O_2
REMARK    2  A    between atoms: O_2  and  C_3
REMARK    3  A    between atoms: C_7  and  C_8
REMARK    4  A    between atoms: C_26  and  C_27
REMARK    5  A    between atoms: C_27  and  O_29
REMARK                            x       y       z     vdW  Elec       q    Type
REMARK                         _______ _______ _______ _____ _____    ______ ____
ROOT
ATOM      1  C   UNL     1      -0.547  11.108  19.646  0.00  0.00    +0.000 A 
ATOM      2  C   UNL     1      -0.371  10.066  20.553  0.00  0.00    +0.000 A 
ATOM      3  C   UNL     1      -0.485  10.393  21.899  0.00  0.00    +0.000 A 
ATOM      4  C   UNL     1      -0.617  11.731  22.211  0.00  0.00    +0.000 A 
ATOM      5  C   UNL     1      -0.049  12.605  21.298  0.00  0.00    +0.000 A 
ATOM      6  N   UNL     1      -0.156  12.369  19.976  0.00  0.00    +0.000 NA
ATOM      7  C   UNL     1       0.424  13.912  21.874  0.00  0.00    +0.000 C 
ATOM      8  C   UNL     1      -0.738  14.591  22.578  0.00  0.00    +0.000 C 
ATOM      9  C   UNL     1      -1.570  13.639  23.484  0.00  0.00    +0.000 A 
ATOM     10  C   UNL     1      -1.719  12.337  22.999  0.00  0.00    +0.000 A 
ATOM     11  N   UNL     1      -2.965  11.931  22.608  0.00  0.00    +0.000 NA
ATOM     12  C   UNL     1      -3.959  12.860  22.557  0.00  0.00    +0.000 A 
ATOM     13  C   UNL     1      -5.054  12.717  21.699  0.00  0.00    +0.000 A 
ATOM     14  C   UNL     1      -5.975  13.763  21.485  0.00  0.00    +0.000 A 
ATOM     15  C   UNL     1      -5.829  14.952  22.183  0.00  0.00    +0.000 A 
ATOM     16  F   UNL     1      -6.638  15.985  21.924  0.00  0.00    +0.000 F 
ATOM     17  C   UNL     1      -4.815  15.098  23.107  0.00  0.00    +0.000 A 
ATOM     18  C   UNL     1      -3.866  14.057  23.277  0.00  0.00    +0.000 A 
ATOM     19  C   UNL     1      -2.708  14.235  24.014  0.00  0.00    +0.000 A 
ENDROOT
BRANCH   1  24
ATOM     20  C   UNL     1      -3.808  11.386  17.661  0.00  0.00    +0.000 A 
ATOM     21  C   UNL     1      -3.577  10.473  16.628  0.00  0.00    +0.000 A 
ATOM     22  C   UNL     1      -2.368   9.796  16.555  0.00  0.00    +0.000 A 
ATOM     23  C   UNL     1      -1.388  10.043  17.516  0.00  0.00    +0.000 A 
ATOM     24  C   UNL     1      -1.572  10.976  18.568  0.00  0.00    +0.000 A 
ATOM     25  C   UNL     1      -2.816  11.629  18.624  0.00  0.00    +0.000 A 
BRANCH  20  27
ATOM     26  C   UNL     1      -6.089  11.248  18.288  0.00  0.00    +0.000 C 
ATOM     27  O   UNL     1      -5.052  11.958  17.627  0.00  0.00    +0.000 OA
ENDBRANCH  20  27
ENDBRANCH   1  24
BRANCH  19  28
ATOM     28  C   UNL     1      -2.566  15.285  25.061  0.00  0.00    +0.000 C 
ATOM     29  O   UNL     1      -2.159  16.398  24.856  0.00  0.00    +0.000 OA
BRANCH  28  30
ATOM     30  O   UNL     1      -2.861  14.800  26.287  0.00  0.00    +0.000 OA
ATOM     31  H   UNL     1      -3.393  13.973  26.307  0.00  0.00    +0.000 HD
ENDBRANCH  28  30
ENDBRANCH  19  28
TORSDOF 4
ENDMDL
MODEL 6
REMARK VINA RESULT:      -7.2      1.123      1.765
REMARK  Name = 
REMARK  5 active torsions:
REMARK  status: ('A' for Active; 'I' for Inactive)
REMARK    1  A    between atoms: C_1  and  O_2
REMARK    2  A    between atoms: O_2  and  C_3
REMARK    3  A    between atoms: C_7  and  C_8
REMARK    4  A    between atoms: C_26  and  C_27
REMARK    5  A    between atoms: C_27  and  O_29
REMARK                            x       y       z     vdW  Elec       q    Type
REMARK                         _______ _______ _______ _____ _____    ______ ____
ROOT
ATOM      1  C   UNL     1      -2.369  13.013  23.095  0.00  0.00    +0.000 A 
ATOM      2  C   UNL     1      -1.386  13.998  23.039  0.00  0.00    +0.000 A 
ATOM      3  C   UNL     1      -0.220  13.669  22.359  0.00  0.00    +0.000 A 
ATOM      4  C   UNL     1      -0.088  12.362  21.934  0.00  0.00    +0.000 A 
ATOM      5  C   UNL     1      -0.775  11.427  22.691  0.00  0.00    +0.000 A 
ATOM      6  N   UNL     1      -2.013  11.700  23.148  0.00  0.00    +0.000 NA
ATOM      7  C   UNL     1      -0.165  10.052  22.715  0.00  0.00    +0.000 C 
ATOM      8  C   UNL     1      -0.021   9.549  21.288  0.00  0.00    +0.000 C 
ATOM      9  C   UNL     1       0.563  10.604  20.304  0.00  0.00    +0.000 A 
ATOM     10  C   UNL     1       0.161  11.921  20.538  0.00  0.00    +0.000 A 
ATOM     11  N   UNL     1      -0.650  12.523  19.616  0.00  0.00    +0.000 NA
ATOM     12  C   UNL     1      -1.155  11.761  18.607  0.00  0.00    +0.000 A 
ATOM     13  C   UNL     1      -2.356  12.089  17.971  0.00  0.00    +0.000 A 
ATOM     14  C   UNL     1      -2.992  11.203  17.076  0.00  0.00    +0.000 A 
ATOM     15  C   UNL     1      -2.386   9.994  16.770  0.00  0.00    +0.000 A 
ATOM     16  F   UNL     1      -3.018   9.104  15.997  0.00  0.00    +0.000 F 
ATOM     17  C   UNL     1      -1.155   9.675  17.307  0.00  0.00    +0.000 A 
ATOM     18  C   UNL     1      -0.551  10.552  18.243  0.00  0.00    +0.000 A 
ATOM     19  C   UNL     1       0.561  10.183  18.981  0.00  0.00    +0.000 A 
ENDROOT
BRANCH   1  24
ATOM     20  C   UNL     1      -6.043  14.081  22.982  0.00  0.00    +0.000 A 
ATOM     21  C   UNL     1      -6.417  13.633  21.712  0.00  0.00    +0.000 A 
ATOM     22  C   UNL     1      -5.486  13.020  20.887  0.00  0.00    +0.000 A 
ATOM     23  C   UNL     1      -4.175  12.864  21.336  0.00  0.00    +0.000 A 
ATOM     24  C   UNL     1      -3.747  13.322  22.608  0.00  0.00    +0.000 A 
ATOM     25  C   UNL     1      -4.720  13.919  23.425  0.00  0.00    +0.000 A 
BRANCH  20  27
ATOM     26  C   UNL     1      -7.917  13.736  24.391  0.00  0.00    +0.000 C 
ATOM     27  O   UNL     1      -7.068  14.640  23.698  0.00  0.00    +0.000 OA
ENDBRANCH  20  27
ENDBRANCH   1  24
BRANCH  19  28
ATOM     28  C   UNL     1       1.496   9.105  18.553  0.00  0.00    +0.000 C 
ATOM     29  O   UNL     1       2.033   9.059  17.478  0.00  0.00    +0.000 OA
BRANCH  28  30
ATOM     30  O   UNL     1       1.591   8.135  19.489  0.00  0.00    +0.000 OA
ATOM     31  H   UNL     1       2.077   8.375  20.310  0.00  0.00    +0.000 HD
ENDBRANCH  28  30
ENDBRANCH  19  28
TORSDOF 4
ENDMDL
MODEL 7
REMARK VINA RESULT:      -7.0      3.465      6.404
REMARK  Name = 
REMARK  5 active torsions:
REMARK  status: ('A' for Active; 'I' for Inactive)
REMARK    1  A    between atoms: C_1  and  O_2
REMARK    2  A    between atoms: O_2  and  C_3
REMARK    3  A    between atoms: C_7  and  C_8
REMARK    4  A    between atoms: C_26  and  C_27
REMARK    5  A    between atoms: C_27  and  O_29
REMARK                            x       y       z     vdW  Elec       q    Type
REMARK                         _______ _______ _______ _____ _____    ______ ____
ROOT
ATOM      1  C   UNL     1      -1.238  11.888  19.521  0.00  0.00    +0.000 A 
ATOM      2  C   UNL     1      -0.704  10.853  20.286  0.00  0.00    +0.000 A 
ATOM      3  C   UNL     1      -0.386  11.161  21.603  0.00  0.00    +0.000 A 
ATOM      4  C   UNL     1      -0.491  12.484  21.982  0.00  0.00    +0.000 A 
ATOM      5  C   UNL     1      -0.315  13.402  20.960  0.00  0.00    +0.000 A 
ATOM      6  N   UNL     1      -0.841  13.171  19.741  0.00  0.00    +0.000 NA
ATOM      7  C   UNL     1       0.237  14.735  21.388  0.00  0.00    +0.000 C 
ATOM      8  C   UNL     1      -0.666  15.325  22.457  0.00  0.00    +0.000 C 
ATOM      9  C   UNL     1      -1.087  14.309  23.557  0.00  0.00    +0.000 A 
ATOM     10  C   UNL     1      -1.306  13.004  23.109  0.00  0.00    +0.000 A 
ATOM     11  N   UNL     1      -2.583  12.515  23.139  0.00  0.00    +0.000 NA
ATOM     12  C   UNL     1      -3.594  13.373  23.448  0.00  0.00    +0.000 A 
ATOM     13  C   UNL     1      -4.900  13.160  22.996  0.00  0.00    +0.000 A 
ATOM     14  C   UNL     1      -5.905  14.141  23.131  0.00  0.00    +0.000 A 
ATOM     15  C   UNL     1      -5.611  15.331  23.779  0.00  0.00    +0.000 A 
ATOM     16  F   UNL     1      -6.524  16.307  23.833  0.00  0.00    +0.000 F 
ATOM     17  C   UNL     1      -4.359  15.540  24.319  0.00  0.00    +0.000 A 
ATOM     18  C   UNL     1      -3.344  14.567  24.134  0.00  0.00    +0.000 A 
ATOM     19  C   UNL     1      -2.020  14.820  24.451  0.00  0.00    +0.000 A 
ENDROOT
BRANCH   1  24
ATOM     20  C   UNL     1      -3.894  11.145  16.866  0.00  0.00    +0.000 A 
ATOM     21  C   UNL     1      -5.050  11.603  17.503  0.00  0.00    +0.000 A 
ATOM     22  C   UNL     1      -4.979  12.119  18.789  0.00  0.00    +0.000 A 
ATOM     23  C   UNL     1      -3.747  12.166  19.438  0.00  0.00    +0.000 A 
ATOM     24  C   UNL     1      -2.552  11.693  18.838  0.00  0.00    +0.000 A 
ATOM     25  C   UNL     1      -2.656  11.198  17.528  0.00  0.00    +0.000 A 
BRANCH  20  27
ATOM     26  C   UNL     1      -2.950  10.305  14.861  0.00  0.00    +0.000 C 
ATOM     27  O   UNL     1      -4.105  10.692  15.591  0.00  0.00    +0.000 OA
ENDBRANCH  20  27
ENDBRANCH   1  24
BRANCH  19  28
ATOM     28  C   UNL     1      -1.606  15.869  25.424  0.00  0.00    +0.000 C 
ATOM     29  O   UNL     1      -1.397  17.018  25.137  0.00  0.00    +0.000 OA
BRANCH  28  30
ATOM     30  O   UNL     1      -1.400  15.346  26.654  0.00  0.00    +0.000 OA
ATOM     31  H   UNL     1      -1.178  14.388  26.683  0.00  0.00    +0.000 HD
ENDBRANCH  28  30
ENDBRANCH  19  28
TORSDOF 4
ENDMDL
MODEL 8
REMARK VINA RESULT:      -6.8      3.420      7.594
REMARK  Name = 
REMARK  5 active torsions:
REMARK  status: ('A' for Active; 'I' for Inactive)
REMARK    1  A    between atoms: C_1  and  O_2
REMARK    2  A    between atoms: O_2  and  C_3
REMARK    3  A    between atoms: C_7  and  C_8
REMARK    4  A    between atoms: C_26  and  C_27
REMARK    5  A    between atoms: C_27  and  O_29
REMARK                            x       y       z     vdW  Elec       q    Type
REMARK                         _______ _______ _______ _____ _____    ______ ____
ROOT
ATOM      1  C   UNL     1      -6.049  11.486  17.615  0.00  0.00    +0.000 A 
ATOM      2  C   UNL     1      -6.695  12.580  17.044  0.00  0.00    +0.000 A 
ATOM      3  C   UNL     1      -7.246  13.502  17.925  0.00  0.00    +0.000 A 
ATOM      4  C   UNL     1      -7.226  13.177  19.267  0.00  0.00    +0.000 A 
ATOM      5  C   UNL     1      -7.232  11.819  19.541  0.00  0.00    +0.000 A 
ATOM      6  N   UNL     1      -6.496  10.972  18.794  0.00  0.00    +0.000 NA
ATOM      7  C   UNL     1      -7.869  11.434  20.849  0.00  0.00    +0.000 C 
ATOM      8  C   UNL     1      -7.177  12.181  21.976  0.00  0.00    +0.000 C 
ATOM      9  C   UNL     1      -6.942  13.691  21.680  0.00  0.00    +0.000 A 
ATOM     10  C   UNL     1      -6.630  13.995  20.353  0.00  0.00    +0.000 A 
ATOM     11  N   UNL     1      -5.372  14.453  20.072  0.00  0.00    +0.000 NA
ATOM     12  C   UNL     1      -4.444  14.433  21.067  0.00  0.00    +0.000 A 
ATOM     13  C   UNL     1      -3.075  14.345  20.791  0.00  0.00    +0.000 A 
ATOM     14  C   UNL     1      -2.123  14.115  21.807  0.00  0.00    +0.000 A 
ATOM     15  C   UNL     1      -2.543  14.027  23.126  0.00  0.00    +0.000 A 
ATOM     16  F   UNL     1      -1.668  13.717  24.088  0.00  0.00    +0.000 F 
ATOM     17  C   UNL     1      -3.874  14.200  23.447  0.00  0.00    +0.000 A 
ATOM     18  C   UNL     1      -4.827  14.382  22.413  0.00  0.00    +0.000 A 
ATOM     19  C   UNL     1      -6.189  14.333  22.655  0.00  0.00    +0.000 A 
ENDROOT
BRANCH   1  24
ATOM     20  C   UNL     1      -2.939  10.425  15.652  0.00  0.00    +0.000 A 
ATOM     21  C   UNL     1      -1.977  10.390  16.665  0.00  0.00    +0.000 A 
ATOM     22  C   UNL     1      -2.321  10.735  17.964  0.00  0.00    +0.000 A 
ATOM     23  C   UNL     1      -3.630  11.124  18.243  0.00  0.00    +0.000 A 
ATOM     24  C   UNL     1      -4.633  11.194  17.243  0.00  0.00    +0.000 A 
ATOM     25  C   UNL     1      -4.256  10.817  15.943  0.00  0.00    +0.000 A 
BRANCH  20  27
ATOM     26  C   UNL     1      -3.433   9.926  13.388  0.00  0.00    +0.000 C 
ATOM     27  O   UNL     1      -2.470  10.032  14.427  0.00  0.00    +0.000 OA
ENDBRANCH  20  27
ENDBRANCH   1  24
BRANCH  19  28
ATOM     28  C   UNL     1      -6.783  14.576  23.999  0.00  0.00    +0.000 C 
ATOM     29  O   UNL     1      -7.556  13.834  24.544  0.00  0.00    +0.000 OA
BRANCH  28  30
ATOM     30  O   UNL     1      -6.417  15.782  24.488  0.00  0.00    +0.000 OA
ATOM     31  H   UNL     1      -6.093  16.434  23.827  0.00  0.00    +0.000 HD
ENDBRANCH  28  30
ENDBRANCH  19  28
TORSDOF 4
ENDMDL
MODEL 9
REMARK VINA RESULT:      -6.6      3.394      6.292
REMARK  Name = 
REMARK  5 active torsions:
REMARK  status: ('A' for Active; 'I' for Inactive)
REMARK    1  A    between atoms: C_1  and  O_2
REMARK    2  A    between atoms: O_2  and  C_3
REMARK    3  A    between atoms: C_7  and  C_8
REMARK    4  A    between atoms: C_26  and  C_27
REMARK    5  A    between atoms: C_27  and  O_29
REMARK                            x       y       z     vdW  Elec       q    Type
REMARK                         _______ _______ _______ _____ _____    ______ ____
ROOT
ATOM      1  C   UNL     1      -0.887  12.152  18.733  0.00  0.00    +0.000 A 
ATOM      2  C   UNL     1      -0.062  11.208  19.338  0.00  0.00    +0.000 A 
ATOM      3  C   UNL     1       0.402  11.519  20.611  0.00  0.00    +0.000 A 
ATOM      4  C   UNL     1       0.122  12.783  21.090  0.00  0.00    +0.000 A 
ATOM      5  C   UNL     1      -0.035  13.757  20.118  0.00  0.00    +0.000 A 
ATOM      6  N   UNL     1      -0.697  13.478  18.978  0.00  0.00    +0.000 NA
ATOM      7  C   UNL     1       0.330  15.152  20.546  0.00  0.00    +0.000 C 
ATOM      8  C   UNL     1      -0.482  15.521  21.776  0.00  0.00    +0.000 C 
ATOM      9  C   UNL     1      -0.534  14.402  22.856  0.00  0.00    +0.000 A 
ATOM     10  C   UNL     1      -0.583  13.097  22.358  0.00  0.00    +0.000 A 
ATOM     11  N   UNL     1      -1.730  12.376  22.546  0.00  0.00    +0.000 NA
ATOM     12  C   UNL     1      -2.816  13.016  23.059  0.00  0.00    +0.000 A 
ATOM     13  C   UNL     1      -4.118  12.579  22.794  0.00  0.00    +0.000 A 
ATOM     14  C   UNL     1      -5.248  13.347  23.143  0.00  0.00    +0.000 A 
ATOM     15  C   UNL     1      -5.073  14.546  23.819  0.00  0.00    +0.000 A 
ATOM     16  F   UNL     1      -6.126  15.330  24.074  0.00  0.00    +0.000 F 
ATOM     17  C   UNL     1      -3.809  14.966  24.179  0.00  0.00    +0.000 A 
ATOM     18  C   UNL     1      -2.679  14.209  23.779  0.00  0.00    +0.000 A 
ATOM     19  C   UNL     1      -1.389  14.693  23.911  0.00  0.00    +0.000 A 
ENDROOT
BRANCH   1  24
ATOM     20  C   UNL     1      -3.753  11.020  16.462  0.00  0.00    +0.000 A 
ATOM     21  C   UNL     1      -4.858  11.234  17.291  0.00  0.00    +0.000 A 
ATOM     22  C   UNL     1      -4.678  11.710  18.582  0.00  0.00    +0.000 A 
ATOM     23  C   UNL     1      -3.387  11.963  19.042  0.00  0.00    +0.000 A 
ATOM     24  C   UNL     1      -2.237  11.741  18.243  0.00  0.00    +0.000 A 
ATOM     25  C   UNL     1      -2.456  11.279  16.934  0.00  0.00    +0.000 A 
BRANCH  20  27
ATOM     26  C   UNL     1      -3.019  10.028  14.439  0.00  0.00    +0.000 C 
ATOM     27  O   UNL     1      -4.079  10.579  15.207  0.00  0.00    +0.000 OA
ENDBRANCH  20  27
ENDBRANCH   1  24
BRANCH  19  28
ATOM     28  C   UNL     1      -1.020  15.763  24.880  0.00  0.00    +0.000 C 
ATOM     29  O   UNL     1      -0.568  15.560  25.976  0.00  0.00    +0.000 OA
BRANCH  28  30
ATOM     30  O   UNL     1      -1.347  16.987  24.409  0.00  0.00    +0.000 OA
ATOM     31  H   UNL     1      -0.879  17.274  23.593  0.00  0.00    +0.000 HD
ENDBRANCH  28  30
ENDBRANCH  19  28
TORSDOF 4
ENDMDL
