MODEL 1
REMARK VINA RESULT:      -6.8      0.000      0.000
REMARK  Name = 
REMARK  5 active torsions:
REMARK  status: ('A' for Active; 'I' for Inactive)
REMARK    1  A    between atoms: N_4  and  C_5
REMARK    2  A    between atoms: C_5  and  C_6
REMARK    3  A    between atoms: C_6  and  N_7
REMARK    4  A    between atoms: N_7  and  C_8
REMARK    5  A    between atoms: C_8  and  C_9
REMARK                            x       y       z     vdW  Elec       q    Type
REMARK                         _______ _______ _______ _____ _____    ______ ____
ROOT
ATOM      1  C   UNL     1       6.920   6.157  18.337  0.00  0.00    +0.000 A 
ATOM      2  C   UNL     1       6.006   6.077  17.313  0.00  0.00    +0.000 A 
ATOM      3  N   UNL     1       4.983   5.204  17.282  0.00  0.00    +0.000 NA
ATOM      4  C   UNL     1       4.856   4.355  18.314  0.00  0.00    +0.000 A 
ATOM      5  N   UNL     1       3.837   3.428  18.293  0.00  0.00    +0.000 N 
ATOM      6  C   UNL     1       2.811   3.515  17.251  0.00  0.00    +0.000 C 
ATOM      7  C   UNL     1       1.516   4.123  17.808  0.00  0.00    +0.000 C 
ATOM      8  O   UNL     1       1.064   3.413  18.975  0.00  0.00    +0.000 OA
ATOM      9  C   UNL     1       2.060   3.480  20.009  0.00  0.00    +0.000 C 
ATOM     10  C   UNL     1       3.390   2.851  19.563  0.00  0.00    +0.000 C 
ATOM     11  N   UNL     1       5.721   4.340  19.341  0.00  0.00    +0.000 NA
ATOM     12  C   UNL     1       6.734   5.229  19.331  0.00  0.00    +0.000 A 
ENDROOT
BRANCH   1  13
ATOM     13  C   UNL     1       8.043   7.135  18.339  0.00  0.00    +0.000 C 
BRANCH  13  14
ATOM     14  N   UNL     1       7.856   8.164  17.313  0.00  0.00    +0.000 NA
ATOM     15  H   UNL     1       8.561   8.070  16.583  0.00  0.00    +0.000 HD
BRANCH  14  16
ATOM     16  C   UNL     1       7.893   9.527  17.865  0.00  0.00    +0.000 C 
BRANCH  16  17
ATOM     17  C   UNL     1       9.037   9.773  18.851  0.00  0.00    +0.000 C 
BRANCH  17  21
ATOM     18  C   UNL     1      11.034  12.762  18.702  0.00  0.00    +0.000 A 
ATOM     19  C   UNL     1       9.931  12.993  17.862  0.00  0.00    +0.000 A 
ATOM     20  N   UNL     1       9.108  11.942  17.801  0.00  0.00    +0.000 NA
ATOM     21  N   UNL     1       9.689  11.042  18.613  0.00  0.00    +0.000 N 
ATOM     22  C   UNL     1      10.850  11.486  19.178  0.00  0.00    +0.000 A 
ENDBRANCH  17  21
ENDBRANCH  16  17
ENDBRANCH  14  16
ENDBRANCH  13  14
ENDBRANCH   1  13
TORSDOF 5
ENDMDL
MODEL 2
REMARK VINA RESULT:      -6.7      0.939      1.051
REMARK  Name = 
REMARK  5 active torsions:
REMARK  status: ('A' for Active; 'I' for Inactive)
REMARK    1  A    between atoms: N_4  and  C_5
REMARK    2  A    between atoms: C_5  and  C_6
REMARK    3  A    between atoms: C_6  and  N_7
REMARK    4  A    between atoms: N_7  and  C_8
REMARK    5  A    between atoms: C_8  and  C_9
REMARK                            x       y       z     vdW  Elec       q    Type
REMARK                         _______ _______ _______ _____ _____    ______ ____
ROOT
ATOM      1  C   UNL     1       6.635   6.308  17.463  0.00  0.00    +0.000 A 
ATOM      2  C   UNL     1       5.502   6.013  16.744  0.00  0.00    +0.000 A 
ATOM      3  N   UNL     1       4.674   4.990  17.026  0.00  0.00    +0.000 NA
ATOM      4  C   UNL     1       4.984   4.207  18.071  0.00  0.00    +0.000 A 
ATOM      5  N   UNL     1       4.173   3.133  18.363  0.00  0.00    +0.000 N 
ATOM      6  C   UNL     1       2.900   2.983  17.655  0.00  0.00    +0.000 C 
ATOM      7  C   UNL     1       1.725   3.418  18.542  0.00  0.00    +0.000 C 
ATOM      8  O   UNL     1       1.741   2.730  19.806  0.00  0.00    +0.000 OA
ATOM      9  C   UNL     1       2.958   3.028  20.513  0.00  0.00    +0.000 C 
ATOM     10  C   UNL     1       4.201   2.585  19.722  0.00  0.00    +0.000 C 
ATOM     11  N   UNL     1       6.089   4.402  18.810  0.00  0.00    +0.000 NA
ATOM     12  C   UNL     1       6.892   5.436  18.491  0.00  0.00    +0.000 A 
ENDROOT
BRANCH   1  13
ATOM     13  C   UNL     1       7.530   7.448  17.122  0.00  0.00    +0.000 C 
BRANCH  13  14
ATOM     14  N   UNL     1       8.139   8.026  18.323  0.00  0.00    +0.000 NA
ATOM     15  H   UNL     1       7.534   7.886  19.131  0.00  0.00    +0.000 HD
BRANCH  14  16
ATOM     16  C   UNL     1       8.440   9.458  18.172  0.00  0.00    +0.000 C 
BRANCH  16  17
ATOM     17  C   UNL     1       9.226  10.060  19.339  0.00  0.00    +0.000 C 
BRANCH  17  21
ATOM     18  C   UNL     1      11.182  12.686  17.849  0.00  0.00    +0.000 A 
ATOM     19  C   UNL     1      10.914  13.104  19.164  0.00  0.00    +0.000 A 
ATOM     20  N   UNL     1      10.164  12.225  19.835  0.00  0.00    +0.000 NA
ATOM     21  N   UNL     1       9.961  11.240  18.942  0.00  0.00    +0.000 N 
ATOM     22  C   UNL     1      10.551  11.470  17.732  0.00  0.00    +0.000 A 
ENDBRANCH  17  21
ENDBRANCH  16  17
ENDBRANCH  14  16
ENDBRANCH  13  14
ENDBRANCH   1  13
TORSDOF 5
ENDMDL
MODEL 3
REMARK VINA RESULT:      -6.7      1.047      1.170
REMARK  Name = 
REMARK  5 active torsions:
REMARK  status: ('A' for Active; 'I' for Inactive)
REMARK    1  A    between atoms: N_4  and  C_5
REMARK    2  A    between atoms: C_5  and  C_6
REMARK    3  A    between atoms: C_6  and  N_7
REMARK    4  A    between atoms: N_7  and  C_8
REMARK    5  A    between atoms: C_8  and  C_9
REMARK                            x       y       z     vdW  Elec       q    Type
REMARK                         _______ _______ _______ _____ _____    ______ ____
ROOT
ATOM      1  C   UNL     1       6.090   5.837  17.662  0.00  0.00    +0.000 A 
ATOM      2  C   UNL     1       4.777   5.873  17.257  0.00  0.00    +0.000 A 
ATOM      3  N   UNL     1       3.821   5.046  17.718  0.00  0.00    +0.000 NA
ATOM      4  C   UNL     1       4.179   4.124  18.626  0.00  0.00    +0.000 A 
ATOM      5  N   UNL     1       3.229   3.242  19.092  0.00  0.00    +0.000 N 
ATOM      6  C   UNL     1       1.823   3.451  18.737  0.00  0.00    +0.000 C 
ATOM      7  C   UNL     1       1.048   4.063  19.911  0.00  0.00    +0.000 C 
ATOM      8  O   UNL     1       1.207   3.282  21.108  0.00  0.00    +0.000 OA
ATOM      9  C   UNL     1       2.595   3.229  21.480  0.00  0.00    +0.000 C 
ATOM     10  C   UNL     1       3.457   2.585  20.381  0.00  0.00    +0.000 C 
ATOM     11  N   UNL     1       5.445   3.994  19.055  0.00  0.00    +0.000 NA
ATOM     12  C   UNL     1       6.372   4.842  18.564  0.00  0.00    +0.000 A 
ENDROOT
BRANCH   1  13
ATOM     13  C   UNL     1       7.123   6.767  17.129  0.00  0.00    +0.000 C 
BRANCH  13  14
ATOM     14  N   UNL     1       7.830   7.455  18.212  0.00  0.00    +0.000 NA
ATOM     15  H   UNL     1       7.289   7.412  19.074  0.00  0.00    +0.000 HD
BRANCH  14  16
ATOM     16  C   UNL     1       8.135   8.857  17.887  0.00  0.00    +0.000 C 
BRANCH  16  17
ATOM     17  C   UNL     1       8.928   9.593  18.970  0.00  0.00    +0.000 C 
BRANCH  17  21
ATOM     18  C   UNL     1      10.671  12.625  18.125  0.00  0.00    +0.000 A 
ATOM     19  C   UNL     1       9.370  12.773  17.614  0.00  0.00    +0.000 A 
ATOM     20  N   UNL     1       8.611  11.697  17.836  0.00  0.00    +0.000 NA
ATOM     21  N   UNL     1       9.432  10.864  18.498  0.00  0.00    +0.000 N 
ATOM     22  C   UNL     1      10.683  11.374  18.695  0.00  0.00    +0.000 A 
ENDBRANCH  17  21
ENDBRANCH  16  17
ENDBRANCH  14  16
ENDBRANCH  13  14
ENDBRANCH   1  13
TORSDOF 5
ENDMDL
MODEL 4
REMARK VINA RESULT:      -6.7      4.375      6.661
REMARK  Name = 
REMARK  5 active torsions:
REMARK  status: ('A' for Active; 'I' for Inactive)
REMARK    1  A    between atoms: N_4  and  C_5
REMARK    2  A    between atoms: C_5  and  C_6
REMARK    3  A    between atoms: C_6  and  N_7
REMARK    4  A    between atoms: N_7  and  C_8
REMARK    5  A    between atoms: C_8  and  C_9
REMARK                            x       y       z     vdW  Elec       q    Type
REMARK                         _______ _______ _______ _____ _____    ______ ____
ROOT
ATOM      1  C   UNL     1       5.708   4.943  17.243  0.00  0.00    +0.000 A 
ATOM      2  C   UNL     1       4.518   4.439  16.775  0.00  0.00    +0.000 A 
ATOM      3  N   UNL     1       3.695   3.656  17.494  0.00  0.00    +0.000 NA
ATOM      4  C   UNL     1       4.068   3.342  18.745  0.00  0.00    +0.000 A 
ATOM      5  N   UNL     1       3.261   2.514  19.494  0.00  0.00    +0.000 N 
ATOM      6  C   UNL     1       1.935   2.154  18.985  0.00  0.00    +0.000 C 
ATOM      7  C   UNL     1       0.839   2.963  19.693  0.00  0.00    +0.000 C 
ATOM      8  O   UNL     1       0.938   2.838  21.123  0.00  0.00    +0.000 OA
ATOM      9  C   UNL     1       2.209   3.335  21.575  0.00  0.00    +0.000 C 
ATOM     10  C   UNL     1       3.380   2.554  20.954  0.00  0.00    +0.000 C 
ATOM     11  N   UNL     1       5.229   3.762  19.274  0.00  0.00    +0.000 NA
ATOM     12  C   UNL     1       6.025   4.543  18.517  0.00  0.00    +0.000 A 
ENDROOT
BRANCH   1  13
ATOM     13  C   UNL     1       6.596   5.808  16.419  0.00  0.00    +0.000 C 
BRANCH  13  14
ATOM     14  N   UNL     1       6.301   5.668  14.990  0.00  0.00    +0.000 NA
ATOM     15  H   UNL     1       5.308   5.491  14.849  0.00  0.00    +0.000 HD
BRANCH  14  16
ATOM     16  C   UNL     1       7.091   4.605  14.351  0.00  0.00    +0.000 C 
BRANCH  16  17
ATOM     17  C   UNL     1       7.195   4.731  12.829  0.00  0.00    +0.000 C 
BRANCH  17  21
ATOM     18  C   UNL     1       5.383   1.973  11.395  0.00  0.00    +0.000 A 
ATOM     19  C   UNL     1       6.740   1.726  11.124  0.00  0.00    +0.000 A 
ATOM     20  N   UNL     1       7.536   2.695  11.583  0.00  0.00    +0.000 NA
ATOM     21  N   UNL     1       6.680   3.560  12.155  0.00  0.00    +0.000 N 
ATOM     22  C   UNL     1       5.373   3.172  12.067  0.00  0.00    +0.000 A 
ENDBRANCH  17  21
ENDBRANCH  16  17
ENDBRANCH  14  16
ENDBRANCH  13  14
ENDBRANCH   1  13
TORSDOF 5
ENDMDL
MODEL 5
REMARK VINA RESULT:      -6.7      1.271      1.656
REMARK  Name = 
REMARK  5 active torsions:
REMARK  status: ('A' for Active; 'I' for Inactive)
REMARK    1  A    between atoms: N_4  and  C_5
REMARK    2  A    between atoms: C_5  and  C_6
REMARK    3  A    between atoms: C_6  and  N_7
REMARK    4  A    between atoms: N_7  and  C_8
REMARK    5  A    between atoms: C_8  and  C_9
REMARK                            x       y       z     vdW  Elec       q    Type
REMARK                         _______ _______ _______ _____ _____    ______ ____
ROOT
ATOM      1  C   UNL     1       5.495   6.203  17.633  0.00  0.00    +0.000 A 
ATOM      2  C   UNL     1       4.135   6.290  17.455  0.00  0.00    +0.000 A 
ATOM      3  N   UNL     1       3.256   5.372  17.896  0.00  0.00    +0.000 NA
ATOM      4  C   UNL     1       3.744   4.301  18.542  0.00  0.00    +0.000 A 
ATOM      5  N   UNL     1       2.871   3.328  18.975  0.00  0.00    +0.000 N 
ATOM      6  C   UNL     1       1.429   3.572  18.894  0.00  0.00    +0.000 C 
ATOM      7  C   UNL     1       0.857   3.934  20.271  0.00  0.00    +0.000 C 
ATOM      8  O   UNL     1       1.197   2.943  21.256  0.00  0.00    +0.000 OA
ATOM      9  C   UNL     1       2.625   2.848  21.387  0.00  0.00    +0.000 C 
ATOM     10  C   UNL     1       3.294   2.442  20.062  0.00  0.00    +0.000 C 
ATOM     11  N   UNL     1       5.061   4.117  18.732  0.00  0.00    +0.000 NA
ATOM     12  C   UNL     1       5.907   5.061  18.272  0.00  0.00    +0.000 A 
ENDROOT
BRANCH   1  13
ATOM     13  C   UNL     1       6.440   7.238  17.131  0.00  0.00    +0.000 C 
BRANCH  13  14
ATOM     14  N   UNL     1       7.816   6.952  17.547  0.00  0.00    +0.000 NA
ATOM     15  H   UNL     1       7.873   6.028  17.973  0.00  0.00    +0.000 HD
BRANCH  14  16
ATOM     16  C   UNL     1       8.348   7.960  18.475  0.00  0.00    +0.000 C 
BRANCH  16  17
ATOM     17  C   UNL     1       8.187   9.404  17.993  0.00  0.00    +0.000 C 
BRANCH  17  21
ATOM     18  C   UNL     1      10.316  11.466  20.031  0.00  0.00    +0.000 A 
ATOM     19  C   UNL     1      10.651  11.765  18.699  0.00  0.00    +0.000 A 
ATOM     20  N   UNL     1       9.946  11.044  17.823  0.00  0.00    +0.000 NA
ATOM     21  N   UNL     1       9.155  10.287  18.604  0.00  0.00    +0.000 N 
ATOM     22  C   UNL     1       9.340  10.503  19.939  0.00  0.00    +0.000 A 
ENDBRANCH  17  21
ENDBRANCH  16  17
ENDBRANCH  14  16
ENDBRANCH  13  14
ENDBRANCH   1  13
TORSDOF 5
ENDMDL
MODEL 6
REMARK VINA RESULT:      -6.7      3.880      6.033
REMARK  Name = 
REMARK  5 active torsions:
REMARK  status: ('A' for Active; 'I' for Inactive)
REMARK    1  A    between atoms: N_4  and  C_5
REMARK    2  A    between atoms: C_5  and  C_6
REMARK    3  A    between atoms: C_6  and  N_7
REMARK    4  A    between atoms: N_7  and  C_8
REMARK    5  A    between atoms: C_8  and  C_9
REMARK                            x       y       z     vdW  Elec       q    Type
REMARK                         _______ _______ _______ _____ _____    ______ ____
ROOT
ATOM      1  C   UNL     1       2.981   5.068  18.373  0.00  0.00    +0.000 A 
ATOM      2  C   UNL     1       2.541   5.099  19.674  0.00  0.00    +0.000 A 
ATOM      3  N   UNL     1       2.136   6.215  20.307  0.00  0.00    +0.000 NA
ATOM      4  C   UNL     1       2.173   7.369  19.622  0.00  0.00    +0.000 A 
ATOM      5  N   UNL     1       1.796   8.533  20.255  0.00  0.00    +0.000 N 
ATOM      6  C   UNL     1       1.185   8.460  21.585  0.00  0.00    +0.000 C 
ATOM      7  C   UNL     1      -0.336   8.652  21.500  0.00  0.00    +0.000 C 
ATOM      8  O   UNL     1      -0.671   9.864  20.801  0.00  0.00    +0.000 OA
ATOM      9  C   UNL     1      -0.161   9.816  19.458  0.00  0.00    +0.000 C 
ATOM     10  C   UNL     1       1.371   9.669  19.434  0.00  0.00    +0.000 C 
ATOM     11  N   UNL     1       2.619   7.438  18.357  0.00  0.00    +0.000 NA
ATOM     12  C   UNL     1       3.019   6.296  17.762  0.00  0.00    +0.000 A 
ENDROOT
BRANCH   1  13
ATOM     13  C   UNL     1       3.424   3.814  17.703  0.00  0.00    +0.000 C 
BRANCH  13  14
ATOM     14  N   UNL     1       4.883   3.755  17.592  0.00  0.00    +0.000 NA
ATOM     15  H   UNL     1       5.310   4.524  18.106  0.00  0.00    +0.000 HD
BRANCH  14  16
ATOM     16  C   UNL     1       5.346   3.775  16.195  0.00  0.00    +0.000 C 
BRANCH  16  17
ATOM     17  C   UNL     1       6.773   4.298  16.016  0.00  0.00    +0.000 C 
BRANCH  17  21
ATOM     18  C   UNL     1       7.743   6.858  18.351  0.00  0.00    +0.000 A 
ATOM     19  C   UNL     1       7.942   5.635  19.015  0.00  0.00    +0.000 A 
ATOM     20  N   UNL     1       7.594   4.586  18.265  0.00  0.00    +0.000 NA
ATOM     21  N   UNL     1       7.178   5.146  17.115  0.00  0.00    +0.000 N 
ATOM     22  C   UNL     1       7.247   6.510  17.117  0.00  0.00    +0.000 A 
ENDBRANCH  17  21
ENDBRANCH  16  17
ENDBRANCH  14  16
ENDBRANCH  13  14
ENDBRANCH   1  13
TORSDOF 5
ENDMDL
MODEL 7
REMARK VINA RESULT:      -6.6      4.935      7.922
REMARK  Name = 
REMARK  5 active torsions:
REMARK  status: ('A' for Active; 'I' for Inactive)
REMARK    1  A    between atoms: N_4  and  C_5
REMARK    2  A    between atoms: C_5  and  C_6
REMARK    3  A    between atoms: C_6  and  N_7
REMARK    4  A    between atoms: N_7  and  C_8
REMARK    5  A    between atoms: C_8  and  C_9
REMARK                            x       y       z     vdW  Elec       q    Type
REMARK                         _______ _______ _______ _____ _____    ______ ____
ROOT
ATOM      1  C   UNL     1       4.360   6.049  18.320  0.00  0.00    +0.000 A 
ATOM      2  C   UNL     1       4.018   7.052  17.444  0.00  0.00    +0.000 A 
ATOM      3  N   UNL     1       3.023   7.933  17.657  0.00  0.00    +0.000 NA
ATOM      4  C   UNL     1       2.318   7.815  18.792  0.00  0.00    +0.000 A 
ATOM      5  N   UNL     1       1.272   8.682  19.021  0.00  0.00    +0.000 N 
ATOM      6  C   UNL     1       1.077   9.822  18.122  0.00  0.00    +0.000 C 
ATOM      7  C   UNL     1       1.583  11.120  18.766  0.00  0.00    +0.000 C 
ATOM      8  O   UNL     1       0.990  11.327  20.061  0.00  0.00    +0.000 OA
ATOM      9  C   UNL     1       1.332  10.241  20.938  0.00  0.00    +0.000 C 
ATOM     10  C   UNL     1       0.825   8.891  20.400  0.00  0.00    +0.000 C 
ATOM     11  N   UNL     1       2.560   6.846  19.690  0.00  0.00    +0.000 NA
ATOM     12  C   UNL     1       3.564   5.982  19.436  0.00  0.00    +0.000 A 
ENDROOT
BRANCH   1  13
ATOM     13  C   UNL     1       5.466   5.090  18.054  0.00  0.00    +0.000 C 
BRANCH  13  14
ATOM     14  N   UNL     1       5.097   3.727  18.443  0.00  0.00    +0.000 NA
ATOM     15  H   UNL     1       5.920   3.128  18.463  0.00  0.00    +0.000 HD
BRANCH  14  16
ATOM     16  C   UNL     1       4.078   3.142  17.558  0.00  0.00    +0.000 C 
BRANCH  16  17
ATOM     17  C   UNL     1       3.245   2.035  18.208  0.00  0.00    +0.000 C 
BRANCH  17  21
ATOM     18  C   UNL     1       1.139   3.336  20.818  0.00  0.00    +0.000 A 
ATOM     19  C   UNL     1       2.379   3.067  21.422  0.00  0.00    +0.000 A 
ATOM     20  N   UNL     1       3.261   2.549  20.564  0.00  0.00    +0.000 NA
ATOM     21  N   UNL     1       2.579   2.495  19.407  0.00  0.00    +0.000 N 
ATOM     22  C   UNL     1       1.298   2.955  19.507  0.00  0.00    +0.000 A 
ENDBRANCH  17  21
ENDBRANCH  16  17
ENDBRANCH  14  16
ENDBRANCH  13  14
ENDBRANCH   1  13
TORSDOF 5
ENDMDL
MODEL 8
REMARK VINA RESULT:      -6.6      1.091      1.815
REMARK  Name = 
REMARK  5 active torsions:
REMARK  status: ('A' for Active; 'I' for Inactive)
REMARK    1  A    between atoms: N_4  and  C_5
REMARK    2  A    between atoms: C_5  and  C_6
REMARK    3  A    between atoms: C_6  and  N_7
REMARK    4  A    between atoms: N_7  and  C_8
REMARK    5  A    between atoms: C_8  and  C_9
REMARK                            x       y       z     vdW  Elec       q    Type
REMARK                         _______ _______ _______ _____ _____    ______ ____
ROOT
ATOM      1  C   UNL     1       6.616   6.485  17.786  0.00  0.00    +0.000 A 
ATOM      2  C   UNL     1       6.834   5.403  18.606  0.00  0.00    +0.000 A 
ATOM      3  N   UNL     1       5.859   4.606  19.079  0.00  0.00    +0.000 NA
ATOM      4  C   UNL     1       4.594   4.894  18.731  0.00  0.00    +0.000 A 
ATOM      5  N   UNL     1       3.573   4.115  19.227  0.00  0.00    +0.000 N 
ATOM      6  C   UNL     1       3.897   2.888  19.958  0.00  0.00    +0.000 C 
ATOM      7  C   UNL     1       3.682   1.652  19.074  0.00  0.00    +0.000 C 
ATOM      8  O   UNL     1       2.356   1.631  18.517  0.00  0.00    +0.000 OA
ATOM      9  C   UNL     1       2.147   2.795  17.699  0.00  0.00    +0.000 C 
ATOM     10  C   UNL     1       2.296   4.095  18.508  0.00  0.00    +0.000 C 
ATOM     11  N   UNL     1       4.286   5.950  17.961  0.00  0.00    +0.000 NA
ATOM     12  C   UNL     1       5.294   6.725  17.511  0.00  0.00    +0.000 A 
ENDROOT
BRANCH   1  13
ATOM     13  C   UNL     1       7.720   7.347  17.281  0.00  0.00    +0.000 C 
BRANCH  13  14
ATOM     14  N   UNL     1       8.344   8.105  18.368  0.00  0.00    +0.000 NA
ATOM     15  H   UNL     1       7.866   7.923  19.248  0.00  0.00    +0.000 HD
BRANCH  14  16
ATOM     16  C   UNL     1       8.368   9.553  18.107  0.00  0.00    +0.000 C 
BRANCH  16  17
ATOM     17  C   UNL     1       9.289  10.343  19.040  0.00  0.00    +0.000 C 
BRANCH  17  21
ATOM     18  C   UNL     1      10.976  13.046  17.370  0.00  0.00    +0.000 A 
ATOM     19  C   UNL     1       9.830  13.610  17.955  0.00  0.00    +0.000 A 
ATOM     20  N   UNL     1       9.086  12.704  18.595  0.00  0.00    +0.000 NA
ATOM     21  N   UNL     1       9.769  11.558  18.420  0.00  0.00    +0.000 N 
ATOM     22  C   UNL     1      10.912  11.711  17.689  0.00  0.00    +0.000 A 
ENDBRANCH  17  21
ENDBRANCH  16  17
ENDBRANCH  14  16
ENDBRANCH  13  14
ENDBRANCH   1  13
TORSDOF 5
ENDMDL
MODEL 9
REMARK VINA RESULT:      -6.6      4.351      6.944
REMARK  Name = 
REMARK  5 active torsions:
REMARK  status: ('A' for Active; 'I' for Inactive)
REMARK    1  A    between atoms: N_4  and  C_5
REMARK    2  A    between atoms: C_5  and  C_6
REMARK    3  A    between atoms: C_6  and  N_7
REMARK    4  A    between atoms: N_7  and  C_8
REMARK    5  A    between atoms: C_8  and  C_9
REMARK                            x       y       z     vdW  Elec       q    Type
REMARK                         _______ _______ _______ _____ _____    ______ ____
ROOT
ATOM      1  C   UNL     1       2.940   2.731  19.224  0.00  0.00    +0.000 A 
ATOM      2  C   UNL     1       4.182   3.023  19.736  0.00  0.00    +0.000 A 
ATOM      3  N   UNL     1       5.184   3.565  19.020  0.00  0.00    +0.000 NA
ATOM      4  C   UNL     1       4.954   3.827  17.724  0.00  0.00    +0.000 A 
ATOM      5  N   UNL     1       5.972   4.352  16.959  0.00  0.00    +0.000 N 
ATOM      6  C   UNL     1       7.209   4.787  17.613  0.00  0.00    +0.000 C 
ATOM      7  C   UNL     1       7.250   6.316  17.743  0.00  0.00    +0.000 C 
ATOM      8  O   UNL     1       7.040   6.955  16.471  0.00  0.00    +0.000 OA
ATOM      9  C   UNL     1       5.751   6.595  15.945  0.00  0.00    +0.000 C 
ATOM     10  C   UNL     1       5.625   5.076  15.734  0.00  0.00    +0.000 C 
ATOM     11  N   UNL     1       3.782   3.544  17.132  0.00  0.00    +0.000 NA
ATOM     12  C   UNL     1       2.806   2.999  17.885  0.00  0.00    +0.000 A 
ENDROOT
BRANCH   1  13
ATOM     13  C   UNL     1       1.853   2.129  20.044  0.00  0.00    +0.000 C 
BRANCH  13  14
ATOM     14  N   UNL     1       1.291   3.104  20.983  0.00  0.00    +0.000 NA
ATOM     15  H   UNL     1       0.452   2.730  21.423  0.00  0.00    +0.000 HD
BRANCH  14  16
ATOM     16  C   UNL     1       0.985   4.393  20.344  0.00  0.00    +0.000 C 
BRANCH  16  17
ATOM     17  C   UNL     1       1.736   5.584  20.945  0.00  0.00    +0.000 C 
BRANCH  17  21
ATOM     18  C   UNL     1       2.073   8.513  18.883  0.00  0.00    +0.000 A 
ATOM     19  C   UNL     1       2.513   7.434  18.096  0.00  0.00    +0.000 A 
ATOM     20  N   UNL     1       2.466   6.272  18.752  0.00  0.00    +0.000 NA
ATOM     21  N   UNL     1       1.987   6.614  19.961  0.00  0.00    +0.000 N 
ATOM     22  C   UNL     1       1.736   7.950  20.091  0.00  0.00    +0.000 A 
ENDBRANCH  17  21
ENDBRANCH  16  17
ENDBRANCH  14  16
ENDBRANCH  13  14
ENDBRANCH   1  13
TORSDOF 5
ENDMDL
