MODEL 1
REMARK VINA RESULT:      -7.9      0.000      0.000
REMARK  Name = 
REMARK  6 active torsions:
REMARK  status: ('A' for Active; 'I' for Inactive)
REMARK    1  A    between atoms: C_2  and  C_3
REMARK    2  A    between atoms: C_3  and  N_4
REMARK    3  A    between atoms: C_7  and  C_8
REMARK    4  A    between atoms: N_15  and  C_16
REMARK    5  A    between atoms: C_16  and  C_17
REMARK    6  A    between atoms: N_19  and  C_20
REMARK                            x       y       z     vdW  Elec       q    Type
REMARK                         _______ _______ _______ _____ _____    ______ ____
ROOT
ATOM      1  O   UNL     1       7.005   5.161  20.060  0.00  0.00    +0.000 OA
ATOM      2  C   UNL     1       6.618   5.201  18.895  0.00  0.00    +0.000 C 
ATOM      3  N   UNL     1       5.406   4.691  18.506  0.00  0.00    +0.000 N 
ATOM      4  H   UNL     1       5.089   4.823  17.543  0.00  0.00    +0.000 HD
ENDROOT
BRANCH   2   5
ATOM      5  C   UNL     1       7.401   5.889  17.803  0.00  0.00    +0.000 C 
BRANCH   5   6
ATOM      6  N   UNL     1       6.746   5.734  16.528  0.00  0.00    +0.000 N 
ATOM      7  N   UNL     1       5.788   6.569  16.100  0.00  0.00    +0.000 NA
ATOM      8  N   UNL     1       5.438   6.099  14.912  0.00  0.00    +0.000 NA
ATOM      9  C   UNL     1       6.206   4.979  14.678  0.00  0.00    +0.000 A 
ATOM     10  N   UNL     1       7.051   4.720  15.695  0.00  0.00    +0.000 NA
BRANCH   9  11
ATOM     11  C   UNL     1       6.098   4.170  13.470  0.00  0.00    +0.000 A 
ATOM     12  C   UNL     1       4.846   3.763  12.987  0.00  0.00    +0.000 A 
ATOM     13  C   UNL     1       4.751   2.972  11.838  0.00  0.00    +0.000 A 
ATOM     14  C   UNL     1       5.905   2.582  11.160  0.00  0.00    +0.000 A 
ATOM     15  C   UNL     1       7.154   2.986  11.625  0.00  0.00    +0.000 A 
ATOM     16  C   UNL     1       7.251   3.776  12.773  0.00  0.00    +0.000 A 
ENDBRANCH   9  11
ENDBRANCH   5   6
ENDBRANCH   2   5
BRANCH   3  17
ATOM     17  C   UNL     1       4.443   4.069  19.405  0.00  0.00    +0.000 C 
BRANCH  17  18
ATOM     18  C   UNL     1       3.217   4.986  19.414  0.00  0.00    +0.000 C 
ATOM     19  O   UNL     1       2.093   4.502  19.270  0.00  0.00    +0.000 OA
ATOM     20  N   UNL     1       3.486   6.333  19.590  0.00  0.00    +0.000 N 
ATOM     21  H   UNL     1       4.448   6.646  19.522  0.00  0.00    +0.000 HD
BRANCH  20  22
ATOM     22  C   UNL     1       2.499   7.350  19.677  0.00  0.00    +0.000 A 
ATOM     23  C   UNL     1       1.736   7.588  20.829  0.00  0.00    +0.000 A 
ATOM     24  C   UNL     1       0.748   8.574  20.844  0.00  0.00    +0.000 A 
ATOM     25  C   UNL     1       0.524   9.341  19.708  0.00  0.00    +0.000 A 
ATOM     26  F   UNL     1      -0.438  10.274  19.730  0.00  0.00    +0.000 F 
ATOM     27  C   UNL     1       1.289   9.144  18.566  0.00  0.00    +0.000 A 
ATOM     28  F   UNL     1       1.069   9.892  17.477  0.00  0.00    +0.000 F 
ATOM     29  C   UNL     1       2.276   8.161  18.555  0.00  0.00    +0.000 A 
ATOM     30  F   UNL     1       3.008   7.968  17.446  0.00  0.00    +0.000 F 
ENDBRANCH  20  22
ENDBRANCH  17  18
ENDBRANCH   3  17
TORSDOF 6
ENDMDL
MODEL 2
REMARK VINA RESULT:      -7.9      5.099      7.510
REMARK  Name = 
REMARK  6 active torsions:
REMARK  status: ('A' for Active; 'I' for Inactive)
REMARK    1  A    between atoms: C_2  and  C_3
REMARK    2  A    between atoms: C_3  and  N_4
REMARK    3  A    between atoms: C_7  and  C_8
REMARK    4  A    between atoms: N_15  and  C_16
REMARK    5  A    between atoms: C_16  and  C_17
REMARK    6  A    between atoms: N_19  and  C_20
REMARK                            x       y       z     vdW  Elec       q    Type
REMARK                         _______ _______ _______ _____ _____    ______ ____
ROOT
ATOM      1  O   UNL     1       7.595   5.869  15.830  0.00  0.00    +0.000 OA
ATOM      2  C   UNL     1       6.683   6.492  16.366  0.00  0.00    +0.000 C 
ATOM      3  N   UNL     1       6.879   7.267  17.480  0.00  0.00    +0.000 N 
ATOM      4  H   UNL     1       6.109   7.834  17.841  0.00  0.00    +0.000 HD
ENDROOT
BRANCH   2   5
ATOM      5  C   UNL     1       5.283   6.528  15.802  0.00  0.00    +0.000 C 
BRANCH   5   6
ATOM      6  N   UNL     1       4.306   6.319  16.842  0.00  0.00    +0.000 N 
ATOM      7  N   UNL     1       3.721   7.332  17.498  0.00  0.00    +0.000 NA
ATOM      8  N   UNL     1       2.907   6.746  18.364  0.00  0.00    +0.000 NA
ATOM      9  C   UNL     1       3.048   5.386  18.194  0.00  0.00    +0.000 A 
ATOM     10  N   UNL     1       3.937   5.082  17.229  0.00  0.00    +0.000 NA
BRANCH   9  11
ATOM     11  C   UNL     1       2.320   4.400  18.983  0.00  0.00    +0.000 A 
ATOM     12  C   UNL     1       1.938   4.676  20.304  0.00  0.00    +0.000 A 
ATOM     13  C   UNL     1       1.257   3.717  21.061  0.00  0.00    +0.000 A 
ATOM     14  C   UNL     1       0.949   2.477  20.505  0.00  0.00    +0.000 A 
ATOM     15  C   UNL     1       1.316   2.193  19.192  0.00  0.00    +0.000 A 
ATOM     16  C   UNL     1       1.997   3.148  18.435  0.00  0.00    +0.000 A 
ENDBRANCH   9  11
ENDBRANCH   5   6
ENDBRANCH   2   5
BRANCH   3  17
ATOM     17  C   UNL     1       8.165   7.459  18.138  0.00  0.00    +0.000 C 
BRANCH  17  18
ATOM     18  C   UNL     1       8.336   8.971  18.304  0.00  0.00    +0.000 C 
ATOM     19  O   UNL     1       7.640   9.740  17.638  0.00  0.00    +0.000 OA
ATOM     20  N   UNL     1       9.296   9.361  19.224  0.00  0.00    +0.000 N 
ATOM     21  H   UNL     1       9.931   8.659  19.586  0.00  0.00    +0.000 HD
BRANCH  20  22
ATOM     22  C   UNL     1       9.585  10.708  19.568  0.00  0.00    +0.000 A 
ATOM     23  C   UNL     1       9.284  11.266  20.819  0.00  0.00    +0.000 A 
ATOM     24  C   UNL     1       9.552  12.610  21.088  0.00  0.00    +0.000 A 
ATOM     25  C   UNL     1      10.137  13.404  20.110  0.00  0.00    +0.000 A 
ATOM     26  F   UNL     1      10.375  14.695  20.375  0.00  0.00    +0.000 F 
ATOM     27  C   UNL     1      10.472  12.864  18.875  0.00  0.00    +0.000 A 
ATOM     28  F   UNL     1      11.041  13.636  17.940  0.00  0.00    +0.000 F 
ATOM     29  C   UNL     1      10.206  11.522  18.611  0.00  0.00    +0.000 A 
ATOM     30  F   UNL     1      10.524  11.007  17.413  0.00  0.00    +0.000 F 
ENDBRANCH  20  22
ENDBRANCH  17  18
ENDBRANCH   3  17
TORSDOF 6
ENDMDL
MODEL 3
REMARK VINA RESULT:      -7.9      4.565      7.758
REMARK  Name = 
REMARK  6 active torsions:
REMARK  status: ('A' for Active; 'I' for Inactive)
REMARK    1  A    between atoms: C_2  and  C_3
REMARK    2  A    between atoms: C_3  and  N_4
REMARK    3  A    between atoms: C_7  and  C_8
REMARK    4  A    between atoms: N_15  and  C_16
REMARK    5  A    between atoms: C_16  and  C_17
REMARK    6  A    between atoms: N_19  and  C_20
REMARK                            x       y       z     vdW  Elec       q    Type
REMARK                         _______ _______ _______ _____ _____    ______ ____
ROOT
ATOM      1  O   UNL     1       7.691   5.363  16.038  0.00  0.00    +0.000 OA
ATOM      2  C   UNL     1       6.682   5.684  16.660  0.00  0.00    +0.000 C 
ATOM      3  N   UNL     1       6.738   6.326  17.870  0.00  0.00    +0.000 N 
ATOM      4  H   UNL     1       5.874   6.649  18.309  0.00  0.00    +0.000 HD
ENDROOT
BRANCH   2   5
ATOM      5  C   UNL     1       5.290   5.476  16.112  0.00  0.00    +0.000 C 
BRANCH   5   6
ATOM      6  N   UNL     1       4.295   5.847  17.086  0.00  0.00    +0.000 N 
ATOM      7  N   UNL     1       3.722   4.956  17.909  0.00  0.00    +0.000 NA
ATOM      8  N   UNL     1       2.873   5.668  18.635  0.00  0.00    +0.000 NA
ATOM      9  C   UNL     1       2.967   6.973  18.203  0.00  0.00    +0.000 A 
ATOM     10  N   UNL     1       3.868   7.118  17.212  0.00  0.00    +0.000 NA
BRANCH   9  11
ATOM     11  C   UNL     1       2.170   8.061  18.757  0.00  0.00    +0.000 A 
ATOM     12  C   UNL     1       1.694   8.004  20.075  0.00  0.00    +0.000 A 
ATOM     13  C   UNL     1       0.913   9.043  20.593  0.00  0.00    +0.000 A 
ATOM     14  C   UNL     1       0.604  10.147  19.801  0.00  0.00    +0.000 A 
ATOM     15  C   UNL     1       1.077  10.219  18.494  0.00  0.00    +0.000 A 
ATOM     16  C   UNL     1       1.855   9.183  17.974  0.00  0.00    +0.000 A 
ENDBRANCH   9  11
ENDBRANCH   5   6
ENDBRANCH   2   5
BRANCH   3  17
ATOM     17  C   UNL     1       7.970   6.714  18.543  0.00  0.00    +0.000 C 
BRANCH  17  18
ATOM     18  C   UNL     1       8.162   8.205  18.252  0.00  0.00    +0.000 C 
ATOM     19  O   UNL     1       7.586   8.717  17.290  0.00  0.00    +0.000 OA
ATOM     20  N   UNL     1       8.999   8.877  19.128  0.00  0.00    +0.000 N 
ATOM     21  H   UNL     1       9.559   8.332  19.775  0.00  0.00    +0.000 HD
BRANCH  20  22
ATOM     22  C   UNL     1       9.279  10.268  19.072  0.00  0.00    +0.000 A 
ATOM     23  C   UNL     1       9.476  10.968  17.873  0.00  0.00    +0.000 A 
ATOM     24  C   UNL     1       9.792  12.327  17.880  0.00  0.00    +0.000 A 
ATOM     25  C   UNL     1       9.898  13.003  19.088  0.00  0.00    +0.000 A 
ATOM     26  F   UNL     1      10.216  14.304  19.083  0.00  0.00    +0.000 F 
ATOM     27  C   UNL     1       9.676  12.337  20.287  0.00  0.00    +0.000 A 
ATOM     28  F   UNL     1       9.776  12.998  21.447  0.00  0.00    +0.000 F 
ATOM     29  C   UNL     1       9.358  10.980  20.276  0.00  0.00    +0.000 A 
ATOM     30  F   UNL     1       9.153  10.339  21.438  0.00  0.00    +0.000 F 
ENDBRANCH  20  22
ENDBRANCH  17  18
ENDBRANCH   3  17
TORSDOF 6
ENDMDL
MODEL 4
REMARK VINA RESULT:      -7.8      3.139      4.216
REMARK  Name = 
REMARK  6 active torsions:
REMARK  status: ('A' for Active; 'I' for Inactive)
REMARK    1  A    between atoms: C_2  and  C_3
REMARK    2  A    between atoms: C_3  and  N_4
REMARK    3  A    between atoms: C_7  and  C_8
REMARK    4  A    between atoms: N_15  and  C_16
REMARK    5  A    between atoms: C_16  and  C_17
REMARK    6  A    between atoms: N_19  and  C_20
REMARK                            x       y       z     vdW  Elec       q    Type
REMARK                         _______ _______ _______ _____ _____    ______ ____
ROOT
ATOM      1  O   UNL     1       1.392   2.371  18.714  0.00  0.00    +0.000 OA
ATOM      2  C   UNL     1       2.586   2.450  18.987  0.00  0.00    +0.000 C 
ATOM      3  N   UNL     1       3.034   2.944  20.185  0.00  0.00    +0.000 N 
ATOM      4  H   UNL     1       4.033   2.912  20.402  0.00  0.00    +0.000 HD
ENDROOT
BRANCH   2   5
ATOM      5  C   UNL     1       3.666   1.936  18.065  0.00  0.00    +0.000 C 
BRANCH   5   6
ATOM      6  N   UNL     1       4.449   3.024  17.536  0.00  0.00    +0.000 N 
ATOM      7  N   UNL     1       4.592   3.239  16.220  0.00  0.00    +0.000 NA
ATOM      8  N   UNL     1       5.374   4.306  16.137  0.00  0.00    +0.000 NA
ATOM      9  C   UNL     1       5.679   4.685  17.426  0.00  0.00    +0.000 A 
ATOM     10  N   UNL     1       5.103   3.883  18.343  0.00  0.00    +0.000 NA
BRANCH   9  11
ATOM     11  C   UNL     1       6.537   5.818  17.747  0.00  0.00    +0.000 A 
ATOM     12  C   UNL     1       6.396   7.040  17.073  0.00  0.00    +0.000 A 
ATOM     13  C   UNL     1       7.236   8.118  17.373  0.00  0.00    +0.000 A 
ATOM     14  C   UNL     1       8.221   7.986  18.349  0.00  0.00    +0.000 A 
ATOM     15  C   UNL     1       8.366   6.781  19.032  0.00  0.00    +0.000 A 
ATOM     16  C   UNL     1       7.530   5.703  18.733  0.00  0.00    +0.000 A 
ENDBRANCH   9  11
ENDBRANCH   5   6
ENDBRANCH   2   5
BRANCH   3  17
ATOM     17  C   UNL     1       2.171   3.407  21.263  0.00  0.00    +0.000 C 
BRANCH  17  18
ATOM     18  C   UNL     1       1.522   4.700  20.761  0.00  0.00    +0.000 C 
ATOM     19  O   UNL     1       0.325   4.710  20.472  0.00  0.00    +0.000 OA
ATOM     20  N   UNL     1       2.371   5.792  20.672  0.00  0.00    +0.000 N 
ATOM     21  H   UNL     1       3.369   5.637  20.763  0.00  0.00    +0.000 HD
BRANCH  20  22
ATOM     22  C   UNL     1       1.972   7.096  20.277  0.00  0.00    +0.000 A 
ATOM     23  C   UNL     1       1.298   7.986  21.125  0.00  0.00    +0.000 A 
ATOM     24  C   UNL     1       0.890   9.241  20.669  0.00  0.00    +0.000 A 
ATOM     25  C   UNL     1       1.166   9.622  19.363  0.00  0.00    +0.000 A 
ATOM     26  F   UNL     1       0.756  10.823  18.932  0.00  0.00    +0.000 F 
ATOM     27  C   UNL     1       1.860   8.769  18.515  0.00  0.00    +0.000 A 
ATOM     28  F   UNL     1       2.127   9.147  17.258  0.00  0.00    +0.000 F 
ATOM     29  C   UNL     1       2.268   7.518  18.974  0.00  0.00    +0.000 A 
ATOM     30  F   UNL     1       2.932   6.693  18.148  0.00  0.00    +0.000 F 
ENDBRANCH  20  22
ENDBRANCH  17  18
ENDBRANCH   3  17
TORSDOF 6
ENDMDL
MODEL 5
REMARK VINA RESULT:      -7.7      4.912      7.403
REMARK  Name = 
REMARK  6 active torsions:
REMARK  status: ('A' for Active; 'I' for Inactive)
REMARK    1  A    between atoms: C_2  and  C_3
REMARK    2  A    between atoms: C_3  and  N_4
REMARK    3  A    between atoms: C_7  and  C_8
REMARK    4  A    between atoms: N_15  and  C_16
REMARK    5  A    between atoms: C_16  and  C_17
REMARK    6  A    between atoms: N_19  and  C_20
REMARK                            x       y       z     vdW  Elec       q    Type
REMARK                         _______ _______ _______ _____ _____    ______ ____
ROOT
ATOM      1  O   UNL     1       7.687   5.939  16.350  0.00  0.00    +0.000 OA
ATOM      2  C   UNL     1       7.213   6.626  17.249  0.00  0.00    +0.000 C 
ATOM      3  N   UNL     1       5.870   6.890  17.342  0.00  0.00    +0.000 N 
ATOM      4  H   UNL     1       5.511   7.396  18.154  0.00  0.00    +0.000 HD
ENDROOT
BRANCH   2   5
ATOM      5  C   UNL     1       8.049   7.174  18.381  0.00  0.00    +0.000 C 
BRANCH   5   6
ATOM      6  N   UNL     1       8.256   8.592  18.227  0.00  0.00    +0.000 N 
ATOM      7  N   UNL     1       7.536   9.339  17.377  0.00  0.00    +0.000 NA
ATOM      8  N   UNL     1       8.020  10.565  17.516  0.00  0.00    +0.000 NA
ATOM      9  C   UNL     1       9.031  10.497  18.449  0.00  0.00    +0.000 A 
ATOM     10  N   UNL     1       9.207   9.248  18.921  0.00  0.00    +0.000 NA
BRANCH   9  11
ATOM     11  C   UNL     1       9.820  11.652  18.861  0.00  0.00    +0.000 A 
ATOM     12  C   UNL     1      10.967  11.493  19.654  0.00  0.00    +0.000 A 
ATOM     13  C   UNL     1      11.708  12.607  20.061  0.00  0.00    +0.000 A 
ATOM     14  C   UNL     1      11.312  13.888  19.679  0.00  0.00    +0.000 A 
ATOM     15  C   UNL     1      10.180  14.058  18.885  0.00  0.00    +0.000 A 
ATOM     16  C   UNL     1       9.439  12.947  18.479  0.00  0.00    +0.000 A 
ENDBRANCH   9  11
ENDBRANCH   5   6
ENDBRANCH   2   5
BRANCH   3  17
ATOM     17  C   UNL     1       4.863   6.387  16.417  0.00  0.00    +0.000 C 
BRANCH  17  18
ATOM     18  C   UNL     1       4.110   5.286  17.169  0.00  0.00    +0.000 C 
ATOM     19  O   UNL     1       3.947   4.186  16.637  0.00  0.00    +0.000 OA
ATOM     20  N   UNL     1       3.659   5.634  18.432  0.00  0.00    +0.000 N 
ATOM     21  H   UNL     1       3.689   6.610  18.704  0.00  0.00    +0.000 HD
BRANCH  20  22
ATOM     22  C   UNL     1       2.982   4.755  19.318  0.00  0.00    +0.000 A 
ATOM     23  C   UNL     1       1.613   4.855  19.608  0.00  0.00    +0.000 A 
ATOM     24  C   UNL     1       1.008   3.991  20.522  0.00  0.00    +0.000 A 
ATOM     25  C   UNL     1       1.766   3.007  21.144  0.00  0.00    +0.000 A 
ATOM     26  F   UNL     1       1.177   2.193  22.030  0.00  0.00    +0.000 F 
ATOM     27  C   UNL     1       3.116   2.869  20.848  0.00  0.00    +0.000 A 
ATOM     28  F   UNL     1       3.838   1.914  21.449  0.00  0.00    +0.000 F 
ATOM     29  C   UNL     1       3.716   3.732  19.933  0.00  0.00    +0.000 A 
ATOM     30  F   UNL     1       5.023   3.600  19.657  0.00  0.00    +0.000 F 
ENDBRANCH  20  22
ENDBRANCH  17  18
ENDBRANCH   3  17
TORSDOF 6
ENDMDL
MODEL 6
REMARK VINA RESULT:      -7.7      1.125      1.181
REMARK  Name = 
REMARK  6 active torsions:
REMARK  status: ('A' for Active; 'I' for Inactive)
REMARK    1  A    between atoms: C_2  and  C_3
REMARK    2  A    between atoms: C_3  and  N_4
REMARK    3  A    between atoms: C_7  and  C_8
REMARK    4  A    between atoms: N_15  and  C_16
REMARK    5  A    between atoms: C_16  and  C_17
REMARK    6  A    between atoms: N_19  and  C_20
REMARK                            x       y       z     vdW  Elec       q    Type
REMARK                         _______ _______ _______ _____ _____    ______ ____
ROOT
ATOM      1  O   UNL     1       5.609   3.807  19.477  0.00  0.00    +0.000 OA
ATOM      2  C   UNL     1       5.698   4.193  18.315  0.00  0.00    +0.000 C 
ATOM      3  N   UNL     1       4.653   4.109  17.431  0.00  0.00    +0.000 N 
ATOM      4  H   UNL     1       4.746   4.520  16.500  0.00  0.00    +0.000 HD
ENDROOT
BRANCH   2   5
ATOM      5  C   UNL     1       6.935   4.871  17.777  0.00  0.00    +0.000 C 
BRANCH   5   6
ATOM      6  N   UNL     1       6.937   4.866  16.335  0.00  0.00    +0.000 N 
ATOM      7  N   UNL     1       7.564   5.803  15.610  0.00  0.00    +0.000 NA
ATOM      8  N   UNL     1       7.333   5.463  14.350  0.00  0.00    +0.000 NA
ATOM      9  C   UNL     1       6.557   4.325  14.375  0.00  0.00    +0.000 A 
ATOM     10  N   UNL     1       6.286   3.920  15.630  0.00  0.00    +0.000 NA
BRANCH   9  11
ATOM     11  C   UNL     1       6.081   3.653  13.172  0.00  0.00    +0.000 A 
ATOM     12  C   UNL     1       4.757   3.810  12.736  0.00  0.00    +0.000 A 
ATOM     13  C   UNL     1       4.302   3.147  11.592  0.00  0.00    +0.000 A 
ATOM     14  C   UNL     1       5.166   2.324  10.872  0.00  0.00    +0.000 A 
ATOM     15  C   UNL     1       6.485   2.165  11.289  0.00  0.00    +0.000 A 
ATOM     16  C   UNL     1       6.940   2.825  12.432  0.00  0.00    +0.000 A 
ENDBRANCH   9  11
ENDBRANCH   5   6
ENDBRANCH   2   5
BRANCH   3  17
ATOM     17  C   UNL     1       3.335   3.580  17.757  0.00  0.00    +0.000 C 
BRANCH  17  18
ATOM     18  C   UNL     1       2.449   4.796  18.043  0.00  0.00    +0.000 C 
ATOM     19  O   UNL     1       1.287   4.814  17.635  0.00  0.00    +0.000 OA
ATOM     20  N   UNL     1       3.054   5.813  18.764  0.00  0.00    +0.000 N 
ATOM     21  H   UNL     1       4.059   5.778  18.899  0.00  0.00    +0.000 HD
BRANCH  20  22
ATOM     22  C   UNL     1       2.405   7.005  19.179  0.00  0.00    +0.000 A 
ATOM     23  C   UNL     1       1.783   7.151  20.427  0.00  0.00    +0.000 A 
ATOM     24  C   UNL     1       1.122   8.332  20.766  0.00  0.00    +0.000 A 
ATOM     25  C   UNL     1       1.090   9.386  19.863  0.00  0.00    +0.000 A 
ATOM     26  F   UNL     1       0.439  10.510  20.193  0.00  0.00    +0.000 F 
ATOM     27  C   UNL     1       1.726   9.276  18.633  0.00  0.00    +0.000 A 
ATOM     28  F   UNL     1       1.695  10.300  17.770  0.00  0.00    +0.000 F 
ATOM     29  C   UNL     1       2.388   8.096  18.300  0.00  0.00    +0.000 A 
ATOM     30  F   UNL     1       2.995   7.991  17.106  0.00  0.00    +0.000 F 
ENDBRANCH  20  22
ENDBRANCH  17  18
ENDBRANCH   3  17
TORSDOF 6
ENDMDL
MODEL 7
REMARK VINA RESULT:      -7.6      4.578      6.971
REMARK  Name = 
REMARK  6 active torsions:
REMARK  status: ('A' for Active; 'I' for Inactive)
REMARK    1  A    between atoms: C_2  and  C_3
REMARK    2  A    between atoms: C_3  and  N_4
REMARK    3  A    between atoms: C_7  and  C_8
REMARK    4  A    between atoms: N_15  and  C_16
REMARK    5  A    between atoms: C_16  and  C_17
REMARK    6  A    between atoms: N_19  and  C_20
REMARK                            x       y       z     vdW  Elec       q    Type
REMARK                         _______ _______ _______ _____ _____    ______ ____
ROOT
ATOM      1  O   UNL     1       7.779   4.762  17.249  0.00  0.00    +0.000 OA
ATOM      2  C   UNL     1       7.389   5.830  17.712  0.00  0.00    +0.000 C 
ATOM      3  N   UNL     1       6.178   6.378  17.375  0.00  0.00    +0.000 N 
ATOM      4  H   UNL     1       5.859   7.226  17.849  0.00  0.00    +0.000 HD
ENDROOT
BRANCH   2   5
ATOM      5  C   UNL     1       8.167   6.596  18.755  0.00  0.00    +0.000 C 
BRANCH   5   6
ATOM      6  N   UNL     1       8.263   7.990  18.403  0.00  0.00    +0.000 N 
ATOM      7  N   UNL     1       7.610   8.518  17.357  0.00  0.00    +0.000 NA
ATOM      8  N   UNL     1       7.953   9.798  17.358  0.00  0.00    +0.000 NA
ATOM      9  C   UNL     1       8.818   9.984  18.415  0.00  0.00    +0.000 A 
ATOM     10  N   UNL     1       9.037   8.845  19.100  0.00  0.00    +0.000 NA
BRANCH   9  11
ATOM     11  C   UNL     1       9.428  11.268  18.735  0.00  0.00    +0.000 A 
ATOM     12  C   UNL     1       9.311  12.358  17.860  0.00  0.00    +0.000 A 
ATOM     13  C   UNL     1       9.915  13.582  18.166  0.00  0.00    +0.000 A 
ATOM     14  C   UNL     1      10.639  13.729  19.348  0.00  0.00    +0.000 A 
ATOM     15  C   UNL     1      10.756  12.657  20.229  0.00  0.00    +0.000 A 
ATOM     16  C   UNL     1      10.154  11.434  19.925  0.00  0.00    +0.000 A 
ENDBRANCH   9  11
ENDBRANCH   5   6
ENDBRANCH   2   5
BRANCH   3  17
ATOM     17  C   UNL     1       5.220   5.769  16.463  0.00  0.00    +0.000 C 
BRANCH  17  18
ATOM     18  C   UNL     1       4.406   4.779  17.302  0.00  0.00    +0.000 C 
ATOM     19  O   UNL     1       4.466   3.574  17.053  0.00  0.00    +0.000 OA
ATOM     20  N   UNL     1       3.641   5.346  18.309  0.00  0.00    +0.000 N 
ATOM     21  H   UNL     1       3.524   6.353  18.317  0.00  0.00    +0.000 HD
BRANCH  20  22
ATOM     22  C   UNL     1       2.850   4.613  19.232  0.00  0.00    +0.000 A 
ATOM     23  C   UNL     1       3.120   4.559  20.607  0.00  0.00    +0.000 A 
ATOM     24  C   UNL     1       2.334   3.786  21.463  0.00  0.00    +0.000 A 
ATOM     25  C   UNL     1       1.259   3.071  20.952  0.00  0.00    +0.000 A 
ATOM     26  F   UNL     1       0.520   2.321  21.781  0.00  0.00    +0.000 F 
ATOM     27  C   UNL     1       0.953   3.135  19.598  0.00  0.00    +0.000 A 
ATOM     28  F   UNL     1      -0.089   2.446  19.115  0.00  0.00    +0.000 F 
ATOM     29  C   UNL     1       1.739   3.910  18.747  0.00  0.00    +0.000 A 
ATOM     30  F   UNL     1       1.445   3.962  17.438  0.00  0.00    +0.000 F 
ENDBRANCH  20  22
ENDBRANCH  17  18
ENDBRANCH   3  17
TORSDOF 6
ENDMDL
MODEL 8
REMARK VINA RESULT:      -7.5      3.915      8.482
REMARK  Name = 
REMARK  6 active torsions:
REMARK  status: ('A' for Active; 'I' for Inactive)
REMARK    1  A    between atoms: C_2  and  C_3
REMARK    2  A    between atoms: C_3  and  N_4
REMARK    3  A    between atoms: C_7  and  C_8
REMARK    4  A    between atoms: N_15  and  C_16
REMARK    5  A    between atoms: C_16  and  C_17
REMARK    6  A    between atoms: N_19  and  C_20
REMARK                            x       y       z     vdW  Elec       q    Type
REMARK                         _______ _______ _______ _____ _____    ______ ____
ROOT
ATOM      1  O   UNL     1      -0.308   7.733  21.625  0.00  0.00    +0.000 OA
ATOM      2  C   UNL     1       0.798   8.023  21.179  0.00  0.00    +0.000 C 
ATOM      3  N   UNL     1       1.743   7.075  20.883  0.00  0.00    +0.000 N 
ATOM      4  H   UNL     1       2.617   7.357  20.435  0.00  0.00    +0.000 HD
ENDROOT
BRANCH   2   5
ATOM      5  C   UNL     1       1.190   9.442  20.837  0.00  0.00    +0.000 C 
BRANCH   5   6
ATOM      6  N   UNL     1       0.093  10.140  20.215  0.00  0.00    +0.000 N 
ATOM      7  N   UNL     1      -0.492  11.210  20.773  0.00  0.00    +0.000 NA
ATOM      8  N   UNL     1      -1.443  11.557  19.918  0.00  0.00    +0.000 NA
ATOM      9  C   UNL     1      -1.394  10.660  18.873  0.00  0.00    +0.000 A 
ATOM     10  N   UNL     1      -0.422   9.741  19.036  0.00  0.00    +0.000 NA
BRANCH   9  11
ATOM     11  C   UNL     1      -2.302  10.705  17.734  0.00  0.00    +0.000 A 
ATOM     12  C   UNL     1      -3.466  11.487  17.773  0.00  0.00    +0.000 A 
ATOM     13  C   UNL     1      -4.342  11.511  16.683  0.00  0.00    +0.000 A 
ATOM     14  C   UNL     1      -4.063  10.756  15.545  0.00  0.00    +0.000 A 
ATOM     15  C   UNL     1      -2.907   9.982  15.490  0.00  0.00    +0.000 A 
ATOM     16  C   UNL     1      -2.031   9.956  16.578  0.00  0.00    +0.000 A 
ENDBRANCH   9  11
ENDBRANCH   5   6
ENDBRANCH   2   5
BRANCH   3  17
ATOM     17  C   UNL     1       1.551   5.639  21.040  0.00  0.00    +0.000 C 
BRANCH  17  18
ATOM     18  C   UNL     1       2.691   4.971  20.266  0.00  0.00    +0.000 C 
ATOM     19  O   UNL     1       2.776   3.742  20.246  0.00  0.00    +0.000 OA
ATOM     20  N   UNL     1       3.563   5.840  19.631  0.00  0.00    +0.000 N 
ATOM     21  H   UNL     1       3.509   6.828  19.854  0.00  0.00    +0.000 HD
BRANCH  20  22
ATOM     22  C   UNL     1       4.658   5.437  18.822  0.00  0.00    +0.000 A 
ATOM     23  C   UNL     1       5.980   5.377  19.287  0.00  0.00    +0.000 A 
ATOM     24  C   UNL     1       7.025   5.016  18.435  0.00  0.00    +0.000 A 
ATOM     25  C   UNL     1       6.754   4.696  17.111  0.00  0.00    +0.000 A 
ATOM     26  F   UNL     1       7.766   4.365  16.299  0.00  0.00    +0.000 F 
ATOM     27  C   UNL     1       5.448   4.719  16.637  0.00  0.00    +0.000 A 
ATOM     28  F   UNL     1       5.196   4.404  15.360  0.00  0.00    +0.000 F 
ATOM     29  C   UNL     1       4.408   5.077  17.491  0.00  0.00    +0.000 A 
ATOM     30  F   UNL     1       3.148   5.105  17.026  0.00  0.00    +0.000 F 
ENDBRANCH  20  22
ENDBRANCH  17  18
ENDBRANCH   3  17
TORSDOF 6
ENDMDL
MODEL 9
REMARK VINA RESULT:      -7.5      5.095      7.472
REMARK  Name = 
REMARK  6 active torsions:
REMARK  status: ('A' for Active; 'I' for Inactive)
REMARK    1  A    between atoms: C_2  and  C_3
REMARK    2  A    between atoms: C_3  and  N_4
REMARK    3  A    between atoms: C_7  and  C_8
REMARK    4  A    between atoms: N_15  and  C_16
REMARK    5  A    between atoms: C_16  and  C_17
REMARK    6  A    between atoms: N_19  and  C_20
REMARK                            x       y       z     vdW  Elec       q    Type
REMARK                         _______ _______ _______ _____ _____    ______ ____
ROOT
ATOM      1  O   UNL     1       7.733   6.442  16.414  0.00  0.00    +0.000 OA
ATOM      2  C   UNL     1       7.330   7.065  17.392  0.00  0.00    +0.000 C 
ATOM      3  N   UNL     1       5.996   7.273  17.633  0.00  0.00    +0.000 N 
ATOM      4  H   UNL     1       5.705   7.724  18.503  0.00  0.00    +0.000 HD
ENDROOT
BRANCH   2   5
ATOM      5  C   UNL     1       8.260   7.588  18.461  0.00  0.00    +0.000 C 
BRANCH   5   6
ATOM      6  N   UNL     1       8.447   9.011  18.327  0.00  0.00    +0.000 N 
ATOM      7  N   UNL     1       7.769   9.748  17.436  0.00  0.00    +0.000 NA
ATOM      8  N   UNL     1       8.218  10.983  17.611  0.00  0.00    +0.000 NA
ATOM      9  C   UNL     1       9.168  10.930  18.608  0.00  0.00    +0.000 A 
ATOM     10  N   UNL     1       9.338   9.682  19.084  0.00  0.00    +0.000 NA
BRANCH   9  11
ATOM     11  C   UNL     1       9.905  12.097  19.075  0.00  0.00    +0.000 A 
ATOM     12  C   UNL     1       9.244  13.306  19.341  0.00  0.00    +0.000 A 
ATOM     13  C   UNL     1       9.962  14.427  19.771  0.00  0.00    +0.000 A 
ATOM     14  C   UNL     1      11.342  14.351  19.942  0.00  0.00    +0.000 A 
ATOM     15  C   UNL     1      12.009  13.155  19.689  0.00  0.00    +0.000 A 
ATOM     16  C   UNL     1      11.295  12.034  19.258  0.00  0.00    +0.000 A 
ENDBRANCH   9  11
ENDBRANCH   5   6
ENDBRANCH   2   5
BRANCH   3  17
ATOM     17  C   UNL     1       4.917   6.777  16.790  0.00  0.00    +0.000 C 
BRANCH  17  18
ATOM     18  C   UNL     1       4.303   5.591  17.539  0.00  0.00    +0.000 C 
ATOM     19  O   UNL     1       4.721   4.452  17.323  0.00  0.00    +0.000 OA
ATOM     20  N   UNL     1       3.292   5.912  18.430  0.00  0.00    +0.000 N 
ATOM     21  H   UNL     1       2.905   6.849  18.403  0.00  0.00    +0.000 HD
BRANCH  20  22
ATOM     22  C   UNL     1       2.620   4.978  19.260  0.00  0.00    +0.000 A 
ATOM     23  C   UNL     1       2.855   4.861  20.638  0.00  0.00    +0.000 A 
ATOM     24  C   UNL     1       2.197   3.894  21.399  0.00  0.00    +0.000 A 
ATOM     25  C   UNL     1       1.285   3.043  20.790  0.00  0.00    +0.000 A 
ATOM     26  F   UNL     1       0.670   2.108  21.527  0.00  0.00    +0.000 F 
ATOM     27  C   UNL     1       1.013   3.161  19.433  0.00  0.00    +0.000 A 
ATOM     28  F   UNL     1       0.127   2.339  18.854  0.00  0.00    +0.000 F 
ATOM     29  C   UNL     1       1.670   4.129  18.677  0.00  0.00    +0.000 A 
ATOM     30  F   UNL     1       1.409   4.234  17.363  0.00  0.00    +0.000 F 
ENDBRANCH  20  22
ENDBRANCH  17  18
ENDBRANCH   3  17
TORSDOF 6
ENDMDL
