MODEL 1
REMARK VINA RESULT:      -4.8      0.000      0.000
REMARK  Name = 
REMARK  6 active torsions:
REMARK  status: ('A' for Active; 'I' for Inactive)
REMARK    1  A    between atoms: C_1  and  C_2
REMARK    2  A    between atoms: C_2  and  O_3
REMARK    3  A    between atoms: O_3  and  C_4
REMARK    4  A    between atoms: C_4  and  C_6
REMARK    5  A    between atoms: C_7  and  C_8
REMARK    6  A    between atoms: C_8  and  O_10
REMARK                            x       y       z     vdW  Elec       q    Type
REMARK                         _______ _______ _______ _____ _____    ______ ____
ROOT
ATOM      1  C   UNL     1       6.386   3.350  12.877  0.00  0.00    +0.000 C 
ATOM      2  C   UNL     1       5.815   4.021  13.887  0.00  0.00    +0.000 C 
ENDROOT
BRANCH   1   3
ATOM      3  C   UNL     1       5.516   2.750  11.854  0.00  0.00    +0.000 C 
ATOM      4  O   UNL     1       5.743   1.695  11.285  0.00  0.00    +0.000 OA
BRANCH   3   5
ATOM      5  O   UNL     1       4.519   3.626  11.591  0.00  0.00    +0.000 OA
BRANCH   5   7
ATOM      6  C   UNL     1       3.110   4.219   9.754  0.00  0.00    +0.000 C 
ATOM      7  C   UNL     1       3.476   3.126  10.741  0.00  0.00    +0.000 C 
ENDBRANCH   5   7
ENDBRANCH   3   5
ENDBRANCH   1   3
BRANCH   2   8
ATOM      8  C   UNL     1       6.668   4.519  14.979  0.00  0.00    +0.000 C 
ATOM      9  O   UNL     1       7.432   5.462  14.879  0.00  0.00    +0.000 OA
BRANCH   8  10
ATOM     10  O   UNL     1       6.519   3.793  16.102  0.00  0.00    +0.000 OA
ATOM     11  H   UNL     1       6.833   4.208  16.924  0.00  0.00    +0.000 HD
ENDBRANCH   8  10
ENDBRANCH   2   8
TORSDOF 5
ENDMDL
MODEL 2
REMARK VINA RESULT:      -4.7      1.408      4.960
REMARK  Name = 
REMARK  6 active torsions:
REMARK  status: ('A' for Active; 'I' for Inactive)
REMARK    1  A    between atoms: C_1  and  C_2
REMARK    2  A    between atoms: C_2  and  O_3
REMARK    3  A    between atoms: O_3  and  C_4
REMARK    4  A    between atoms: C_4  and  C_6
REMARK    5  A    between atoms: C_7  and  C_8
REMARK    6  A    between atoms: C_8  and  O_10
REMARK                            x       y       z     vdW  Elec       q    Type
REMARK                         _______ _______ _______ _____ _____    ______ ____
ROOT
ATOM      1  C   UNL     1       6.038   3.945  13.841  0.00  0.00    +0.000 C 
ATOM      2  C   UNL     1       6.319   3.683  12.558  0.00  0.00    +0.000 C 
ENDROOT
BRANCH   1   3
ATOM      3  C   UNL     1       6.975   4.782  14.608  0.00  0.00    +0.000 C 
ATOM      4  O   UNL     1       7.848   5.475  14.113  0.00  0.00    +0.000 OA
BRANCH   3   5
ATOM      5  O   UNL     1       6.764   4.542  15.923  0.00  0.00    +0.000 OA
BRANCH   5   7
ATOM      6  C   UNL     1       5.427   6.422  16.550  0.00  0.00    +0.000 C 
ATOM      7  C   UNL     1       6.750   5.707  16.760  0.00  0.00    +0.000 C 
ENDBRANCH   5   7
ENDBRANCH   3   5
ENDBRANCH   1   3
BRANCH   2   8
ATOM      8  C   UNL     1       5.455   2.748  11.819  0.00  0.00    +0.000 C 
ATOM      9  O   UNL     1       4.330   3.012  11.431  0.00  0.00    +0.000 OA
BRANCH   8  10
ATOM     10  O   UNL     1       6.046   1.553  11.638  0.00  0.00    +0.000 OA
ATOM     11  H   UNL     1       6.673   1.277  12.330  0.00  0.00    +0.000 HD
ENDBRANCH   8  10
ENDBRANCH   2   8
TORSDOF 5
ENDMDL
MODEL 3
REMARK VINA RESULT:      -4.5      1.679      4.884
REMARK  Name = 
REMARK  6 active torsions:
REMARK  status: ('A' for Active; 'I' for Inactive)
REMARK    1  A    between atoms: C_1  and  C_2
REMARK    2  A    between atoms: C_2  and  O_3
REMARK    3  A    between atoms: O_3  and  C_4
REMARK    4  A    between atoms: C_4  and  C_6
REMARK    5  A    between atoms: C_7  and  C_8
REMARK    6  A    between atoms: C_8  and  O_10
REMARK                            x       y       z     vdW  Elec       q    Type
REMARK                         _______ _______ _______ _____ _____    ______ ____
ROOT
ATOM      1  C   UNL     1       5.720   4.171  14.047  0.00  0.00    +0.000 C 
ATOM      2  C   UNL     1       6.267   3.821  12.875  0.00  0.00    +0.000 C 
ENDROOT
BRANCH   1   3
ATOM      3  C   UNL     1       6.517   4.985  14.978  0.00  0.00    +0.000 C 
ATOM      4  O   UNL     1       7.654   4.722  15.328  0.00  0.00    +0.000 OA
BRANCH   3   5
ATOM      5  O   UNL     1       5.723   5.978  15.443  0.00  0.00    +0.000 OA
BRANCH   5   7
ATOM      6  C   UNL     1       4.417   6.897  17.222  0.00  0.00    +0.000 C 
ATOM      7  C   UNL     1       4.882   5.619  16.549  0.00  0.00    +0.000 C 
ENDBRANCH   5   7
ENDBRANCH   3   5
ENDBRANCH   1   3
BRANCH   2   8
ATOM      8  C   UNL     1       5.527   2.905  11.992  0.00  0.00    +0.000 C 
ATOM      9  O   UNL     1       4.425   3.140  11.526  0.00  0.00    +0.000 OA
BRANCH   8  10
ATOM     10  O   UNL     1       6.203   1.762  11.774  0.00  0.00    +0.000 OA
ATOM     11  H   UNL     1       6.727   1.426  12.521  0.00  0.00    +0.000 HD
ENDBRANCH   8  10
ENDBRANCH   2   8
TORSDOF 5
ENDMDL
MODEL 4
REMARK VINA RESULT:      -4.5      2.545      4.343
REMARK  Name = 
REMARK  6 active torsions:
REMARK  status: ('A' for Active; 'I' for Inactive)
REMARK    1  A    between atoms: C_1  and  C_2
REMARK    2  A    between atoms: C_2  and  O_3
REMARK    3  A    between atoms: O_3  and  C_4
REMARK    4  A    between atoms: C_4  and  C_6
REMARK    5  A    between atoms: C_7  and  C_8
REMARK    6  A    between atoms: C_8  and  O_10
REMARK                            x       y       z     vdW  Elec       q    Type
REMARK                         _______ _______ _______ _____ _____    ______ ____
ROOT
ATOM      1  C   UNL     1       6.635   4.679  16.766  0.00  0.00    +0.000 C 
ATOM      2  C   UNL     1       7.571   5.005  17.668  0.00  0.00    +0.000 C 
ENDROOT
BRANCH   1   3
ATOM      3  C   UNL     1       7.011   4.653  15.344  0.00  0.00    +0.000 C 
ATOM      4  O   UNL     1       7.729   5.476  14.803  0.00  0.00    +0.000 OA
BRANCH   3   5
ATOM      5  O   UNL     1       6.329   3.644  14.754  0.00  0.00    +0.000 OA
BRANCH   5   7
ATOM      6  C   UNL     1       6.191   3.401  12.380  0.00  0.00    +0.000 C 
ATOM      7  C   UNL     1       5.552   4.021  13.608  0.00  0.00    +0.000 C 
ENDBRANCH   5   7
ENDBRANCH   3   5
ENDBRANCH   1   3
BRANCH   2   8
ATOM      8  C   UNL     1       7.174   5.155  19.078  0.00  0.00    +0.000 C 
ATOM      9  O   UNL     1       6.047   4.964  19.499  0.00  0.00    +0.000 OA
BRANCH   8  10
ATOM     10  O   UNL     1       8.204   5.548  19.850  0.00  0.00    +0.000 OA
ATOM     11  H   UNL     1       9.054   5.103  19.688  0.00  0.00    +0.000 HD
ENDBRANCH   8  10
ENDBRANCH   2   8
TORSDOF 5
ENDMDL
MODEL 5
REMARK VINA RESULT:      -4.4      2.096      3.626
REMARK  Name = 
REMARK  6 active torsions:
REMARK  status: ('A' for Active; 'I' for Inactive)
REMARK    1  A    between atoms: C_1  and  C_2
REMARK    2  A    between atoms: C_2  and  O_3
REMARK    3  A    between atoms: O_3  and  C_4
REMARK    4  A    between atoms: C_4  and  C_6
REMARK    5  A    between atoms: C_7  and  C_8
REMARK    6  A    between atoms: C_8  and  O_10
REMARK                            x       y       z     vdW  Elec       q    Type
REMARK                         _______ _______ _______ _____ _____    ______ ____
ROOT
ATOM      1  C   UNL     1       6.241   3.996  15.903  0.00  0.00    +0.000 C 
ATOM      2  C   UNL     1       5.362   4.703  16.626  0.00  0.00    +0.000 C 
ENDROOT
BRANCH   1   3
ATOM      3  C   UNL     1       6.649   4.516  14.589  0.00  0.00    +0.000 C 
ATOM      4  O   UNL     1       7.534   5.337  14.414  0.00  0.00    +0.000 OA
BRANCH   3   5
ATOM      5  O   UNL     1       5.798   4.017  13.663  0.00  0.00    +0.000 OA
BRANCH   5   7
ATOM      6  C   UNL     1       5.432   2.650  11.736  0.00  0.00    +0.000 C 
ATOM      7  C   UNL     1       6.415   3.559  12.451  0.00  0.00    +0.000 C 
ENDBRANCH   5   7
ENDBRANCH   3   5
ENDBRANCH   1   3
BRANCH   2   8
ATOM      8  C   UNL     1       4.855   4.131  17.884  0.00  0.00    +0.000 C 
ATOM      9  O   UNL     1       3.677   4.073  18.187  0.00  0.00    +0.000 OA
BRANCH   8  10
ATOM     10  O   UNL     1       5.853   3.694  18.674  0.00  0.00    +0.000 OA
ATOM     11  H   UNL     1       6.491   4.367  18.970  0.00  0.00    +0.000 HD
ENDBRANCH   8  10
ENDBRANCH   2   8
TORSDOF 5
ENDMDL
MODEL 6
REMARK VINA RESULT:      -4.4      3.075      5.115
REMARK  Name = 
REMARK  6 active torsions:
REMARK  status: ('A' for Active; 'I' for Inactive)
REMARK    1  A    between atoms: C_1  and  C_2
REMARK    2  A    between atoms: C_2  and  O_3
REMARK    3  A    between atoms: O_3  and  C_4
REMARK    4  A    between atoms: C_4  and  C_6
REMARK    5  A    between atoms: C_7  and  C_8
REMARK    6  A    between atoms: C_8  and  O_10
REMARK                            x       y       z     vdW  Elec       q    Type
REMARK                         _______ _______ _______ _____ _____    ______ ____
ROOT
ATOM      1  C   UNL     1       6.022   4.827  17.059  0.00  0.00    +0.000 C 
ATOM      2  C   UNL     1       6.135   4.815  18.395  0.00  0.00    +0.000 C 
ENDROOT
BRANCH   1   3
ATOM      3  C   UNL     1       7.080   5.477  16.272  0.00  0.00    +0.000 C 
ATOM      4  O   UNL     1       7.532   6.586  16.502  0.00  0.00    +0.000 OA
BRANCH   3   5
ATOM      5  O   UNL     1       7.355   4.684  15.210  0.00  0.00    +0.000 OA
BRANCH   5   7
ATOM      6  C   UNL     1       6.267   3.864  13.246  0.00  0.00    +0.000 C 
ATOM      7  C   UNL     1       6.265   3.864  14.764  0.00  0.00    +0.000 C 
ENDBRANCH   5   7
ENDBRANCH   3   5
ENDBRANCH   1   3
BRANCH   2   8
ATOM      8  C   UNL     1       5.024   4.277  19.195  0.00  0.00    +0.000 C 
ATOM      9  O   UNL     1       4.089   4.941  19.607  0.00  0.00    +0.000 OA
BRANCH   8  10
ATOM     10  O   UNL     1       5.171   2.961  19.438  0.00  0.00    +0.000 OA
ATOM     11  H   UNL     1       4.580   2.367  18.944  0.00  0.00    +0.000 HD
ENDBRANCH   8  10
ENDBRANCH   2   8
TORSDOF 5
ENDMDL
MODEL 7
REMARK VINA RESULT:      -4.4      2.227      5.595
REMARK  Name = 
REMARK  6 active torsions:
REMARK  status: ('A' for Active; 'I' for Inactive)
REMARK    1  A    between atoms: C_1  and  C_2
REMARK    2  A    between atoms: C_2  and  O_3
REMARK    3  A    between atoms: O_3  and  C_4
REMARK    4  A    between atoms: C_4  and  C_6
REMARK    5  A    between atoms: C_7  and  C_8
REMARK    6  A    between atoms: C_8  and  O_10
REMARK                            x       y       z     vdW  Elec       q    Type
REMARK                         _______ _______ _______ _____ _____    ______ ____
ROOT
ATOM      1  C   UNL     1       6.898   4.806  14.704  0.00  0.00    +0.000 C 
ATOM      2  C   UNL     1       6.143   3.958  13.992  0.00  0.00    +0.000 C 
ENDROOT
BRANCH   1   3
ATOM      3  C   UNL     1       6.444   5.189  16.050  0.00  0.00    +0.000 C 
ATOM      4  O   UNL     1       5.281   5.394  16.356  0.00  0.00    +0.000 OA
BRANCH   3   5
ATOM      5  O   UNL     1       7.541   5.382  16.818  0.00  0.00    +0.000 OA
BRANCH   5   7
ATOM      6  C   UNL     1       7.655   7.660  17.533  0.00  0.00    +0.000 C 
ATOM      7  C   UNL     1       7.346   6.236  17.955  0.00  0.00    +0.000 C 
ENDBRANCH   5   7
ENDBRANCH   3   5
ENDBRANCH   1   3
BRANCH   2   8
ATOM      8  C   UNL     1       6.525   3.666  12.601  0.00  0.00    +0.000 C 
ATOM      9  O   UNL     1       7.290   4.347  11.940  0.00  0.00    +0.000 OA
BRANCH   8  10
ATOM     10  O   UNL     1       5.912   2.564  12.133  0.00  0.00    +0.000 OA
ATOM     11  H   UNL     1       6.492   1.874  11.768  0.00  0.00    +0.000 HD
ENDBRANCH   8  10
ENDBRANCH   2   8
TORSDOF 5
ENDMDL
MODEL 8
REMARK VINA RESULT:      -4.4      3.166      5.378
REMARK  Name = 
REMARK  6 active torsions:
REMARK  status: ('A' for Active; 'I' for Inactive)
REMARK    1  A    between atoms: C_1  and  C_2
REMARK    2  A    between atoms: C_2  and  O_3
REMARK    3  A    between atoms: O_3  and  C_4
REMARK    4  A    between atoms: C_4  and  C_6
REMARK    5  A    between atoms: C_7  and  C_8
REMARK    6  A    between atoms: C_8  and  O_10
REMARK                            x       y       z     vdW  Elec       q    Type
REMARK                         _______ _______ _______ _____ _____    ______ ____
ROOT
ATOM      1  C   UNL     1       6.137   4.362  16.886  0.00  0.00    +0.000 C 
ATOM      2  C   UNL     1       5.701   4.194  15.629  0.00  0.00    +0.000 C 
ENDROOT
BRANCH   1   3
ATOM      3  C   UNL     1       5.164   4.263  17.984  0.00  0.00    +0.000 C 
ATOM      4  O   UNL     1       5.442   3.949  19.130  0.00  0.00    +0.000 OA
BRANCH   3   5
ATOM      5  O   UNL     1       3.930   4.462  17.465  0.00  0.00    +0.000 OA
BRANCH   5   7
ATOM      6  C   UNL     1       1.562   4.291  17.745  0.00  0.00    +0.000 C 
ATOM      7  C   UNL     1       2.900   3.619  18.000  0.00  0.00    +0.000 C 
ENDBRANCH   5   7
ENDBRANCH   3   5
ENDBRANCH   1   3
BRANCH   2   8
ATOM      8  C   UNL     1       6.641   4.412  14.518  0.00  0.00    +0.000 C 
ATOM      9  O   UNL     1       7.495   5.281  14.500  0.00  0.00    +0.000 OA
BRANCH   8  10
ATOM     10  O   UNL     1       6.435   3.546  13.509  0.00  0.00    +0.000 OA
ATOM     11  H   UNL     1       6.746   2.636  13.656  0.00  0.00    +0.000 HD
ENDBRANCH   8  10
ENDBRANCH   2   8
TORSDOF 5
ENDMDL
MODEL 9
REMARK VINA RESULT:      -4.4      3.427      5.559
REMARK  Name = 
REMARK  6 active torsions:
REMARK  status: ('A' for Active; 'I' for Inactive)
REMARK    1  A    between atoms: C_1  and  C_2
REMARK    2  A    between atoms: C_2  and  O_3
REMARK    3  A    between atoms: O_3  and  C_4
REMARK    4  A    between atoms: C_4  and  C_6
REMARK    5  A    between atoms: C_7  and  C_8
REMARK    6  A    between atoms: C_8  and  O_10
REMARK                            x       y       z     vdW  Elec       q    Type
REMARK                         _______ _______ _______ _____ _____    ______ ____
ROOT
ATOM      1  C   UNL     1       5.390   4.507  16.890  0.00  0.00    +0.000 C 
ATOM      2  C   UNL     1       6.617   4.385  16.363  0.00  0.00    +0.000 C 
ENDROOT
BRANCH   1   3
ATOM      3  C   UNL     1       5.223   4.286  18.335  0.00  0.00    +0.000 C 
ATOM      4  O   UNL     1       6.142   4.179  19.130  0.00  0.00    +0.000 OA
BRANCH   3   5
ATOM      5  O   UNL     1       3.904   4.108  18.577  0.00  0.00    +0.000 OA
BRANCH   5   7
ATOM      6  C   UNL     1       1.684   4.292  17.710  0.00  0.00    +0.000 C 
ATOM      7  C   UNL     1       3.102   3.837  17.418  0.00  0.00    +0.000 C 
ENDBRANCH   5   7
ENDBRANCH   3   5
ENDBRANCH   1   3
BRANCH   2   8
ATOM      8  C   UNL     1       6.773   4.482  14.903  0.00  0.00    +0.000 C 
ATOM      9  O   UNL     1       6.182   3.783  14.099  0.00  0.00    +0.000 OA
BRANCH   8  10
ATOM     10  O   UNL     1       7.666   5.427  14.556  0.00  0.00    +0.000 OA
ATOM     11  H   UNL     1       7.336   6.137  13.978  0.00  0.00    +0.000 HD
ENDBRANCH   8  10
ENDBRANCH   2   8
TORSDOF 5
ENDMDL
