MODEL 1
REMARK VINA RESULT:      -8.1      0.000      0.000
REMARK  Name = 
REMARK  8 active torsions:
REMARK  status: ('A' for Active; 'I' for Inactive)
REMARK    1  A    between atoms: C_1  and  C_2
REMARK    2  A    between atoms: C_5  and  O_6
REMARK    3  A    between atoms: O_6  and  C_7
REMARK    4  A    between atoms: C_7  and  C_8
REMARK    5  A    between atoms: C_11  and  C_12
REMARK    6  A    between atoms: C_14  and  C_15
REMARK    7  A    between atoms: C_17  and  N_18
REMARK    8  A    between atoms: C_21  and  C_22
REMARK                            x       y       z     vdW  Elec       q    Type
REMARK                         _______ _______ _______ _____ _____    ______ ____
ROOT
ATOM      1  C   UNL     1       0.567   9.940  19.676  0.00  0.00    +0.000 A 
ATOM      2  C   UNL     1       0.319   9.858  21.029  0.00  0.00    +0.000 A 
ATOM      3  C   UNL     1       0.919   8.656  21.477  0.00  0.00    +0.000 A 
ATOM      4  C   UNL     1       1.494   8.039  20.376  0.00  0.00    +0.000 A 
ATOM      5  O   UNL     1       1.282   8.841  19.274  0.00  0.00    +0.000 OA
ENDROOT
BRANCH   4   6
ATOM      6  C   UNL     1       2.152   6.756  20.334  0.00  0.00    +0.000 A 
ATOM      7  N   UNL     1       1.833   5.744  21.129  0.00  0.00    +0.000 NA
ATOM      8  C   UNL     1       2.609   4.700  20.672  0.00  0.00    +0.000 A 
ATOM      9  C   UNL     1       3.405   5.102  19.618  0.00  0.00    +0.000 A 
ATOM     10  O   UNL     1       3.128   6.437  19.424  0.00  0.00    +0.000 OA
BRANCH   9  11
ATOM     11  N   UNL     1       4.290   4.539  18.755  0.00  0.00    +0.000 N 
ATOM     12  C   UNL     1       5.720   4.533  19.056  0.00  0.00    +0.000 C 
ATOM     13  C   UNL     1       6.503   5.014  17.838  0.00  0.00    +0.000 C 
ATOM     14  C   UNL     1       6.154   4.205  16.580  0.00  0.00    +0.000 C 
ATOM     15  C   UNL     1       6.862   4.790  15.360  0.00  0.00    +0.000 C 
ATOM     16  C   UNL     1       4.633   4.168  16.367  0.00  0.00    +0.000 C 
ATOM     17  C   UNL     1       3.884   3.705  17.623  0.00  0.00    +0.000 C 
ENDBRANCH   9  11
BRANCH   8  18
ATOM     18  C   UNL     1       2.545   3.412  21.297  0.00  0.00    +0.000 C 
ATOM     19  N   UNL     1       2.525   2.374  21.822  0.00  0.00    +0.000 NA
ENDBRANCH   8  18
ENDBRANCH   4   6
BRANCH   1  20
ATOM     20  C   UNL     1       0.156  10.923  18.624  0.00  0.00    +0.000 C 
BRANCH  20  21
ATOM     21  O   UNL     1      -0.606  10.215  17.643  0.00  0.00    +0.000 OA
BRANCH  21  26
ATOM     22  C   UNL     1      -5.930  12.194  17.207  0.00  0.00    +0.000 C 
ATOM     23  C   UNL     1      -4.537  11.641  17.304  0.00  0.00    +0.000 A 
ATOM     24  C   UNL     1      -3.804  11.737  18.491  0.00  0.00    +0.000 A 
ATOM     25  C   UNL     1      -2.498  11.238  18.559  0.00  0.00    +0.000 A 
ATOM     26  C   UNL     1      -1.903  10.621  17.455  0.00  0.00    +0.000 A 
ATOM     27  C   UNL     1      -2.630  10.525  16.267  0.00  0.00    +0.000 A 
ATOM     28  C   UNL     1      -3.937  11.033  16.194  0.00  0.00    +0.000 A 
ENDBRANCH  21  26
ENDBRANCH  20  21
ENDBRANCH   1  20
TORSDOF 6
ENDMDL
MODEL 2
REMARK VINA RESULT:      -8.0      0.894      1.311
REMARK  Name = 
REMARK  8 active torsions:
REMARK  status: ('A' for Active; 'I' for Inactive)
REMARK    1  A    between atoms: C_1  and  C_2
REMARK    2  A    between atoms: C_5  and  O_6
REMARK    3  A    between atoms: O_6  and  C_7
REMARK    4  A    between atoms: C_7  and  C_8
REMARK    5  A    between atoms: C_11  and  C_12
REMARK    6  A    between atoms: C_14  and  C_15
REMARK    7  A    between atoms: C_17  and  N_18
REMARK    8  A    between atoms: C_21  and  C_22
REMARK                            x       y       z     vdW  Elec       q    Type
REMARK                         _______ _______ _______ _____ _____    ______ ____
ROOT
ATOM      1  C   UNL     1       0.497  10.301  20.250  0.00  0.00    +0.000 A 
ATOM      2  C   UNL     1       0.552  10.191  21.623  0.00  0.00    +0.000 A 
ATOM      3  C   UNL     1       1.130   8.929  21.903  0.00  0.00    +0.000 A 
ATOM      4  C   UNL     1       1.390   8.308  20.691  0.00  0.00    +0.000 A 
ATOM      5  O   UNL     1       1.007   9.163  19.679  0.00  0.00    +0.000 OA
ENDROOT
BRANCH   4   6
ATOM      6  C   UNL     1       1.909   6.979  20.479  0.00  0.00    +0.000 A 
ATOM      7  N   UNL     1       1.327   5.884  20.948  0.00  0.00    +0.000 NA
ATOM      8  C   UNL     1       2.074   4.853  20.417  0.00  0.00    +0.000 A 
ATOM      9  C   UNL     1       3.112   5.341  19.649  0.00  0.00    +0.000 A 
ATOM     10  O   UNL     1       3.019   6.713  19.717  0.00  0.00    +0.000 OA
BRANCH   9  11
ATOM     11  N   UNL     1       4.099   4.843  18.860  0.00  0.00    +0.000 N 
ATOM     12  C   UNL     1       5.503   5.012  19.229  0.00  0.00    +0.000 C 
ATOM     13  C   UNL     1       6.292   5.523  18.027  0.00  0.00    +0.000 C 
ATOM     14  C   UNL     1       6.102   4.623  16.798  0.00  0.00    +0.000 C 
ATOM     15  C   UNL     1       6.806   5.228  15.584  0.00  0.00    +0.000 C 
ATOM     16  C   UNL     1       4.608   4.405  16.513  0.00  0.00    +0.000 C 
ATOM     17  C   UNL     1       3.849   3.918  17.754  0.00  0.00    +0.000 C 
ENDBRANCH   9  11
BRANCH   8  18
ATOM     18  C   UNL     1       1.748   3.488  20.708  0.00  0.00    +0.000 C 
ATOM     19  N   UNL     1       1.513   2.378  20.966  0.00  0.00    +0.000 NA
ENDBRANCH   8  18
ENDBRANCH   4   6
BRANCH   1  20
ATOM     20  C   UNL     1      -0.051  11.352  19.335  0.00  0.00    +0.000 C 
BRANCH  20  21
ATOM     21  O   UNL     1      -1.473  11.205  19.310  0.00  0.00    +0.000 OA
BRANCH  21  26
ATOM     22  C   UNL     1      -4.009  10.054  14.341  0.00  0.00    +0.000 C 
ATOM     23  C   UNL     1      -3.336  10.321  15.657  0.00  0.00    +0.000 A 
ATOM     24  C   UNL     1      -3.832  11.288  16.536  0.00  0.00    +0.000 A 
ATOM     25  C   UNL     1      -3.180  11.542  17.750  0.00  0.00    +0.000 A 
ATOM     26  C   UNL     1      -2.036  10.829  18.117  0.00  0.00    +0.000 A 
ATOM     27  C   UNL     1      -1.537   9.864  17.242  0.00  0.00    +0.000 A 
ATOM     28  C   UNL     1      -2.183   9.614  16.020  0.00  0.00    +0.000 A 
ENDBRANCH  21  26
ENDBRANCH  20  21
ENDBRANCH   1  20
TORSDOF 6
ENDMDL
MODEL 3
REMARK VINA RESULT:      -7.9      2.837      8.799
REMARK  Name = 
REMARK  8 active torsions:
REMARK  status: ('A' for Active; 'I' for Inactive)
REMARK    1  A    between atoms: C_1  and  C_2
REMARK    2  A    between atoms: C_5  and  O_6
REMARK    3  A    between atoms: O_6  and  C_7
REMARK    4  A    between atoms: C_7  and  C_8
REMARK    5  A    between atoms: C_11  and  C_12
REMARK    6  A    between atoms: C_14  and  C_15
REMARK    7  A    between atoms: C_17  and  N_18
REMARK    8  A    between atoms: C_21  and  C_22
REMARK                            x       y       z     vdW  Elec       q    Type
REMARK                         _______ _______ _______ _____ _____    ______ ____
ROOT
ATOM      1  C   UNL     1       3.941   4.652  18.881  0.00  0.00    +0.000 A 
ATOM      2  C   UNL     1       2.962   4.493  17.924  0.00  0.00    +0.000 A 
ATOM      3  C   UNL     1       2.051   5.563  18.098  0.00  0.00    +0.000 A 
ATOM      4  C   UNL     1       2.498   6.325  19.166  0.00  0.00    +0.000 A 
ATOM      5  O   UNL     1       3.667   5.764  19.636  0.00  0.00    +0.000 OA
ENDROOT
BRANCH   4   6
ATOM      6  C   UNL     1       1.853   7.473  19.756  0.00  0.00    +0.000 A 
ATOM      7  N   UNL     1       1.561   7.565  21.046  0.00  0.00    +0.000 NA
ATOM      8  C   UNL     1       1.079   8.849  21.191  0.00  0.00    +0.000 A 
ATOM      9  C   UNL     1       1.067   9.511  19.979  0.00  0.00    +0.000 A 
ATOM     10  O   UNL     1       1.539   8.609  19.052  0.00  0.00    +0.000 OA
BRANCH   9  11
ATOM     11  N   UNL     1       0.776  10.753  19.516  0.00  0.00    +0.000 N 
ATOM     12  C   UNL     1       1.691  11.442  18.608  0.00  0.00    +0.000 C 
ATOM     13  C   UNL     1       1.929  12.867  19.102  0.00  0.00    +0.000 C 
ATOM     14  C   UNL     1       0.609  13.625  19.308  0.00  0.00    +0.000 C 
ATOM     15  C   UNL     1       0.878  15.001  19.915  0.00  0.00    +0.000 C 
ATOM     16  C   UNL     1      -0.349  12.812  20.193  0.00  0.00    +0.000 C 
ATOM     17  C   UNL     1      -0.537  11.380  19.676  0.00  0.00    +0.000 C 
ENDBRANCH   9  11
BRANCH   8  18
ATOM     18  C   UNL     1       0.647   9.328  22.470  0.00  0.00    +0.000 C 
ATOM     19  N   UNL     1       0.327   9.739  23.511  0.00  0.00    +0.000 NA
ENDBRANCH   8  18
ENDBRANCH   4   6
BRANCH   1  20
ATOM     20  C   UNL     1       5.137   3.834  19.258  0.00  0.00    +0.000 C 
BRANCH  20  21
ATOM     21  O   UNL     1       6.127   4.020  18.244  0.00  0.00    +0.000 OA
BRANCH  21  26
ATOM     22  C   UNL     1       8.372   9.243  17.888  0.00  0.00    +0.000 C 
ATOM     23  C   UNL     1       7.815   7.852  17.986  0.00  0.00    +0.000 A 
ATOM     24  C   UNL     1       6.817   7.412  17.112  0.00  0.00    +0.000 A 
ATOM     25  C   UNL     1       6.290   6.120  17.231  0.00  0.00    +0.000 A 
ATOM     26  C   UNL     1       6.757   5.239  18.209  0.00  0.00    +0.000 A 
ATOM     27  C   UNL     1       7.752   5.674  19.085  0.00  0.00    +0.000 A 
ATOM     28  C   UNL     1       8.275   6.972  18.974  0.00  0.00    +0.000 A 
ENDBRANCH  21  26
ENDBRANCH  20  21
ENDBRANCH   1  20
TORSDOF 6
ENDMDL
MODEL 4
REMARK VINA RESULT:      -7.9      1.261      1.630
REMARK  Name = 
REMARK  8 active torsions:
REMARK  status: ('A' for Active; 'I' for Inactive)
REMARK    1  A    between atoms: C_1  and  C_2
REMARK    2  A    between atoms: C_5  and  O_6
REMARK    3  A    between atoms: O_6  and  C_7
REMARK    4  A    between atoms: C_7  and  C_8
REMARK    5  A    between atoms: C_11  and  C_12
REMARK    6  A    between atoms: C_14  and  C_15
REMARK    7  A    between atoms: C_17  and  N_18
REMARK    8  A    between atoms: C_21  and  C_22
REMARK                            x       y       z     vdW  Elec       q    Type
REMARK                         _______ _______ _______ _____ _____    ______ ____
ROOT
ATOM      1  C   UNL     1       0.775   9.592  20.170  0.00  0.00    +0.000 A 
ATOM      2  C   UNL     1       0.484   8.923  21.340  0.00  0.00    +0.000 A 
ATOM      3  C   UNL     1       1.171   7.686  21.278  0.00  0.00    +0.000 A 
ATOM      4  C   UNL     1       1.839   7.637  20.065  0.00  0.00    +0.000 A 
ATOM      5  O   UNL     1       1.599   8.818  19.393  0.00  0.00    +0.000 OA
ENDROOT
BRANCH   4   6
ATOM      6  C   UNL     1       2.609   6.541  19.531  0.00  0.00    +0.000 A 
ATOM      7  N   UNL     1       2.351   5.268  19.797  0.00  0.00    +0.000 NA
ATOM      8  C   UNL     1       3.234   4.571  18.998  0.00  0.00    +0.000 A 
ATOM      9  C   UNL     1       4.030   5.436  18.274  0.00  0.00    +0.000 A 
ATOM     10  O   UNL     1       3.644   6.704  18.644  0.00  0.00    +0.000 OA
BRANCH   9  11
ATOM     11  N   UNL     1       4.993   5.353  17.320  0.00  0.00    +0.000 N 
ATOM     12  C   UNL     1       5.128   6.399  16.308  0.00  0.00    +0.000 C 
ATOM     13  C   UNL     1       5.232   5.763  14.924  0.00  0.00    +0.000 C 
ATOM     14  C   UNL     1       6.359   4.721  14.860  0.00  0.00    +0.000 C 
ATOM     15  C   UNL     1       6.356   4.021  13.502  0.00  0.00    +0.000 C 
ATOM     16  C   UNL     1       6.219   3.704  16.002  0.00  0.00    +0.000 C 
ATOM     17  C   UNL     1       6.089   4.385  17.371  0.00  0.00    +0.000 C 
ENDBRANCH   9  11
BRANCH   8  18
ATOM     18  C   UNL     1       3.259   3.139  19.013  0.00  0.00    +0.000 C 
ATOM     19  N   UNL     1       3.310   1.976  19.001  0.00  0.00    +0.000 NA
ENDBRANCH   8  18
ENDBRANCH   4   6
BRANCH   1  20
ATOM     20  C   UNL     1       0.319  10.901  19.607  0.00  0.00    +0.000 C 
BRANCH  20  21
ATOM     21  O   UNL     1      -0.137  10.665  18.273  0.00  0.00    +0.000 OA
BRANCH  21  26
ATOM     22  C   UNL     1      -5.741  11.424  17.587  0.00  0.00    +0.000 C 
ATOM     23  C   UNL     1      -4.269  11.187  17.763  0.00  0.00    +0.000 A 
ATOM     24  C   UNL     1      -3.551  11.831  18.774  0.00  0.00    +0.000 A 
ATOM     25  C   UNL     1      -2.174  11.619  18.911  0.00  0.00    +0.000 A 
ATOM     26  C   UNL     1      -1.489  10.750  18.057  0.00  0.00    +0.000 A 
ATOM     27  C   UNL     1      -2.202  10.106  17.044  0.00  0.00    +0.000 A 
ATOM     28  C   UNL     1      -3.581  10.325  16.899  0.00  0.00    +0.000 A 
ENDBRANCH  21  26
ENDBRANCH  20  21
ENDBRANCH   1  20
TORSDOF 6
ENDMDL
MODEL 5
REMARK VINA RESULT:      -7.8      0.778      1.259
REMARK  Name = 
REMARK  8 active torsions:
REMARK  status: ('A' for Active; 'I' for Inactive)
REMARK    1  A    between atoms: C_1  and  C_2
REMARK    2  A    between atoms: C_5  and  O_6
REMARK    3  A    between atoms: O_6  and  C_7
REMARK    4  A    between atoms: C_7  and  C_8
REMARK    5  A    between atoms: C_11  and  C_12
REMARK    6  A    between atoms: C_14  and  C_15
REMARK    7  A    between atoms: C_17  and  N_18
REMARK    8  A    between atoms: C_21  and  C_22
REMARK                            x       y       z     vdW  Elec       q    Type
REMARK                         _______ _______ _______ _____ _____    ______ ____
ROOT
ATOM      1  C   UNL     1       0.641  10.159  19.722  0.00  0.00    +0.000 A 
ATOM      2  C   UNL     1       0.236  10.011  21.031  0.00  0.00    +0.000 A 
ATOM      3  C   UNL     1       0.744   8.765  21.472  0.00  0.00    +0.000 A 
ATOM      4  C   UNL     1       1.426   8.191  20.411  0.00  0.00    +0.000 A 
ATOM      5  O   UNL     1       1.367   9.060  19.341  0.00  0.00    +0.000 OA
ENDROOT
BRANCH   4   6
ATOM      6  C   UNL     1       2.048   6.890  20.368  0.00  0.00    +0.000 A 
ATOM      7  N   UNL     1       1.664   5.872  21.125  0.00  0.00    +0.000 NA
ATOM      8  C   UNL     1       2.430   4.814  20.679  0.00  0.00    +0.000 A 
ATOM      9  C   UNL     1       3.283   5.215  19.670  0.00  0.00    +0.000 A 
ATOM     10  O   UNL     1       3.054   6.561  19.495  0.00  0.00    +0.000 OA
BRANCH   9  11
ATOM     11  N   UNL     1       4.189   4.644  18.835  0.00  0.00    +0.000 N 
ATOM     12  C   UNL     1       5.621   4.755  19.103  0.00  0.00    +0.000 C 
ATOM     13  C   UNL     1       6.350   5.189  17.834  0.00  0.00    +0.000 C 
ATOM     14  C   UNL     1       6.034   4.261  16.652  0.00  0.00    +0.000 C 
ATOM     15  C   UNL     1       6.680   4.792  15.373  0.00  0.00    +0.000 C 
ATOM     16  C   UNL     1       4.515   4.107  16.475  0.00  0.00    +0.000 C 
ATOM     17  C   UNL     1       3.821   3.698  17.780  0.00  0.00    +0.000 C 
ENDBRANCH   9  11
BRANCH   8  18
ATOM     18  C   UNL     1       2.300   3.516  21.271  0.00  0.00    +0.000 C 
ATOM     19  N   UNL     1       2.190   2.447  21.717  0.00  0.00    +0.000 NA
ENDBRANCH   8  18
ENDBRANCH   4   6
BRANCH   1  20
ATOM     20  C   UNL     1       0.385  11.213  18.691  0.00  0.00    +0.000 C 
BRANCH  20  21
ATOM     21  O   UNL     1      -0.479  12.191  19.276  0.00  0.00    +0.000 OA
BRANCH  21  26
ATOM     22  C   UNL     1      -5.912  11.483  17.717  0.00  0.00    +0.000 C 
ATOM     23  C   UNL     1      -4.489  11.704  18.143  0.00  0.00    +0.000 A 
ATOM     24  C   UNL     1      -3.426  11.377  17.296  0.00  0.00    +0.000 A 
ATOM     25  C   UNL     1      -2.103  11.565  17.715  0.00  0.00    +0.000 A 
ATOM     26  C   UNL     1      -1.814  12.098  18.975  0.00  0.00    +0.000 A 
ATOM     27  C   UNL     1      -2.873  12.424  19.824  0.00  0.00    +0.000 A 
ATOM     28  C   UNL     1      -4.200  12.227  19.409  0.00  0.00    +0.000 A 
ENDBRANCH  21  26
ENDBRANCH  20  21
ENDBRANCH   1  20
TORSDOF 6
ENDMDL
MODEL 6
REMARK VINA RESULT:      -7.7      1.145      1.511
REMARK  Name = 
REMARK  8 active torsions:
REMARK  status: ('A' for Active; 'I' for Inactive)
REMARK    1  A    between atoms: C_1  and  C_2
REMARK    2  A    between atoms: C_5  and  O_6
REMARK    3  A    between atoms: O_6  and  C_7
REMARK    4  A    between atoms: C_7  and  C_8
REMARK    5  A    between atoms: C_11  and  C_12
REMARK    6  A    between atoms: C_14  and  C_15
REMARK    7  A    between atoms: C_17  and  N_18
REMARK    8  A    between atoms: C_21  and  C_22
REMARK                            x       y       z     vdW  Elec       q    Type
REMARK                         _______ _______ _______ _____ _____    ______ ____
ROOT
ATOM      1  C   UNL     1       0.437  10.324  20.410  0.00  0.00    +0.000 A 
ATOM      2  C   UNL     1      -0.112   9.748  21.536  0.00  0.00    +0.000 A 
ATOM      3  C   UNL     1       0.443   8.449  21.635  0.00  0.00    +0.000 A 
ATOM      4  C   UNL     1       1.296   8.273  20.557  0.00  0.00    +0.000 A 
ATOM      5  O   UNL     1       1.295   9.435  19.814  0.00  0.00    +0.000 OA
ENDROOT
BRANCH   4   6
ATOM      6  C   UNL     1       2.027   7.082  20.201  0.00  0.00    +0.000 A 
ATOM      7  N   UNL     1       1.709   5.871  20.638  0.00  0.00    +0.000 NA
ATOM      8  C   UNL     1       2.574   5.033  19.966  0.00  0.00    +0.000 A 
ATOM      9  C   UNL     1       3.420   5.753  19.146  0.00  0.00    +0.000 A 
ATOM     10  O   UNL     1       3.083   7.075  19.324  0.00  0.00    +0.000 OA
BRANCH   9  11
ATOM     11  N   UNL     1       4.395   5.497  18.236  0.00  0.00    +0.000 N 
ATOM     12  C   UNL     1       5.003   6.584  17.473  0.00  0.00    +0.000 C 
ATOM     13  C   UNL     1       5.035   6.217  15.992  0.00  0.00    +0.000 C 
ATOM     14  C   UNL     1       5.723   4.864  15.756  0.00  0.00    +0.000 C 
ATOM     15  C   UNL     1       5.630   4.472  14.282  0.00  0.00    +0.000 C 
ATOM     16  C   UNL     1       5.105   3.780  16.652  0.00  0.00    +0.000 C 
ATOM     17  C   UNL     1       5.067   4.201  18.126  0.00  0.00    +0.000 C 
ENDBRANCH   9  11
BRANCH   8  18
ATOM     18  C   UNL     1       2.537   3.617  20.184  0.00  0.00    +0.000 C 
ATOM     19  N   UNL     1       2.530   2.463  20.331  0.00  0.00    +0.000 NA
ENDBRANCH   8  18
ENDBRANCH   4   6
BRANCH   1  20
ATOM     20  C   UNL     1       0.220  11.641  19.733  0.00  0.00    +0.000 C 
BRANCH  20  21
ATOM     21  O   UNL     1      -0.382  11.380  18.462  0.00  0.00    +0.000 OA
BRANCH  21  26
ATOM     22  C   UNL     1      -6.049  10.893  18.145  0.00  0.00    +0.000 C 
ATOM     23  C   UNL     1      -4.558  11.060  18.226  0.00  0.00    +0.000 A 
ATOM     24  C   UNL     1      -3.700  10.222  17.506  0.00  0.00    +0.000 A 
ATOM     25  C   UNL     1      -2.312  10.373  17.610  0.00  0.00    +0.000 A 
ATOM     26  C   UNL     1      -1.753  11.368  18.417  0.00  0.00    +0.000 A 
ATOM     27  C   UNL     1      -2.606  12.205  19.138  0.00  0.00    +0.000 A 
ATOM     28  C   UNL     1      -3.998  12.049  19.043  0.00  0.00    +0.000 A 
ENDBRANCH  21  26
ENDBRANCH  20  21
ENDBRANCH   1  20
TORSDOF 6
ENDMDL
MODEL 7
REMARK VINA RESULT:      -7.6      2.619      3.915
REMARK  Name = 
REMARK  8 active torsions:
REMARK  status: ('A' for Active; 'I' for Inactive)
REMARK    1  A    between atoms: C_1  and  C_2
REMARK    2  A    between atoms: C_5  and  O_6
REMARK    3  A    between atoms: O_6  and  C_7
REMARK    4  A    between atoms: C_7  and  C_8
REMARK    5  A    between atoms: C_11  and  C_12
REMARK    6  A    between atoms: C_14  and  C_15
REMARK    7  A    between atoms: C_17  and  N_18
REMARK    8  A    between atoms: C_21  and  C_22
REMARK                            x       y       z     vdW  Elec       q    Type
REMARK                         _______ _______ _______ _____ _____    ______ ____
ROOT
ATOM      1  C   UNL     1       0.535  10.619  20.083  0.00  0.00    +0.000 A 
ATOM      2  C   UNL     1       0.724  10.602  18.718  0.00  0.00    +0.000 A 
ATOM      3  C   UNL     1       1.299   9.346  18.406  0.00  0.00    +0.000 A 
ATOM      4  C   UNL     1       1.457   8.651  19.595  0.00  0.00    +0.000 A 
ATOM      5  O   UNL     1       0.974   9.436  20.621  0.00  0.00    +0.000 OA
ENDROOT
BRANCH   4   6
ATOM      6  C   UNL     1       2.069   7.358  19.781  0.00  0.00    +0.000 A 
ATOM      7  N   UNL     1       1.662   6.479  20.686  0.00  0.00    +0.000 NA
ATOM      8  C   UNL     1       2.428   5.359  20.437  0.00  0.00    +0.000 A 
ATOM      9  C   UNL     1       3.305   5.584  19.395  0.00  0.00    +0.000 A 
ATOM     10  O   UNL     1       3.090   6.884  18.995  0.00  0.00    +0.000 OA
BRANCH   9  11
ATOM     11  N   UNL     1       4.223   4.880  18.684  0.00  0.00    +0.000 N 
ATOM     12  C   UNL     1       5.628   4.876  19.083  0.00  0.00    +0.000 C 
ATOM     13  C   UNL     1       6.508   5.157  17.868  0.00  0.00    +0.000 C 
ATOM     14  C   UNL     1       6.212   4.187  16.715  0.00  0.00    +0.000 C 
ATOM     15  C   UNL     1       7.022   4.572  15.478  0.00  0.00    +0.000 C 
ATOM     16  C   UNL     1       4.709   4.162  16.402  0.00  0.00    +0.000 C 
ATOM     17  C   UNL     1       3.861   3.905  17.654  0.00  0.00    +0.000 C 
ENDBRANCH   9  11
BRANCH   8  18
ATOM     18  C   UNL     1       2.275   4.177  21.231  0.00  0.00    +0.000 C 
ATOM     19  N   UNL     1       2.113   3.218  21.871  0.00  0.00    +0.000 NA
ENDBRANCH   8  18
ENDBRANCH   4   6
BRANCH   1  20
ATOM     20  C   UNL     1       0.029  11.665  21.026  0.00  0.00    +0.000 C 
BRANCH  20  21
ATOM     21  O   UNL     1       1.137  12.492  21.391  0.00  0.00    +0.000 OA
BRANCH  21  26
ATOM     22  C   UNL     1       2.970  16.434  17.710  0.00  0.00    +0.000 C 
ATOM     23  C   UNL     1       2.460  15.419  18.693  0.00  0.00    +0.000 A 
ATOM     24  C   UNL     1       3.342  14.657  19.464  0.00  0.00    +0.000 A 
ATOM     25  C   UNL     1       2.853  13.697  20.359  0.00  0.00    +0.000 A 
ATOM     26  C   UNL     1       1.480  13.490  20.514  0.00  0.00    +0.000 A 
ATOM     27  C   UNL     1       0.595  14.247  19.745  0.00  0.00    +0.000 A 
ATOM     28  C   UNL     1       1.084  15.204  18.840  0.00  0.00    +0.000 A 
ENDBRANCH  21  26
ENDBRANCH  20  21
ENDBRANCH   1  20
TORSDOF 6
ENDMDL
MODEL 8
REMARK VINA RESULT:      -7.6      6.199      9.508
REMARK  Name = 
REMARK  8 active torsions:
REMARK  status: ('A' for Active; 'I' for Inactive)
REMARK    1  A    between atoms: C_1  and  C_2
REMARK    2  A    between atoms: C_5  and  O_6
REMARK    3  A    between atoms: O_6  and  C_7
REMARK    4  A    between atoms: C_7  and  C_8
REMARK    5  A    between atoms: C_11  and  C_12
REMARK    6  A    between atoms: C_14  and  C_15
REMARK    7  A    between atoms: C_17  and  N_18
REMARK    8  A    between atoms: C_21  and  C_22
REMARK                            x       y       z     vdW  Elec       q    Type
REMARK                         _______ _______ _______ _____ _____    ______ ____
ROOT
ATOM      1  C   UNL     1       8.442   9.814  18.111  0.00  0.00    +0.000 A 
ATOM      2  C   UNL     1       8.994   9.023  19.095  0.00  0.00    +0.000 A 
ATOM      3  C   UNL     1       8.500   7.713  18.884  0.00  0.00    +0.000 A 
ATOM      4  C   UNL     1       7.649   7.756  17.790  0.00  0.00    +0.000 A 
ATOM      5  O   UNL     1       7.627   9.051  17.314  0.00  0.00    +0.000 OA
ENDROOT
BRANCH   4   6
ATOM      6  C   UNL     1       6.858   6.678  17.250  0.00  0.00    +0.000 A 
ATOM      7  N   UNL     1       7.062   6.153  16.050  0.00  0.00    +0.000 NA
ATOM      8  C   UNL     1       6.182   5.091  15.994  0.00  0.00    +0.000 A 
ATOM      9  C   UNL     1       5.443   5.002  17.157  0.00  0.00    +0.000 A 
ATOM     10  O   UNL     1       5.862   6.046  17.951  0.00  0.00    +0.000 OA
BRANCH   9  11
ATOM     11  N   UNL     1       4.511   4.173  17.693  0.00  0.00    +0.000 N 
ATOM     12  C   UNL     1       3.348   3.757  16.912  0.00  0.00    +0.000 C 
ATOM     13  C   UNL     1       2.079   3.943  17.740  0.00  0.00    +0.000 C 
ATOM     14  C   UNL     1       2.175   3.228  19.095  0.00  0.00    +0.000 C 
ATOM     15  C   UNL     1       0.942   3.534  19.945  0.00  0.00    +0.000 C 
ATOM     16  C   UNL     1       3.462   3.632  19.831  0.00  0.00    +0.000 C 
ATOM     17  C   UNL     1       4.708   3.456  18.954  0.00  0.00    +0.000 C 
ENDBRANCH   9  11
BRANCH   8  18
ATOM     18  C   UNL     1       6.104   4.267  14.825  0.00  0.00    +0.000 C 
ATOM     19  N   UNL     1       6.019   3.624  13.858  0.00  0.00    +0.000 NA
ENDBRANCH   8  18
ENDBRANCH   4   6
BRANCH   1  20
ATOM     20  C   UNL     1       8.518  11.281  17.822  0.00  0.00    +0.000 C 
BRANCH  20  21
ATOM     21  O   UNL     1       9.891  11.607  17.594  0.00  0.00    +0.000 OA
BRANCH  21  26
ATOM     22  C   UNL     1      12.272  16.219  19.942  0.00  0.00    +0.000 C 
ATOM     23  C   UNL     1      11.614  15.008  19.344  0.00  0.00    +0.000 A 
ATOM     24  C   UNL     1      12.331  13.826  19.139  0.00  0.00    +0.000 A 
ATOM     25  C   UNL     1      11.710  12.713  18.559  0.00  0.00    +0.000 A 
ATOM     26  C   UNL     1      10.363  12.749  18.189  0.00  0.00    +0.000 A 
ATOM     27  C   UNL     1       9.644  13.928  18.390  0.00  0.00    +0.000 A 
ATOM     28  C   UNL     1      10.267  15.049  18.963  0.00  0.00    +0.000 A 
ENDBRANCH  21  26
ENDBRANCH  20  21
ENDBRANCH   1  20
TORSDOF 6
ENDMDL
MODEL 9
REMARK VINA RESULT:      -7.6      2.503      3.120
REMARK  Name = 
REMARK  8 active torsions:
REMARK  status: ('A' for Active; 'I' for Inactive)
REMARK    1  A    between atoms: C_1  and  C_2
REMARK    2  A    between atoms: C_5  and  O_6
REMARK    3  A    between atoms: O_6  and  C_7
REMARK    4  A    between atoms: C_7  and  C_8
REMARK    5  A    between atoms: C_11  and  C_12
REMARK    6  A    between atoms: C_14  and  C_15
REMARK    7  A    between atoms: C_17  and  N_18
REMARK    8  A    between atoms: C_21  and  C_22
REMARK                            x       y       z     vdW  Elec       q    Type
REMARK                         _______ _______ _______ _____ _____    ______ ____
ROOT
ATOM      1  C   UNL     1       0.313  10.379  20.906  0.00  0.00    +0.000 A 
ATOM      2  C   UNL     1       0.631  10.576  19.580  0.00  0.00    +0.000 A 
ATOM      3  C   UNL     1       1.248   9.383  19.131  0.00  0.00    +0.000 A 
ATOM      4  C   UNL     1       1.301   8.509  20.205  0.00  0.00    +0.000 A 
ATOM      5  O   UNL     1       0.715   9.125  21.291  0.00  0.00    +0.000 OA
ENDROOT
BRANCH   4   6
ATOM      6  C   UNL     1       1.909   7.201  20.243  0.00  0.00    +0.000 A 
ATOM      7  N   UNL     1       1.493   6.225  21.038  0.00  0.00    +0.000 NA
ATOM      8  C   UNL     1       2.257   5.138  20.665  0.00  0.00    +0.000 A 
ATOM      9  C   UNL     1       3.142   5.480  19.661  0.00  0.00    +0.000 A 
ATOM     10  O   UNL     1       2.933   6.819  19.414  0.00  0.00    +0.000 OA
BRANCH   9  11
ATOM     11  N   UNL     1       4.062   4.860  18.879  0.00  0.00    +0.000 N 
ATOM     12  C   UNL     1       5.458   5.290  18.890  0.00  0.00    +0.000 C 
ATOM     13  C   UNL     1       5.955   5.460  17.457  0.00  0.00    +0.000 C 
ATOM     14  C   UNL     1       5.728   4.191  16.622  0.00  0.00    +0.000 C 
ATOM     15  C   UNL     1       6.124   4.436  15.167  0.00  0.00    +0.000 C 
ATOM     16  C   UNL     1       4.265   3.732  16.723  0.00  0.00    +0.000 C 
ATOM     17  C   UNL     1       3.799   3.602  18.178  0.00  0.00    +0.000 C 
ENDBRANCH   9  11
BRANCH   8  18
ATOM     18  C   UNL     1       2.096   3.873  21.316  0.00  0.00    +0.000 C 
ATOM     19  N   UNL     1       2.001   2.847  21.857  0.00  0.00    +0.000 NA
ENDBRANCH   8  18
ENDBRANCH   4   6
BRANCH   1  20
ATOM     20  C   UNL     1      -0.291  11.265  21.950  0.00  0.00    +0.000 C 
BRANCH  20  21
ATOM     21  O   UNL     1      -1.133  12.209  21.283  0.00  0.00    +0.000 OA
BRANCH  21  26
ATOM     22  C   UNL     1      -6.098  13.138  23.916  0.00  0.00    +0.000 C 
ATOM     23  C   UNL     1      -4.808  12.875  23.194  0.00  0.00    +0.000 A 
ATOM     24  C   UNL     1      -3.670  12.450  23.885  0.00  0.00    +0.000 A 
ATOM     25  C   UNL     1      -2.467  12.232  23.203  0.00  0.00    +0.000 A 
ATOM     26  C   UNL     1      -2.378  12.416  21.820  0.00  0.00    +0.000 A 
ATOM     27  C   UNL     1      -3.511  12.842  21.126  0.00  0.00    +0.000 A 
ATOM     28  C   UNL     1      -4.716  13.071  21.811  0.00  0.00    +0.000 A 
ENDBRANCH  21  26
ENDBRANCH  20  21
ENDBRANCH   1  20
TORSDOF 6
ENDMDL
