MODEL 1
REMARK VINA RESULT:      -6.3      0.000      0.000
REMARK  Name = 
REMARK  10 active torsions:
REMARK  status: ('A' for Active; 'I' for Inactive)
REMARK    1  A    between atoms: C_1  and  C_2
REMARK    2  A    between atoms: C_2  and  C_3
REMARK    3  A    between atoms: C_3  and  C_4
REMARK    4  A    between atoms: C_4  and  C_5
REMARK    5  A    between atoms: C_5  and  N_6
REMARK    6  A    between atoms: C_5  and  C_15
REMARK    7  A    between atoms: N_6  and  C_7
REMARK    8  A    between atoms: C_7  and  C_8
REMARK    9  A    between atoms: C_8  and  N_9
REMARK   10  A    between atoms: C_11  and  C_12
REMARK                            x       y       z     vdW  Elec       q    Type
REMARK                         _______ _______ _______ _____ _____    ______ ____
ROOT
ATOM      1  C   UNL     1       5.692   4.464  16.677  0.00  0.00    +0.000 C 
ENDROOT
BRANCH   1   2
ATOM      2  C   UNL     1       7.092   5.048  16.987  0.00  0.00    +0.000 C 
ATOM      3  N   UNL     1       7.794   4.418  17.975  0.00  0.00    +0.000 N 
ATOM      4  O   UNL     1       7.560   6.022  16.406  0.00  0.00    +0.000 OA
ATOM      5  H   UNL     1       7.542   3.467  18.221  0.00  0.00    +0.000 HD
ATOM      6  H   UNL     1       8.740   4.729  18.140  0.00  0.00    +0.000 HD
ENDBRANCH   1   2
BRANCH   1   7
ATOM      7  N   UNL     1       4.743   5.607  16.520  0.00  0.00    +0.000 NA
ATOM      8  H   UNL     1       5.171   6.252  15.849  0.00  0.00    +0.000 HD
BRANCH   7   9
ATOM      9  C   UNL     1       4.544   6.333  17.791  0.00  0.00    +0.000 C 
BRANCH   9  10
ATOM     10  C   UNL     1       3.063   6.574  18.094  0.00  0.00    +0.000 C 
BRANCH  10  11
ATOM     11  N   UNL     1       2.427   5.366  18.594  0.00  0.00    +0.000 N 
ATOM     12  C   UNL     1       2.273   5.000  19.902  0.00  0.00    +0.000 A 
ATOM     13  C   UNL     1       1.625   3.784  19.895  0.00  0.00    +0.000 A 
ATOM     14  C   UNL     1       1.223   2.949  21.048  0.00  0.00    +0.000 C 
ATOM     15  C   UNL     1       1.432   3.510  18.520  0.00  0.00    +0.000 A 
ATOM     16  N   UNL     1       1.909   4.474  17.730  0.00  0.00    +0.000 NA
ENDBRANCH  10  11
ENDBRANCH   9  10
ENDBRANCH   7   9
ENDBRANCH   1   7
BRANCH   1  17
ATOM     17  C   UNL     1       5.749   3.574  15.422  0.00  0.00    +0.000 C 
BRANCH  17  18
ATOM     18  C   UNL     1       5.556   4.363  14.125  0.00  0.00    +0.000 C 
BRANCH  18  20
ATOM     19  C   UNL     1       5.182   3.198  11.926  0.00  0.00    +0.000 C 
ATOM     20  C   UNL     1       6.213   3.633  12.953  0.00  0.00    +0.000 C 
ENDBRANCH  18  20
ENDBRANCH  17  18
ENDBRANCH   1  17
TORSDOF 8
ENDMDL
MODEL 2
REMARK VINA RESULT:      -6.2      2.179      6.461
REMARK  Name = 
REMARK  10 active torsions:
REMARK  status: ('A' for Active; 'I' for Inactive)
REMARK    1  A    between atoms: C_1  and  C_2
REMARK    2  A    between atoms: C_2  and  C_3
REMARK    3  A    between atoms: C_3  and  C_4
REMARK    4  A    between atoms: C_4  and  C_5
REMARK    5  A    between atoms: C_5  and  N_6
REMARK    6  A    between atoms: C_5  and  C_15
REMARK    7  A    between atoms: N_6  and  C_7
REMARK    8  A    between atoms: C_7  and  C_8
REMARK    9  A    between atoms: C_8  and  N_9
REMARK   10  A    between atoms: C_11  and  C_12
REMARK                            x       y       z     vdW  Elec       q    Type
REMARK                         _______ _______ _______ _____ _____    ______ ____
ROOT
ATOM      1  C   UNL     1       3.501   4.203  18.529  0.00  0.00    +0.000 C 
ENDROOT
BRANCH   1   2
ATOM      2  C   UNL     1       4.182   2.865  18.907  0.00  0.00    +0.000 C 
ATOM      3  N   UNL     1       3.864   1.794  18.122  0.00  0.00    +0.000 N 
ATOM      4  O   UNL     1       4.952   2.745  19.855  0.00  0.00    +0.000 OA
ATOM      5  H   UNL     1       3.489   1.963  17.195  0.00  0.00    +0.000 HD
ATOM      6  H   UNL     1       4.356   0.929  18.298  0.00  0.00    +0.000 HD
ENDBRANCH   1   2
BRANCH   1   7
ATOM      7  N   UNL     1       4.003   4.610  17.182  0.00  0.00    +0.000 NA
ATOM      8  H   UNL     1       4.263   3.746  16.695  0.00  0.00    +0.000 HD
BRANCH   7   9
ATOM      9  C   UNL     1       5.206   5.461  17.279  0.00  0.00    +0.000 C 
BRANCH   9  10
ATOM     10  C   UNL     1       6.485   4.698  16.929  0.00  0.00    +0.000 C 
BRANCH  10  11
ATOM     11  N   UNL     1       6.643   4.569  15.490  0.00  0.00    +0.000 N 
ATOM     12  C   UNL     1       5.951   3.732  14.660  0.00  0.00    +0.000 A 
ATOM     13  C   UNL     1       6.440   3.948  13.390  0.00  0.00    +0.000 A 
ATOM     14  C   UNL     1       6.038   3.294  12.125  0.00  0.00    +0.000 C 
ATOM     15  C   UNL     1       7.428   4.944  13.571  0.00  0.00    +0.000 A 
ATOM     16  N   UNL     1       7.544   5.330  14.843  0.00  0.00    +0.000 NA
ENDBRANCH  10  11
ENDBRANCH   9  10
ENDBRANCH   7   9
ENDBRANCH   1   7
BRANCH   1  17
ATOM     17  C   UNL     1       1.969   4.052  18.562  0.00  0.00    +0.000 C 
BRANCH  17  18
ATOM     18  C   UNL     1       1.373   4.340  19.942  0.00  0.00    +0.000 C 
BRANCH  18  20
ATOM     19  C   UNL     1       1.909   2.685  21.759  0.00  0.00    +0.000 C 
ATOM     20  C   UNL     1       0.959   3.038  20.628  0.00  0.00    +0.000 C 
ENDBRANCH  18  20
ENDBRANCH  17  18
ENDBRANCH   1  17
TORSDOF 8
ENDMDL
MODEL 3
REMARK VINA RESULT:      -6.1      2.185      5.992
REMARK  Name = 
REMARK  10 active torsions:
REMARK  status: ('A' for Active; 'I' for Inactive)
REMARK    1  A    between atoms: C_1  and  C_2
REMARK    2  A    between atoms: C_2  and  C_3
REMARK    3  A    between atoms: C_3  and  C_4
REMARK    4  A    between atoms: C_4  and  C_5
REMARK    5  A    between atoms: C_5  and  N_6
REMARK    6  A    between atoms: C_5  and  C_15
REMARK    7  A    between atoms: N_6  and  C_7
REMARK    8  A    between atoms: C_7  and  C_8
REMARK    9  A    between atoms: C_8  and  N_9
REMARK   10  A    between atoms: C_11  and  C_12
REMARK                            x       y       z     vdW  Elec       q    Type
REMARK                         _______ _______ _______ _____ _____    ______ ____
ROOT
ATOM      1  C   UNL     1       3.783   4.537  19.431  0.00  0.00    +0.000 C 
ENDROOT
BRANCH   1   2
ATOM      2  C   UNL     1       4.392   3.153  19.100  0.00  0.00    +0.000 C 
ATOM      3  N   UNL     1       4.327   2.773  17.790  0.00  0.00    +0.000 N 
ATOM      4  O   UNL     1       4.897   2.419  19.944  0.00  0.00    +0.000 OA
ATOM      5  H   UNL     1       4.198   3.487  17.081  0.00  0.00    +0.000 HD
ATOM      6  H   UNL     1       4.789   1.911  17.535  0.00  0.00    +0.000 HD
ENDBRANCH   1   2
BRANCH   1   7
ATOM      7  N   UNL     1       4.713   5.585  18.912  0.00  0.00    +0.000 NA
ATOM      8  H   UNL     1       4.646   5.554  17.890  0.00  0.00    +0.000 HD
BRANCH   7   9
ATOM      9  C   UNL     1       6.115   5.309  19.288  0.00  0.00    +0.000 C 
BRANCH   9  10
ATOM     10  C   UNL     1       7.105   5.802  18.231  0.00  0.00    +0.000 C 
BRANCH  10  11
ATOM     11  N   UNL     1       6.603   5.558  16.888  0.00  0.00    +0.000 N 
ATOM     12  C   UNL     1       6.909   4.502  16.076  0.00  0.00    +0.000 A 
ATOM     13  C   UNL     1       6.211   4.695  14.904  0.00  0.00    +0.000 A 
ATOM     14  C   UNL     1       6.193   3.845  13.693  0.00  0.00    +0.000 C 
ATOM     15  C   UNL     1       5.510   5.904  15.121  0.00  0.00    +0.000 A 
ATOM     16  N   UNL     1       5.738   6.424  16.328  0.00  0.00    +0.000 NA
ENDBRANCH  10  11
ENDBRANCH   9  10
ENDBRANCH   7   9
ENDBRANCH   1   7
BRANCH   1  17
ATOM     17  C   UNL     1       2.371   4.658  18.829  0.00  0.00    +0.000 C 
BRANCH  17  18
ATOM     18  C   UNL     1       1.280   4.124  19.761  0.00  0.00    +0.000 C 
BRANCH  18  20
ATOM     19  C   UNL     1       1.620   2.578  21.717  0.00  0.00    +0.000 C 
ATOM     20  C   UNL     1       1.815   3.987  21.187  0.00  0.00    +0.000 C 
ENDBRANCH  18  20
ENDBRANCH  17  18
ENDBRANCH   1  17
TORSDOF 8
ENDMDL
MODEL 4
REMARK VINA RESULT:      -6.1      1.498      1.562
REMARK  Name = 
REMARK  10 active torsions:
REMARK  status: ('A' for Active; 'I' for Inactive)
REMARK    1  A    between atoms: C_1  and  C_2
REMARK    2  A    between atoms: C_2  and  C_3
REMARK    3  A    between atoms: C_3  and  C_4
REMARK    4  A    between atoms: C_4  and  C_5
REMARK    5  A    between atoms: C_5  and  N_6
REMARK    6  A    between atoms: C_5  and  C_15
REMARK    7  A    between atoms: N_6  and  C_7
REMARK    8  A    between atoms: C_7  and  C_8
REMARK    9  A    between atoms: C_8  and  N_9
REMARK   10  A    between atoms: C_11  and  C_12
REMARK                            x       y       z     vdW  Elec       q    Type
REMARK                         _______ _______ _______ _____ _____    ______ ____
ROOT
ATOM      1  C   UNL     1       6.922   4.346  16.689  0.00  0.00    +0.000 C 
ENDROOT
BRANCH   1   2
ATOM      2  C   UNL     1       7.469   5.450  17.626  0.00  0.00    +0.000 C 
ATOM      3  N   UNL     1       7.567   6.698  17.080  0.00  0.00    +0.000 N 
ATOM      4  O   UNL     1       7.812   5.241  18.785  0.00  0.00    +0.000 OA
ATOM      5  H   UNL     1       7.013   6.916  16.259  0.00  0.00    +0.000 HD
ATOM      6  H   UNL     1       7.845   7.450  17.694  0.00  0.00    +0.000 HD
ENDBRANCH   1   2
BRANCH   1   7
ATOM      7  N   UNL     1       5.764   3.695  17.373  0.00  0.00    +0.000 NA
ATOM      8  H   UNL     1       5.345   3.054  16.692  0.00  0.00    +0.000 HD
BRANCH   7   9
ATOM      9  C   UNL     1       4.737   4.679  17.770  0.00  0.00    +0.000 C 
BRANCH   9  10
ATOM     10  C   UNL     1       3.350   4.316  17.234  0.00  0.00    +0.000 C 
BRANCH  10  11
ATOM     11  N   UNL     1       2.523   3.726  18.274  0.00  0.00    +0.000 N 
ATOM     12  C   UNL     1       2.812   3.647  19.607  0.00  0.00    +0.000 A 
ATOM     13  C   UNL     1       1.749   3.003  20.201  0.00  0.00    +0.000 A 
ATOM     14  C   UNL     1       1.562   2.659  21.628  0.00  0.00    +0.000 C 
ATOM     15  C   UNL     1       0.868   2.740  19.126  0.00  0.00    +0.000 A 
ATOM     16  N   UNL     1       1.331   3.187  17.958  0.00  0.00    +0.000 NA
ENDBRANCH  10  11
ENDBRANCH   9  10
ENDBRANCH   7   9
ENDBRANCH   1   7
BRANCH   1  17
ATOM     17  C   UNL     1       6.534   4.945  15.325  0.00  0.00    +0.000 C 
BRANCH  17  18
ATOM     18  C   UNL     1       5.804   3.947  14.424  0.00  0.00    +0.000 C 
BRANCH  18  20
ATOM     19  C   UNL     1       5.593   3.129  12.053  0.00  0.00    +0.000 C 
ATOM     20  C   UNL     1       6.448   3.907  13.038  0.00  0.00    +0.000 C 
ENDBRANCH  18  20
ENDBRANCH  17  18
ENDBRANCH   1  17
TORSDOF 8
ENDMDL
MODEL 5
REMARK VINA RESULT:      -6.1      2.574      6.460
REMARK  Name = 
REMARK  10 active torsions:
REMARK  status: ('A' for Active; 'I' for Inactive)
REMARK    1  A    between atoms: C_1  and  C_2
REMARK    2  A    between atoms: C_2  and  C_3
REMARK    3  A    between atoms: C_3  and  C_4
REMARK    4  A    between atoms: C_4  and  C_5
REMARK    5  A    between atoms: C_5  and  N_6
REMARK    6  A    between atoms: C_5  and  C_15
REMARK    7  A    between atoms: N_6  and  C_7
REMARK    8  A    between atoms: C_7  and  C_8
REMARK    9  A    between atoms: C_8  and  N_9
REMARK   10  A    between atoms: C_11  and  C_12
REMARK                            x       y       z     vdW  Elec       q    Type
REMARK                         _______ _______ _______ _____ _____    ______ ____
ROOT
ATOM      1  C   UNL     1       4.697   3.694  19.178  0.00  0.00    +0.000 C 
ENDROOT
BRANCH   1   2
ATOM      2  C   UNL     1       4.519   2.242  19.682  0.00  0.00    +0.000 C 
ATOM      3  N   UNL     1       3.804   1.412  18.866  0.00  0.00    +0.000 N 
ATOM      4  O   UNL     1       4.968   1.839  20.751  0.00  0.00    +0.000 OA
ATOM      5  H   UNL     1       3.710   1.656  17.886  0.00  0.00    +0.000 HD
ATOM      6  H   UNL     1       3.742   0.440  19.134  0.00  0.00    +0.000 HD
ENDBRANCH   1   2
BRANCH   1   7
ATOM      7  N   UNL     1       5.563   3.654  17.961  0.00  0.00    +0.000 NA
ATOM      8  H   UNL     1       6.483   3.322  18.268  0.00  0.00    +0.000 HD
BRANCH   7   9
ATOM      9  C   UNL     1       5.735   4.995  17.365  0.00  0.00    +0.000 C 
BRANCH   9  10
ATOM     10  C   UNL     1       7.084   5.146  16.660  0.00  0.00    +0.000 C 
BRANCH  10  11
ATOM     11  N   UNL     1       6.972   4.845  15.242  0.00  0.00    +0.000 N 
ATOM     12  C   UNL     1       6.135   3.935  14.659  0.00  0.00    +0.000 A 
ATOM     13  C   UNL     1       6.382   3.988  13.305  0.00  0.00    +0.000 A 
ATOM     14  C   UNL     1       5.749   3.201  12.223  0.00  0.00    +0.000 C 
ATOM     15  C   UNL     1       7.390   4.972  13.181  0.00  0.00    +0.000 A 
ATOM     16  N   UNL     1       7.741   5.501  14.354  0.00  0.00    +0.000 NA
ENDBRANCH  10  11
ENDBRANCH   9  10
ENDBRANCH   7   9
ENDBRANCH   1   7
BRANCH   1  17
ATOM     17  C   UNL     1       3.326   4.337  18.900  0.00  0.00    +0.000 C 
BRANCH  17  18
ATOM     18  C   UNL     1       3.004   5.487  19.857  0.00  0.00    +0.000 C 
BRANCH  18  20
ATOM     19  C   UNL     1       1.216   3.790  20.363  0.00  0.00    +0.000 C 
ATOM     20  C   UNL     1       1.704   5.206  20.611  0.00  0.00    +0.000 C 
ENDBRANCH  18  20
ENDBRANCH  17  18
ENDBRANCH   1  17
TORSDOF 8
ENDMDL
MODEL 6
REMARK VINA RESULT:      -6.0      2.465      6.067
REMARK  Name = 
REMARK  10 active torsions:
REMARK  status: ('A' for Active; 'I' for Inactive)
REMARK    1  A    between atoms: C_1  and  C_2
REMARK    2  A    between atoms: C_2  and  C_3
REMARK    3  A    between atoms: C_3  and  C_4
REMARK    4  A    between atoms: C_4  and  C_5
REMARK    5  A    between atoms: C_5  and  N_6
REMARK    6  A    between atoms: C_5  and  C_15
REMARK    7  A    between atoms: N_6  and  C_7
REMARK    8  A    between atoms: C_7  and  C_8
REMARK    9  A    between atoms: C_8  and  N_9
REMARK   10  A    between atoms: C_11  and  C_12
REMARK                            x       y       z     vdW  Elec       q    Type
REMARK                         _______ _______ _______ _____ _____    ______ ____
ROOT
ATOM      1  C   UNL     1       4.114   3.051  19.346  0.00  0.00    +0.000 C 
ENDROOT
BRANCH   1   2
ATOM      2  C   UNL     1       3.548   2.020  18.341  0.00  0.00    +0.000 C 
ATOM      3  N   UNL     1       4.079   0.764  18.413  0.00  0.00    +0.000 N 
ATOM      4  O   UNL     1       2.685   2.291  17.511  0.00  0.00    +0.000 OA
ATOM      5  H   UNL     1       4.544   0.481  19.269  0.00  0.00    +0.000 HD
ATOM      6  H   UNL     1       3.671   0.054  17.823  0.00  0.00    +0.000 HD
ENDBRANCH   1   2
BRANCH   1   7
ATOM      7  N   UNL     1       5.464   3.470  18.862  0.00  0.00    +0.000 NA
ATOM      8  H   UNL     1       6.142   2.843  19.307  0.00  0.00    +0.000 HD
BRANCH   7   9
ATOM      9  C   UNL     1       5.787   4.854  19.266  0.00  0.00    +0.000 C 
BRANCH   9  10
ATOM     10  C   UNL     1       6.782   5.518  18.311  0.00  0.00    +0.000 C 
BRANCH  10  11
ATOM     11  N   UNL     1       6.390   5.321  16.925  0.00  0.00    +0.000 N 
ATOM     12  C   UNL     1       7.044   4.573  15.986  0.00  0.00    +0.000 A 
ATOM     13  C   UNL     1       6.316   4.685  14.821  0.00  0.00    +0.000 A 
ATOM     14  C   UNL     1       6.593   4.075  13.501  0.00  0.00    +0.000 C 
ATOM     15  C   UNL     1       5.236   5.527  15.175  0.00  0.00    +0.000 A 
ATOM     16  N   UNL     1       5.274   5.905  16.454  0.00  0.00    +0.000 NA
ENDBRANCH  10  11
ENDBRANCH   9  10
ENDBRANCH   7   9
ENDBRANCH   1   7
BRANCH   1  17
ATOM     17  C   UNL     1       3.149   4.241  19.493  0.00  0.00    +0.000 C 
BRANCH  17  18
ATOM     18  C   UNL     1       2.575   4.370  20.906  0.00  0.00    +0.000 C 
BRANCH  18  20
ATOM     19  C   UNL     1       0.482   3.289  20.023  0.00  0.00    +0.000 C 
ATOM     20  C   UNL     1       1.503   3.307  21.146  0.00  0.00    +0.000 C 
ENDBRANCH  18  20
ENDBRANCH  17  18
ENDBRANCH   1  17
TORSDOF 8
ENDMDL
MODEL 7
REMARK VINA RESULT:      -6.0      2.638      5.517
REMARK  Name = 
REMARK  10 active torsions:
REMARK  status: ('A' for Active; 'I' for Inactive)
REMARK    1  A    between atoms: C_1  and  C_2
REMARK    2  A    between atoms: C_2  and  C_3
REMARK    3  A    between atoms: C_3  and  C_4
REMARK    4  A    between atoms: C_4  and  C_5
REMARK    5  A    between atoms: C_5  and  N_6
REMARK    6  A    between atoms: C_5  and  C_15
REMARK    7  A    between atoms: N_6  and  C_7
REMARK    8  A    between atoms: C_7  and  C_8
REMARK    9  A    between atoms: C_8  and  N_9
REMARK   10  A    between atoms: C_11  and  C_12
REMARK                            x       y       z     vdW  Elec       q    Type
REMARK                         _______ _______ _______ _____ _____    ______ ____
ROOT
ATOM      1  C   UNL     1       4.686   3.667  19.206  0.00  0.00    +0.000 C 
ENDROOT
BRANCH   1   2
ATOM      2  C   UNL     1       4.583   2.256  19.834  0.00  0.00    +0.000 C 
ATOM      3  N   UNL     1       4.246   1.247  18.978  0.00  0.00    +0.000 N 
ATOM      4  O   UNL     1       4.774   2.033  21.026  0.00  0.00    +0.000 OA
ATOM      5  H   UNL     1       4.392   1.383  17.983  0.00  0.00    +0.000 HD
ATOM      6  H   UNL     1       4.251   0.307  19.346  0.00  0.00    +0.000 HD
ENDBRANCH   1   2
BRANCH   1   7
ATOM      7  N   UNL     1       6.136   3.986  19.031  0.00  0.00    +0.000 NA
ATOM      8  H   UNL     1       6.625   3.571  19.830  0.00  0.00    +0.000 HD
BRANCH   7   9
ATOM      9  C   UNL     1       6.383   5.443  19.048  0.00  0.00    +0.000 C 
BRANCH   9  10
ATOM     10  C   UNL     1       7.319   5.884  17.922  0.00  0.00    +0.000 C 
BRANCH  10  11
ATOM     11  N   UNL     1       6.742   5.602  16.618  0.00  0.00    +0.000 N 
ATOM     12  C   UNL     1       7.044   4.552  15.797  0.00  0.00    +0.000 A 
ATOM     13  C   UNL     1       6.261   4.697  14.672  0.00  0.00    +0.000 A 
ATOM     14  C   UNL     1       6.204   3.833  13.472  0.00  0.00    +0.000 C 
ATOM     15  C   UNL     1       5.518   5.874  14.925  0.00  0.00    +0.000 A 
ATOM     16  N   UNL     1       5.801   6.418  16.110  0.00  0.00    +0.000 NA
ENDBRANCH  10  11
ENDBRANCH   9  10
ENDBRANCH   7   9
ENDBRANCH   1   7
BRANCH   1  17
ATOM     17  C   UNL     1       3.910   3.720  17.878  0.00  0.00    +0.000 C 
BRANCH  17  18
ATOM     18  C   UNL     1       3.052   4.979  17.741  0.00  0.00    +0.000 C 
BRANCH  18  20
ATOM     19  C   UNL     1       1.354   3.173  18.174  0.00  0.00    +0.000 C 
ATOM     20  C   UNL     1       1.592   4.669  18.073  0.00  0.00    +0.000 C 
ENDBRANCH  18  20
ENDBRANCH  17  18
ENDBRANCH   1  17
TORSDOF 8
ENDMDL
MODEL 8
REMARK VINA RESULT:      -6.0      2.617      5.615
REMARK  Name = 
REMARK  10 active torsions:
REMARK  status: ('A' for Active; 'I' for Inactive)
REMARK    1  A    between atoms: C_1  and  C_2
REMARK    2  A    between atoms: C_2  and  C_3
REMARK    3  A    between atoms: C_3  and  C_4
REMARK    4  A    between atoms: C_4  and  C_5
REMARK    5  A    between atoms: C_5  and  N_6
REMARK    6  A    between atoms: C_5  and  C_15
REMARK    7  A    between atoms: N_6  and  C_7
REMARK    8  A    between atoms: C_7  and  C_8
REMARK    9  A    between atoms: C_8  and  N_9
REMARK   10  A    between atoms: C_11  and  C_12
REMARK                            x       y       z     vdW  Elec       q    Type
REMARK                         _______ _______ _______ _____ _____    ______ ____
ROOT
ATOM      1  C   UNL     1       4.488   3.449  19.398  0.00  0.00    +0.000 C 
ENDROOT
BRANCH   1   2
ATOM      2  C   UNL     1       4.662   1.989  19.884  0.00  0.00    +0.000 C 
ATOM      3  N   UNL     1       4.361   1.019  18.972  0.00  0.00    +0.000 N 
ATOM      4  O   UNL     1       5.033   1.696  21.017  0.00  0.00    +0.000 OA
ATOM      5  H   UNL     1       4.358   1.261  17.987  0.00  0.00    +0.000 HD
ATOM      6  H   UNL     1       4.543   0.062  19.238  0.00  0.00    +0.000 HD
ENDBRANCH   1   2
BRANCH   1   7
ATOM      7  N   UNL     1       5.771   3.877  18.762  0.00  0.00    +0.000 NA
ATOM      8  H   UNL     1       6.502   3.264  19.138  0.00  0.00    +0.000 HD
BRANCH   7   9
ATOM      9  C   UNL     1       6.117   5.270  19.109  0.00  0.00    +0.000 C 
BRANCH   9  10
ATOM     10  C   UNL     1       5.996   6.212  17.909  0.00  0.00    +0.000 C 
BRANCH  10  11
ATOM     11  N   UNL     1       6.204   5.500  16.659  0.00  0.00    +0.000 N 
ATOM     12  C   UNL     1       5.271   5.246  15.693  0.00  0.00    +0.000 A 
ATOM     13  C   UNL     1       5.917   4.540  14.701  0.00  0.00    +0.000 A 
ATOM     14  C   UNL     1       5.361   4.015  13.434  0.00  0.00    +0.000 C 
ATOM     15  C   UNL     1       7.245   4.426  15.175  0.00  0.00    +0.000 A 
ATOM     16  N   UNL     1       7.423   5.017  16.357  0.00  0.00    +0.000 NA
ENDBRANCH  10  11
ENDBRANCH   9  10
ENDBRANCH   7   9
ENDBRANCH   1   7
BRANCH   1  17
ATOM     17  C   UNL     1       3.293   3.553  18.434  0.00  0.00    +0.000 C 
BRANCH  17  18
ATOM     18  C   UNL     1       2.268   4.602  18.869  0.00  0.00    +0.000 C 
BRANCH  18  20
ATOM     19  C   UNL     1       2.508   7.106  18.809  0.00  0.00    +0.000 C 
ATOM     20  C   UNL     1       2.362   5.843  17.980  0.00  0.00    +0.000 C 
ENDBRANCH  18  20
ENDBRANCH  17  18
ENDBRANCH   1  17
TORSDOF 8
ENDMDL
MODEL 9
REMARK VINA RESULT:      -6.0      2.701      5.999
REMARK  Name = 
REMARK  10 active torsions:
REMARK  status: ('A' for Active; 'I' for Inactive)
REMARK    1  A    between atoms: C_1  and  C_2
REMARK    2  A    between atoms: C_2  and  C_3
REMARK    3  A    between atoms: C_3  and  C_4
REMARK    4  A    between atoms: C_4  and  C_5
REMARK    5  A    between atoms: C_5  and  N_6
REMARK    6  A    between atoms: C_5  and  C_15
REMARK    7  A    between atoms: N_6  and  C_7
REMARK    8  A    between atoms: C_7  and  C_8
REMARK    9  A    between atoms: C_8  and  N_9
REMARK   10  A    between atoms: C_11  and  C_12
REMARK                            x       y       z     vdW  Elec       q    Type
REMARK                         _______ _______ _______ _____ _____    ______ ____
ROOT
ATOM      1  C   UNL     1       4.128   3.774  19.219  0.00  0.00    +0.000 C 
ENDROOT
BRANCH   1   2
ATOM      2  C   UNL     1       4.125   2.629  20.261  0.00  0.00    +0.000 C 
ATOM      3  N   UNL     1       5.117   1.701  20.128  0.00  0.00    +0.000 N 
ATOM      4  O   UNL     1       3.287   2.531  21.152  0.00  0.00    +0.000 OA
ATOM      5  H   UNL     1       5.951   1.950  19.606  0.00  0.00    +0.000 HD
ATOM      6  H   UNL     1       5.185   0.990  20.842  0.00  0.00    +0.000 HD
ENDBRANCH   1   2
BRANCH   1   7
ATOM      7  N   UNL     1       5.509   4.344  19.167  0.00  0.00    +0.000 NA
ATOM      8  H   UNL     1       5.409   5.359  19.263  0.00  0.00    +0.000 HD
BRANCH   7   9
ATOM      9  C   UNL     1       6.169   4.067  17.875  0.00  0.00    +0.000 C 
BRANCH   9  10
ATOM     10  C   UNL     1       6.277   5.318  17.002  0.00  0.00    +0.000 C 
BRANCH  10  11
ATOM     11  N   UNL     1       6.481   4.967  15.605  0.00  0.00    +0.000 N 
ATOM     12  C   UNL     1       5.698   4.148  14.842  0.00  0.00    +0.000 A 
ATOM     13  C   UNL     1       6.279   4.103  13.593  0.00  0.00    +0.000 A 
ATOM     14  C   UNL     1       5.833   3.355  12.397  0.00  0.00    +0.000 C 
ATOM     15  C   UNL     1       7.413   4.940  13.716  0.00  0.00    +0.000 A 
ATOM     16  N   UNL     1       7.531   5.474  14.933  0.00  0.00    +0.000 NA
ENDBRANCH  10  11
ENDBRANCH   9  10
ENDBRANCH   7   9
ENDBRANCH   1   7
BRANCH   1  17
ATOM     17  C   UNL     1       3.659   3.252  17.849  0.00  0.00    +0.000 C 
BRANCH  17  18
ATOM     18  C   UNL     1       2.346   3.888  17.388  0.00  0.00    +0.000 C 
BRANCH  18  20
ATOM     19  C   UNL     1       0.797   2.396  18.696  0.00  0.00    +0.000 C 
ATOM     20  C   UNL     1       1.298   3.816  18.500  0.00  0.00    +0.000 C 
ENDBRANCH  18  20
ENDBRANCH  17  18
ENDBRANCH   1  17
TORSDOF 8
ENDMDL
