MODEL 1
REMARK VINA RESULT:      -8.2      0.000      0.000
REMARK  Name = 
REMARK  10 active torsions:
REMARK  status: ('A' for Active; 'I' for Inactive)
REMARK    1  A    between atoms: C_1  and  C_2
REMARK    2  A    between atoms: C_5  and  C_6
REMARK    3  A    between atoms: C_7  and  N_8
REMARK    4  A    between atoms: C_9  and  C_11
REMARK    5  A    between atoms: C_11  and  S_12
REMARK    6  A    between atoms: S_12  and  C_13
REMARK    7  A    between atoms: C_16  and  C_17
REMARK    8  A    between atoms: C_17  and  N_18
REMARK    9  A    between atoms: C_17  and  C_19
REMARK   10  A    between atoms: C_19  and  C_20
REMARK                            x       y       z     vdW  Elec       q    Type
REMARK                         _______ _______ _______ _____ _____    ______ ____
ROOT
ATOM      1  C   UNL     1       4.297   3.670  18.772  0.00  0.00    +0.000 A 
ATOM      2  N   UNL     1       5.462   3.814  19.427  0.00  0.00    +0.000 NA
ATOM      3  N   UNL     1       6.239   4.558  18.658  0.00  0.00    +0.000 NA
ATOM      4  C   UNL     1       5.520   4.851  17.559  0.00  0.00    +0.000 A 
ATOM      5  O   UNL     1       4.319   4.310  17.623  0.00  0.00    +0.000 OA
ENDROOT
BRANCH   1   6
ATOM      6  S   UNL     1       2.881   2.798  19.473  0.00  0.00    +0.000 S 
BRANCH   6   7
ATOM      7  C   UNL     1       2.647   3.793  20.992  0.00  0.00    +0.000 C 
BRANCH   7   9
ATOM      8  N   UNL     1       2.501   6.257  20.601  0.00  0.00    +0.000 N 
ATOM      9  C   UNL     1       1.871   5.047  20.637  0.00  0.00    +0.000 C 
ATOM     10  O   UNL     1       0.676   4.963  20.392  0.00  0.00    +0.000 OA
ATOM     11  H   UNL     1       3.496   6.309  20.860  0.00  0.00    +0.000 HD
BRANCH   8  18
ATOM     12  C   UNL     1      -0.270  10.190  21.878  0.00  0.00    +0.000 C 
ATOM     13  C   UNL     1       0.518   9.424  20.853  0.00  0.00    +0.000 A 
ATOM     14  C   UNL     1       0.686   9.948  19.565  0.00  0.00    +0.000 A 
ATOM     15  C   UNL     1       1.431   9.252  18.615  0.00  0.00    +0.000 A 
ATOM     16  C   UNL     1       2.024   8.018  18.933  0.00  0.00    +0.000 A 
ATOM     17  C   UNL     1       2.858   7.315  17.898  0.00  0.00    +0.000 C 
ATOM     18  C   UNL     1       1.856   7.475  20.228  0.00  0.00    +0.000 A 
ATOM     19  C   UNL     1       1.105   8.188  21.181  0.00  0.00    +0.000 A 
ENDBRANCH   8  18
ENDBRANCH   7   9
ENDBRANCH   6   7
ENDBRANCH   1   6
BRANCH   4  20
ATOM     20  C   UNL     1       6.045   5.708  16.425  0.00  0.00    +0.000 C 
BRANCH  20  21
ATOM     21  N   UNL     1       6.408   7.037  16.918  0.00  0.00    +0.000 NA
ATOM     22  H   UNL     1       6.727   7.643  16.125  0.00  0.00    +0.000 HD
ATOM     23  H   UNL     1       7.182   6.956  17.617  0.00  0.00    +0.000 HD
ENDBRANCH  20  21
BRANCH  20  24
ATOM     24  C   UNL     1       7.262   5.071  15.725  0.00  0.00    +0.000 C 
BRANCH  24  25
ATOM     25  C   UNL     1       6.939   4.629  14.317  0.00  0.00    +0.000 A 
ATOM     26  C   UNL     1       5.861   3.761  14.069  0.00  0.00    +0.000 A 
ATOM     27  C   UNL     1       5.577   3.346  12.766  0.00  0.00    +0.000 A 
ATOM     28  C   UNL     1       6.362   3.791  11.699  0.00  0.00    +0.000 A 
ATOM     29  C   UNL     1       7.432   4.657  11.936  0.00  0.00    +0.000 A 
ATOM     30  C   UNL     1       7.719   5.079  13.235  0.00  0.00    +0.000 A 
ENDBRANCH  24  25
ENDBRANCH  20  24
ENDBRANCH   4  20
TORSDOF 8
ENDMDL
MODEL 2
REMARK VINA RESULT:      -7.9      2.109      8.093
REMARK  Name = 
REMARK  10 active torsions:
REMARK  status: ('A' for Active; 'I' for Inactive)
REMARK    1  A    between atoms: C_1  and  C_2
REMARK    2  A    between atoms: C_5  and  C_6
REMARK    3  A    between atoms: C_7  and  N_8
REMARK    4  A    between atoms: C_9  and  C_11
REMARK    5  A    between atoms: C_11  and  S_12
REMARK    6  A    between atoms: S_12  and  C_13
REMARK    7  A    between atoms: C_16  and  C_17
REMARK    8  A    between atoms: C_17  and  N_18
REMARK    9  A    between atoms: C_17  and  C_19
REMARK   10  A    between atoms: C_19  and  C_20
REMARK                            x       y       z     vdW  Elec       q    Type
REMARK                         _______ _______ _______ _____ _____    ______ ____
ROOT
ATOM      1  C   UNL     1       1.897   6.050  20.527  0.00  0.00    +0.000 A 
ATOM      2  N   UNL     1       2.497   6.658  19.489  0.00  0.00    +0.000 NA
ATOM      3  N   UNL     1       2.121   7.925  19.523  0.00  0.00    +0.000 NA
ATOM      4  C   UNL     1       1.307   8.053  20.588  0.00  0.00    +0.000 A 
ATOM      5  O   UNL     1       1.167   6.901  21.214  0.00  0.00    +0.000 OA
ENDROOT
BRANCH   1   6
ATOM      6  S   UNL     1       2.181   4.317  20.944  0.00  0.00    +0.000 S 
BRANCH   6   7
ATOM      7  C   UNL     1       1.800   3.559  19.322  0.00  0.00    +0.000 C 
BRANCH   7   9
ATOM      8  N   UNL     1       3.604   4.481  17.859  0.00  0.00    +0.000 N 
ATOM      9  C   UNL     1       3.090   3.415  18.538  0.00  0.00    +0.000 C 
ATOM     10  O   UNL     1       3.659   2.333  18.514  0.00  0.00    +0.000 OA
ATOM     11  H   UNL     1       3.081   5.368  17.853  0.00  0.00    +0.000 HD
BRANCH   8  18
ATOM     12  C   UNL     1       6.028   3.786  13.566  0.00  0.00    +0.000 C 
ATOM     13  C   UNL     1       6.033   4.129  15.029  0.00  0.00    +0.000 A 
ATOM     14  C   UNL     1       7.231   4.491  15.659  0.00  0.00    +0.000 A 
ATOM     15  C   UNL     1       7.240   4.829  17.011  0.00  0.00    +0.000 A 
ATOM     16  C   UNL     1       6.053   4.812  17.761  0.00  0.00    +0.000 A 
ATOM     17  C   UNL     1       6.091   5.225  19.207  0.00  0.00    +0.000 C 
ATOM     18  C   UNL     1       4.837   4.443  17.139  0.00  0.00    +0.000 A 
ATOM     19  C   UNL     1       4.838   4.108  15.773  0.00  0.00    +0.000 A 
ENDBRANCH   8  18
ENDBRANCH   7   9
ENDBRANCH   6   7
ENDBRANCH   1   6
BRANCH   4  20
ATOM     20  C   UNL     1       0.668   9.365  20.994  0.00  0.00    +0.000 C 
BRANCH  20  21
ATOM     21  N   UNL     1       1.268   9.859  22.236  0.00  0.00    +0.000 NA
ATOM     22  H   UNL     1       0.606  10.508  22.724  0.00  0.00    +0.000 HD
ATOM     23  H   UNL     1       2.152  10.374  22.021  0.00  0.00    +0.000 HD
ENDBRANCH  20  21
BRANCH  20  24
ATOM     24  C   UNL     1       0.796  10.443  19.899  0.00  0.00    +0.000 C 
BRANCH  24  25
ATOM     25  C   UNL     1      -0.479  10.598  19.105  0.00  0.00    +0.000 A 
ATOM     26  C   UNL     1      -0.680   9.865  17.922  0.00  0.00    +0.000 A 
ATOM     27  C   UNL     1      -1.855  10.024  17.186  0.00  0.00    +0.000 A 
ATOM     28  C   UNL     1      -2.843  10.913  17.621  0.00  0.00    +0.000 A 
ATOM     29  C   UNL     1      -2.654  11.642  18.798  0.00  0.00    +0.000 A 
ATOM     30  C   UNL     1      -1.482  11.485  19.541  0.00  0.00    +0.000 A 
ENDBRANCH  24  25
ENDBRANCH  20  24
ENDBRANCH   4  20
TORSDOF 8
ENDMDL
MODEL 3
REMARK VINA RESULT:      -7.7      5.276      7.262
REMARK  Name = 
REMARK  10 active torsions:
REMARK  status: ('A' for Active; 'I' for Inactive)
REMARK    1  A    between atoms: C_1  and  C_2
REMARK    2  A    between atoms: C_5  and  C_6
REMARK    3  A    between atoms: C_7  and  N_8
REMARK    4  A    between atoms: C_9  and  C_11
REMARK    5  A    between atoms: C_11  and  S_12
REMARK    6  A    between atoms: S_12  and  C_13
REMARK    7  A    between atoms: C_16  and  C_17
REMARK    8  A    between atoms: C_17  and  N_18
REMARK    9  A    between atoms: C_17  and  C_19
REMARK   10  A    between atoms: C_19  and  C_20
REMARK                            x       y       z     vdW  Elec       q    Type
REMARK                         _______ _______ _______ _____ _____    ______ ____
ROOT
ATOM      1  C   UNL     1       7.759   6.849  18.152  0.00  0.00    +0.000 A 
ATOM      2  N   UNL     1       6.964   7.398  17.217  0.00  0.00    +0.000 NA
ATOM      3  N   UNL     1       7.303   8.673  17.134  0.00  0.00    +0.000 NA
ATOM      4  C   UNL     1       8.300   8.862  18.018  0.00  0.00    +0.000 A 
ATOM      5  O   UNL     1       8.590   7.740  18.647  0.00  0.00    +0.000 OA
ENDROOT
BRANCH   1   6
ATOM      6  S   UNL     1       7.726   5.091  18.556  0.00  0.00    +0.000 S 
BRANCH   6   7
ATOM      7  C   UNL     1       6.696   4.491  17.168  0.00  0.00    +0.000 C 
BRANCH   7   9
ATOM      8  N   UNL     1       4.922   4.026  18.866  0.00  0.00    +0.000 N 
ATOM      9  C   UNL     1       5.247   4.463  17.615  0.00  0.00    +0.000 C 
ATOM     10  O   UNL     1       4.374   4.827  16.840  0.00  0.00    +0.000 OA
ATOM     11  H   UNL     1       5.670   3.678  19.482  0.00  0.00    +0.000 HD
BRANCH   8  18
ATOM     12  C   UNL     1       1.152   6.468  21.012  0.00  0.00    +0.000 C 
ATOM     13  C   UNL     1       1.724   5.215  20.411  0.00  0.00    +0.000 A 
ATOM     14  C   UNL     1       0.924   4.072  20.282  0.00  0.00    +0.000 A 
ATOM     15  C   UNL     1       1.442   2.913  19.709  0.00  0.00    +0.000 A 
ATOM     16  C   UNL     1       2.770   2.871  19.252  0.00  0.00    +0.000 A 
ATOM     17  C   UNL     1       3.284   1.618  18.598  0.00  0.00    +0.000 C 
ATOM     18  C   UNL     1       3.590   4.016  19.381  0.00  0.00    +0.000 A 
ATOM     19  C   UNL     1       3.056   5.183  19.958  0.00  0.00    +0.000 A 
ENDBRANCH   8  18
ENDBRANCH   7   9
ENDBRANCH   6   7
ENDBRANCH   1   6
BRANCH   4  20
ATOM     20  C   UNL     1       8.989  10.196  18.223  0.00  0.00    +0.000 C 
BRANCH  20  21
ATOM     21  N   UNL     1       8.144  11.285  17.730  0.00  0.00    +0.000 NA
ATOM     22  H   UNL     1       8.225  12.118  18.360  0.00  0.00    +0.000 HD
ATOM     23  H   UNL     1       7.146  10.974  17.703  0.00  0.00    +0.000 HD
ENDBRANCH  20  21
BRANCH  20  24
ATOM     24  C   UNL     1       9.343  10.451  19.702  0.00  0.00    +0.000 C 
BRANCH  24  25
ATOM     25  C   UNL     1      10.205  11.679  19.874  0.00  0.00    +0.000 A 
ATOM     26  C   UNL     1       9.740  12.782  20.611  0.00  0.00    +0.000 A 
ATOM     27  C   UNL     1      10.536  13.920  20.754  0.00  0.00    +0.000 A 
ATOM     28  C   UNL     1      11.803  13.970  20.166  0.00  0.00    +0.000 A 
ATOM     29  C   UNL     1      12.275  12.877  19.436  0.00  0.00    +0.000 A 
ATOM     30  C   UNL     1      11.485  11.735  19.292  0.00  0.00    +0.000 A 
ENDBRANCH  24  25
ENDBRANCH  20  24
ENDBRANCH   4  20
TORSDOF 8
ENDMDL
MODEL 4
REMARK VINA RESULT:      -7.5      1.379      1.516
REMARK  Name = 
REMARK  10 active torsions:
REMARK  status: ('A' for Active; 'I' for Inactive)
REMARK    1  A    between atoms: C_1  and  C_2
REMARK    2  A    between atoms: C_5  and  C_6
REMARK    3  A    between atoms: C_7  and  N_8
REMARK    4  A    between atoms: C_9  and  C_11
REMARK    5  A    between atoms: C_11  and  S_12
REMARK    6  A    between atoms: S_12  and  C_13
REMARK    7  A    between atoms: C_16  and  C_17
REMARK    8  A    between atoms: C_17  and  N_18
REMARK    9  A    between atoms: C_17  and  C_19
REMARK   10  A    between atoms: C_19  and  C_20
REMARK                            x       y       z     vdW  Elec       q    Type
REMARK                         _______ _______ _______ _____ _____    ______ ____
ROOT
ATOM      1  C   UNL     1       2.623   3.176  18.629  0.00  0.00    +0.000 A 
ATOM      2  N   UNL     1       1.918   3.059  17.491  0.00  0.00    +0.000 NA
ATOM      3  N   UNL     1       2.666   3.567  16.527  0.00  0.00    +0.000 NA
ATOM      4  C   UNL     1       3.810   3.974  17.108  0.00  0.00    +0.000 A 
ATOM      5  O   UNL     1       3.793   3.733  18.404  0.00  0.00    +0.000 OA
ENDROOT
BRANCH   1   6
ATOM      6  S   UNL     1       2.041   2.534  20.212  0.00  0.00    +0.000 S 
BRANCH   6   7
ATOM      7  C   UNL     1       2.504   3.942  21.287  0.00  0.00    +0.000 C 
BRANCH   7   9
ATOM      8  N   UNL     1       2.358   6.394  20.825  0.00  0.00    +0.000 N 
ATOM      9  C   UNL     1       1.748   5.173  20.827  0.00  0.00    +0.000 C 
ATOM     10  O   UNL     1       0.584   5.063  20.468  0.00  0.00    +0.000 OA
ATOM     11  H   UNL     1       3.323   6.469  21.180  0.00  0.00    +0.000 HD
BRANCH   8  18
ATOM     12  C   UNL     1      -0.437  10.401  21.779  0.00  0.00    +0.000 C 
ATOM     13  C   UNL     1       0.385   9.576  20.828  0.00  0.00    +0.000 A 
ATOM     14  C   UNL     1       0.604  10.027  19.520  0.00  0.00    +0.000 A 
ATOM     15  C   UNL     1       1.379   9.277  18.639  0.00  0.00    +0.000 A 
ATOM     16  C   UNL     1       1.953   8.061  19.046  0.00  0.00    +0.000 A 
ATOM     17  C   UNL     1       2.821   7.299  18.083  0.00  0.00    +0.000 C 
ATOM     18  C   UNL     1       1.735   7.591  20.362  0.00  0.00    +0.000 A 
ATOM     19  C   UNL     1       0.953   8.359  21.245  0.00  0.00    +0.000 A 
ENDBRANCH   8  18
ENDBRANCH   7   9
ENDBRANCH   6   7
ENDBRANCH   1   6
BRANCH   4  20
ATOM     20  C   UNL     1       4.954   4.605  16.340  0.00  0.00    +0.000 C 
BRANCH  20  21
ATOM     21  N   UNL     1       5.711   5.509  17.208  0.00  0.00    +0.000 NA
ATOM     22  H   UNL     1       6.663   5.116  17.397  0.00  0.00    +0.000 HD
ATOM     23  H   UNL     1       5.207   5.632  18.116  0.00  0.00    +0.000 HD
ENDBRANCH  20  21
BRANCH  20  24
ATOM     24  C   UNL     1       5.908   3.552  15.740  0.00  0.00    +0.000 C 
BRANCH  24  25
ATOM     25  C   UNL     1       6.387   3.942  14.362  0.00  0.00    +0.000 A 
ATOM     26  C   UNL     1       5.866   3.311  13.218  0.00  0.00    +0.000 A 
ATOM     27  C   UNL     1       6.324   3.667  11.948  0.00  0.00    +0.000 A 
ATOM     28  C   UNL     1       7.303   4.654  11.804  0.00  0.00    +0.000 A 
ATOM     29  C   UNL     1       7.822   5.290  12.934  0.00  0.00    +0.000 A 
ATOM     30  C   UNL     1       7.366   4.941  14.207  0.00  0.00    +0.000 A 
ENDBRANCH  24  25
ENDBRANCH  20  24
ENDBRANCH   4  20
TORSDOF 8
ENDMDL
MODEL 5
REMARK VINA RESULT:      -7.4      4.368      7.013
REMARK  Name = 
REMARK  10 active torsions:
REMARK  status: ('A' for Active; 'I' for Inactive)
REMARK    1  A    between atoms: C_1  and  C_2
REMARK    2  A    between atoms: C_5  and  C_6
REMARK    3  A    between atoms: C_7  and  N_8
REMARK    4  A    between atoms: C_9  and  C_11
REMARK    5  A    between atoms: C_11  and  S_12
REMARK    6  A    between atoms: S_12  and  C_13
REMARK    7  A    between atoms: C_16  and  C_17
REMARK    8  A    between atoms: C_17  and  N_18
REMARK    9  A    between atoms: C_17  and  C_19
REMARK   10  A    between atoms: C_19  and  C_20
REMARK                            x       y       z     vdW  Elec       q    Type
REMARK                         _______ _______ _______ _____ _____    ______ ____
ROOT
ATOM      1  C   UNL     1       1.298   9.528  19.624  0.00  0.00    +0.000 A 
ATOM      2  N   UNL     1       1.396  10.044  18.387  0.00  0.00    +0.000 NA
ATOM      3  N   UNL     1       2.025   9.145  17.650  0.00  0.00    +0.000 NA
ATOM      4  C   UNL     1       2.287   8.103  18.461  0.00  0.00    +0.000 A 
ATOM      5  O   UNL     1       1.838   8.330  19.680  0.00  0.00    +0.000 OA
ENDROOT
BRANCH   1   6
ATOM      6  S   UNL     1       0.430  10.363  20.968  0.00  0.00    +0.000 S 
BRANCH   6   7
ATOM      7  C   UNL     1       0.452  12.072  20.313  0.00  0.00    +0.000 C 
BRANCH   7   9
ATOM      8  N   UNL     1      -1.563  11.236  19.092  0.00  0.00    +0.000 N 
ATOM      9  C   UNL     1      -0.591  12.187  19.218  0.00  0.00    +0.000 C 
ATOM     10  O   UNL     1      -0.548  13.133  18.446  0.00  0.00    +0.000 OA
ATOM     11  H   UNL     1      -1.549  10.423  19.724  0.00  0.00    +0.000 HD
BRANCH   8  18
ATOM     12  C   UNL     1      -3.235  10.130  14.536  0.00  0.00    +0.000 C 
ATOM     13  C   UNL     1      -3.449  10.733  15.896  0.00  0.00    +0.000 A 
ATOM     14  C   UNL     1      -4.696  11.274  16.234  0.00  0.00    +0.000 A 
ATOM     15  C   UNL     1      -4.906  11.818  17.499  0.00  0.00    +0.000 A 
ATOM     16  C   UNL     1      -3.875  11.833  18.453  0.00  0.00    +0.000 A 
ATOM     17  C   UNL     1      -4.150  12.388  19.824  0.00  0.00    +0.000 C 
ATOM     18  C   UNL     1      -2.609  11.296  18.123  0.00  0.00    +0.000 A 
ATOM     19  C   UNL     1      -2.409  10.745  16.844  0.00  0.00    +0.000 A 
ENDBRANCH   8  18
ENDBRANCH   7   9
ENDBRANCH   6   7
ENDBRANCH   1   6
BRANCH   4  20
ATOM     20  C   UNL     1       2.990   6.843  17.997  0.00  0.00    +0.000 C 
BRANCH  20  21
ATOM     21  N   UNL     1       4.224   7.182  17.286  0.00  0.00    +0.000 NA
ATOM     22  H   UNL     1       4.034   7.913  16.560  0.00  0.00    +0.000 HD
ATOM     23  H   UNL     1       4.608   6.330  16.817  0.00  0.00    +0.000 HD
ENDBRANCH  20  21
BRANCH  20  24
ATOM     24  C   UNL     1       3.316   5.890  19.165  0.00  0.00    +0.000 C 
BRANCH  24  25
ATOM     25  C   UNL     1       2.500   4.621  19.104  0.00  0.00    +0.000 A 
ATOM     26  C   UNL     1       1.535   4.342  20.088  0.00  0.00    +0.000 A 
ATOM     27  C   UNL     1       0.795   3.160  20.033  0.00  0.00    +0.000 A 
ATOM     28  C   UNL     1       1.007   2.244  18.999  0.00  0.00    +0.000 A 
ATOM     29  C   UNL     1       1.961   2.514  18.015  0.00  0.00    +0.000 A 
ATOM     30  C   UNL     1       2.703   3.697  18.062  0.00  0.00    +0.000 A 
ENDBRANCH  24  25
ENDBRANCH  20  24
ENDBRANCH   4  20
TORSDOF 8
ENDMDL
MODEL 6
REMARK VINA RESULT:      -7.4      1.907      8.928
REMARK  Name = 
REMARK  10 active torsions:
REMARK  status: ('A' for Active; 'I' for Inactive)
REMARK    1  A    between atoms: C_1  and  C_2
REMARK    2  A    between atoms: C_5  and  C_6
REMARK    3  A    between atoms: C_7  and  N_8
REMARK    4  A    between atoms: C_9  and  C_11
REMARK    5  A    between atoms: C_11  and  S_12
REMARK    6  A    between atoms: S_12  and  C_13
REMARK    7  A    between atoms: C_16  and  C_17
REMARK    8  A    between atoms: C_17  and  N_18
REMARK    9  A    between atoms: C_17  and  C_19
REMARK   10  A    between atoms: C_19  and  C_20
REMARK                            x       y       z     vdW  Elec       q    Type
REMARK                         _______ _______ _______ _____ _____    ______ ____
ROOT
ATOM      1  C   UNL     1       1.737   5.600  20.436  0.00  0.00    +0.000 A 
ATOM      2  N   UNL     1       2.445   6.346  19.570  0.00  0.00    +0.000 NA
ATOM      3  N   UNL     1       2.244   7.609  19.905  0.00  0.00    +0.000 NA
ATOM      4  C   UNL     1       1.423   7.594  20.972  0.00  0.00    +0.000 A 
ATOM      5  O   UNL     1       1.109   6.358  21.308  0.00  0.00    +0.000 OA
ENDROOT
BRANCH   1   6
ATOM      6  S   UNL     1       1.770   3.796  20.429  0.00  0.00    +0.000 S 
BRANCH   6   7
ATOM      7  C   UNL     1       1.488   3.504  18.645  0.00  0.00    +0.000 C 
BRANCH   7   9
ATOM      8  N   UNL     1       3.508   4.475  17.539  0.00  0.00    +0.000 N 
ATOM      9  C   UNL     1       2.832   3.365  17.956  0.00  0.00    +0.000 C 
ATOM     10  O   UNL     1       3.299   2.250  17.772  0.00  0.00    +0.000 OA
ATOM     11  H   UNL     1       3.072   5.400  17.661  0.00  0.00    +0.000 HD
BRANCH   8  18
ATOM     12  C   UNL     1       6.283   3.964  13.438  0.00  0.00    +0.000 C 
ATOM     13  C   UNL     1       6.169   4.211  14.916  0.00  0.00    +0.000 A 
ATOM     14  C   UNL     1       7.316   4.483  15.672  0.00  0.00    +0.000 A 
ATOM     15  C   UNL     1       7.215   4.731  17.039  0.00  0.00    +0.000 A 
ATOM     16  C   UNL     1       5.965   4.713  17.680  0.00  0.00    +0.000 A 
ATOM     17  C   UNL     1       5.887   5.029  19.148  0.00  0.00    +0.000 C 
ATOM     18  C   UNL     1       4.799   4.434  16.930  0.00  0.00    +0.000 A 
ATOM     19  C   UNL     1       4.912   4.189  15.549  0.00  0.00    +0.000 A 
ENDBRANCH   8  18
ENDBRANCH   7   9
ENDBRANCH   6   7
ENDBRANCH   1   6
BRANCH   4  20
ATOM     20  C   UNL     1       0.956   8.850  21.680  0.00  0.00    +0.000 C 
BRANCH  20  21
ATOM     21  N   UNL     1       2.008   9.354  22.565  0.00  0.00    +0.000 NA
ATOM     22  H   UNL     1       1.735   9.213  23.567  0.00  0.00    +0.000 HD
ATOM     23  H   UNL     1       2.155  10.375  22.394  0.00  0.00    +0.000 HD
ENDBRANCH  20  21
BRANCH  20  24
ATOM     24  C   UNL     1       0.541   9.959  20.693  0.00  0.00    +0.000 C 
BRANCH  24  25
ATOM     25  C   UNL     1       0.008  11.180  21.404  0.00  0.00    +0.000 A 
ATOM     26  C   UNL     1       0.522  12.457  21.118  0.00  0.00    +0.000 A 
ATOM     27  C   UNL     1       0.035  13.579  21.790  0.00  0.00    +0.000 A 
ATOM     28  C   UNL     1      -0.969  13.442  22.752  0.00  0.00    +0.000 A 
ATOM     29  C   UNL     1      -1.489  12.178  23.041  0.00  0.00    +0.000 A 
ATOM     30  C   UNL     1      -1.008  11.051  22.369  0.00  0.00    +0.000 A 
ENDBRANCH  24  25
ENDBRANCH  20  24
ENDBRANCH   4  20
TORSDOF 8
ENDMDL
MODEL 7
REMARK VINA RESULT:      -7.4      5.350      7.913
REMARK  Name = 
REMARK  10 active torsions:
REMARK  status: ('A' for Active; 'I' for Inactive)
REMARK    1  A    between atoms: C_1  and  C_2
REMARK    2  A    between atoms: C_5  and  C_6
REMARK    3  A    between atoms: C_7  and  N_8
REMARK    4  A    between atoms: C_9  and  C_11
REMARK    5  A    between atoms: C_11  and  S_12
REMARK    6  A    between atoms: S_12  and  C_13
REMARK    7  A    between atoms: C_16  and  C_17
REMARK    8  A    between atoms: C_17  and  N_18
REMARK    9  A    between atoms: C_17  and  C_19
REMARK   10  A    between atoms: C_19  and  C_20
REMARK                            x       y       z     vdW  Elec       q    Type
REMARK                         _______ _______ _______ _____ _____    ______ ____
ROOT
ATOM      1  C   UNL     1       6.454   5.783  17.546  0.00  0.00    +0.000 A 
ATOM      2  N   UNL     1       6.711   5.175  18.718  0.00  0.00    +0.000 NA
ATOM      3  N   UNL     1       5.908   4.127  18.785  0.00  0.00    +0.000 NA
ATOM      4  C   UNL     1       5.188   4.124  17.647  0.00  0.00    +0.000 A 
ATOM      5  O   UNL     1       5.522   5.140  16.876  0.00  0.00    +0.000 OA
ENDROOT
BRANCH   1   6
ATOM      6  S   UNL     1       7.374   7.223  16.967  0.00  0.00    +0.000 S 
BRANCH   6   7
ATOM      7  C   UNL     1       8.160   7.722  18.542  0.00  0.00    +0.000 C 
BRANCH   7   9
ATOM      8  N   UNL     1       9.489   9.714  19.256  0.00  0.00    +0.000 N 
ATOM      9  C   UNL     1       8.500   9.198  18.470  0.00  0.00    +0.000 C 
ATOM     10  O   UNL     1       7.875   9.920  17.708  0.00  0.00    +0.000 OA
ATOM     11  H   UNL     1       9.967   9.095  19.927  0.00  0.00    +0.000 HD
BRANCH   8  18
ATOM     12  C   UNL     1      11.574  13.468  16.738  0.00  0.00    +0.000 C 
ATOM     13  C   UNL     1      10.903  12.936  17.974  0.00  0.00    +0.000 A 
ATOM     14  C   UNL     1      10.615  13.797  19.040  0.00  0.00    +0.000 A 
ATOM     15  C   UNL     1       9.976  13.315  20.180  0.00  0.00    +0.000 A 
ATOM     16  C   UNL     1       9.613  11.962  20.280  0.00  0.00    +0.000 A 
ATOM     17  C   UNL     1       8.886  11.483  21.506  0.00  0.00    +0.000 C 
ATOM     18  C   UNL     1       9.905  11.080  19.213  0.00  0.00    +0.000 A 
ATOM     19  C   UNL     1      10.546  11.578  18.064  0.00  0.00    +0.000 A 
ENDBRANCH   8  18
ENDBRANCH   7   9
ENDBRANCH   6   7
ENDBRANCH   1   6
BRANCH   4  20
ATOM     20  C   UNL     1       4.154   3.066  17.320  0.00  0.00    +0.000 C 
BRANCH  20  21
ATOM     21  N   UNL     1       4.155   2.020  18.344  0.00  0.00    +0.000 NA
ATOM     22  H   UNL     1       4.908   1.319  18.144  0.00  0.00    +0.000 HD
ATOM     23  H   UNL     1       3.230   1.533  18.353  0.00  0.00    +0.000 HD
ENDBRANCH  20  21
BRANCH  20  24
ATOM     24  C   UNL     1       2.735   3.656  17.191  0.00  0.00    +0.000 C 
BRANCH  24  25
ATOM     25  C   UNL     1       2.278   4.318  18.469  0.00  0.00    +0.000 A 
ATOM     26  C   UNL     1       2.673   5.633  18.775  0.00  0.00    +0.000 A 
ATOM     27  C   UNL     1       2.259   6.233  19.966  0.00  0.00    +0.000 A 
ATOM     28  C   UNL     1       1.447   5.532  20.862  0.00  0.00    +0.000 A 
ATOM     29  C   UNL     1       1.046   4.227  20.564  0.00  0.00    +0.000 A 
ATOM     30  C   UNL     1       1.454   3.622  19.374  0.00  0.00    +0.000 A 
ENDBRANCH  24  25
ENDBRANCH  20  24
ENDBRANCH   4  20
TORSDOF 8
ENDMDL
MODEL 8
REMARK VINA RESULT:      -7.3      6.020      8.189
REMARK  Name = 
REMARK  10 active torsions:
REMARK  status: ('A' for Active; 'I' for Inactive)
REMARK    1  A    between atoms: C_1  and  C_2
REMARK    2  A    between atoms: C_5  and  C_6
REMARK    3  A    between atoms: C_7  and  N_8
REMARK    4  A    between atoms: C_9  and  C_11
REMARK    5  A    between atoms: C_11  and  S_12
REMARK    6  A    between atoms: S_12  and  C_13
REMARK    7  A    between atoms: C_16  and  C_17
REMARK    8  A    between atoms: C_17  and  N_18
REMARK    9  A    between atoms: C_17  and  C_19
REMARK   10  A    between atoms: C_19  and  C_20
REMARK                            x       y       z     vdW  Elec       q    Type
REMARK                         _______ _______ _______ _____ _____    ______ ____
ROOT
ATOM      1  C   UNL     1       7.457   7.278  18.032  0.00  0.00    +0.000 A 
ATOM      2  N   UNL     1       8.092   6.462  18.892  0.00  0.00    +0.000 NA
ATOM      3  N   UNL     1       7.383   5.349  18.952  0.00  0.00    +0.000 NA
ATOM      4  C   UNL     1       6.337   5.517  18.122  0.00  0.00    +0.000 A 
ATOM      5  O   UNL     1       6.378   6.703  17.547  0.00  0.00    +0.000 OA
ENDROOT
BRANCH   1   6
ATOM      6  S   UNL     1       8.104   8.893  17.555  0.00  0.00    +0.000 S 
BRANCH   6   7
ATOM      7  C   UNL     1       8.962   9.336  19.110  0.00  0.00    +0.000 C 
BRANCH   7   9
ATOM      8  N   UNL     1       9.084  11.547  17.951  0.00  0.00    +0.000 N 
ATOM      9  C   UNL     1       9.260  10.823  19.094  0.00  0.00    +0.000 C 
ATOM     10  O   UNL     1       9.669  11.363  20.112  0.00  0.00    +0.000 OA
ATOM     11  H   UNL     1       8.787  11.060  17.093  0.00  0.00    +0.000 HD
BRANCH   8  18
ATOM     12  C   UNL     1       7.293  16.169  18.412  0.00  0.00    +0.000 C 
ATOM     13  C   UNL     1       8.429  15.231  18.115  0.00  0.00    +0.000 A 
ATOM     14  C   UNL     1       9.704  15.741  17.839  0.00  0.00    +0.000 A 
ATOM     15  C   UNL     1      10.766  14.877  17.582  0.00  0.00    +0.000 A 
ATOM     16  C   UNL     1      10.577  13.485  17.594  0.00  0.00    +0.000 A 
ATOM     17  C   UNL     1      11.754  12.581  17.356  0.00  0.00    +0.000 C 
ATOM     18  C   UNL     1       9.293  12.957  17.865  0.00  0.00    +0.000 A 
ATOM     19  C   UNL     1       8.228  13.838  18.128  0.00  0.00    +0.000 A 
ENDBRANCH   8  18
ENDBRANCH   7   9
ENDBRANCH   6   7
ENDBRANCH   1   6
BRANCH   4  20
ATOM     20  C   UNL     1       5.281   4.456  17.887  0.00  0.00    +0.000 C 
BRANCH  20  21
ATOM     21  N   UNL     1       5.689   3.564  16.800  0.00  0.00    +0.000 NA
ATOM     22  H   UNL     1       6.047   2.660  17.189  0.00  0.00    +0.000 HD
ATOM     23  H   UNL     1       6.448   4.015  16.239  0.00  0.00    +0.000 HD
ENDBRANCH  20  21
BRANCH  20  24
ATOM     24  C   UNL     1       4.996   3.623  19.154  0.00  0.00    +0.000 C 
BRANCH  24  25
ATOM     25  C   UNL     1       3.569   3.778  19.623  0.00  0.00    +0.000 A 
ATOM     26  C   UNL     1       3.061   5.043  19.966  0.00  0.00    +0.000 A 
ATOM     27  C   UNL     1       1.746   5.177  20.414  0.00  0.00    +0.000 A 
ATOM     28  C   UNL     1       0.922   4.052  20.523  0.00  0.00    +0.000 A 
ATOM     29  C   UNL     1       1.417   2.791  20.180  0.00  0.00    +0.000 A 
ATOM     30  C   UNL     1       2.731   2.652  19.728  0.00  0.00    +0.000 A 
ENDBRANCH  24  25
ENDBRANCH  20  24
ENDBRANCH   4  20
TORSDOF 8
ENDMDL
MODEL 9
REMARK VINA RESULT:      -7.3      4.965      7.612
REMARK  Name = 
REMARK  10 active torsions:
REMARK  status: ('A' for Active; 'I' for Inactive)
REMARK    1  A    between atoms: C_1  and  C_2
REMARK    2  A    between atoms: C_5  and  C_6
REMARK    3  A    between atoms: C_7  and  N_8
REMARK    4  A    between atoms: C_9  and  C_11
REMARK    5  A    between atoms: C_11  and  S_12
REMARK    6  A    between atoms: S_12  and  C_13
REMARK    7  A    between atoms: C_16  and  C_17
REMARK    8  A    between atoms: C_17  and  N_18
REMARK    9  A    between atoms: C_17  and  C_19
REMARK   10  A    between atoms: C_19  and  C_20
REMARK                            x       y       z     vdW  Elec       q    Type
REMARK                         _______ _______ _______ _____ _____    ______ ____
ROOT
ATOM      1  C   UNL     1       0.230  10.161  21.790  0.00  0.00    +0.000 A 
ATOM      2  N   UNL     1       1.107   9.503  22.568  0.00  0.00    +0.000 NA
ATOM      3  N   UNL     1       1.716   8.623  21.792  0.00  0.00    +0.000 NA
ATOM      4  C   UNL     1       1.195   8.776  20.560  0.00  0.00    +0.000 A 
ATOM      5  O   UNL     1       0.280   9.725  20.550  0.00  0.00    +0.000 OA
ENDROOT
BRANCH   1   6
ATOM      6  S   UNL     1      -0.779  11.531  22.392  0.00  0.00    +0.000 S 
BRANCH   6   7
ATOM      7  C   UNL     1      -0.230  12.833  21.229  0.00  0.00    +0.000 C 
BRANCH   7   9
ATOM      8  N   UNL     1      -2.058  11.809  19.866  0.00  0.00    +0.000 N 
ATOM      9  C   UNL     1      -1.087  12.761  19.980  0.00  0.00    +0.000 C 
ATOM     10  O   UNL     1      -0.893  13.559  19.074  0.00  0.00    +0.000 OA
ATOM     11  H   UNL     1      -2.168  11.117  20.620  0.00  0.00    +0.000 HD
BRANCH   8  18
ATOM     12  C   UNL     1      -2.824  10.439  15.142  0.00  0.00    +0.000 C 
ATOM     13  C   UNL     1      -3.332  11.011  16.435  0.00  0.00    +0.000 A 
ATOM     14  C   UNL     1      -4.682  11.360  16.564  0.00  0.00    +0.000 A 
ATOM     15  C   UNL     1      -5.164  11.873  17.767  0.00  0.00    +0.000 A 
ATOM     16  C   UNL     1      -4.306  12.048  18.866  0.00  0.00    +0.000 A 
ATOM     17  C   UNL     1      -4.868  12.563  20.162  0.00  0.00    +0.000 C 
ATOM     18  C   UNL     1      -2.939  11.705  18.747  0.00  0.00    +0.000 A 
ATOM     19  C   UNL     1      -2.464  11.184  17.529  0.00  0.00    +0.000 A 
ENDBRANCH   8  18
ENDBRANCH   7   9
ENDBRANCH   6   7
ENDBRANCH   1   6
BRANCH   4  20
ATOM     20  C   UNL     1       1.638   7.960  19.363  0.00  0.00    +0.000 C 
BRANCH  20  21
ATOM     21  N   UNL     1       2.257   8.827  18.358  0.00  0.00    +0.000 NA
ATOM     22  H   UNL     1       2.609   8.255  17.555  0.00  0.00    +0.000 HD
ATOM     23  H   UNL     1       3.060   9.344  18.784  0.00  0.00    +0.000 HD
ENDBRANCH  20  21
BRANCH  20  24
ATOM     24  C   UNL     1       2.624   6.839  19.750  0.00  0.00    +0.000 C 
BRANCH  24  25
ATOM     25  C   UNL     1       2.052   5.467  19.486  0.00  0.00    +0.000 A 
ATOM     26  C   UNL     1       1.534   4.691  20.539  0.00  0.00    +0.000 A 
ATOM     27  C   UNL     1       1.021   3.417  20.289  0.00  0.00    +0.000 A 
ATOM     28  C   UNL     1       1.015   2.903  18.989  0.00  0.00    +0.000 A 
ATOM     29  C   UNL     1       1.523   3.668  17.936  0.00  0.00    +0.000 A 
ATOM     30  C   UNL     1       2.035   4.944  18.179  0.00  0.00    +0.000 A 
ENDBRANCH  24  25
ENDBRANCH  20  24
ENDBRANCH   4  20
TORSDOF 8
ENDMDL
