MODEL 1
REMARK VINA RESULT:      -6.4      0.000      0.000
REMARK  Name = 
REMARK  7 active torsions:
REMARK  status: ('A' for Active; 'I' for Inactive)
REMARK    1  A    between atoms: C_1  and  O_2
REMARK    2  A    between atoms: O_2  and  C_3
REMARK    3  A    between atoms: C_6  and  N_7
REMARK    4  A    between atoms: C_8  and  S_9
REMARK    5  A    between atoms: N_10  and  C_11
REMARK    6  A    between atoms: C_17  and  O_18
REMARK    7  A    between atoms: O_18  and  C_19
REMARK                            x       y       z     vdW  Elec       q    Type
REMARK                         _______ _______ _______ _____ _____    ______ ____
ROOT
ATOM      1  N   UNL     1       4.076   5.142  18.081  0.00  0.00    +0.000 NA
ATOM      2  C   UNL     1       3.233   6.057  18.442  0.00  0.00    +0.000 C 
ATOM      3  N   UNL     1       2.352   5.905  19.485  0.00  0.00    +0.000 N 
ATOM      4  H   UNL     1       1.881   6.743  19.799  0.00  0.00    +0.000 HD
ENDROOT
BRANCH   1   8
ATOM      5  C   UNL     1       6.984   5.317  15.023  0.00  0.00    +0.000 A 
ATOM      6  C   UNL     1       5.722   4.790  14.776  0.00  0.00    +0.000 A 
ATOM      7  C   UNL     1       4.770   4.726  15.792  0.00  0.00    +0.000 A 
ATOM      8  C   UNL     1       5.037   5.243  17.061  0.00  0.00    +0.000 A 
ATOM      9  C   UNL     1       6.343   5.713  17.335  0.00  0.00    +0.000 A 
ATOM     10  C   UNL     1       7.303   5.757  16.309  0.00  0.00    +0.000 A 
BRANCH   5  12
ATOM     11  C   UNL     1       7.369   4.640  12.774  0.00  0.00    +0.000 C 
ATOM     12  O   UNL     1       7.826   5.315  13.943  0.00  0.00    +0.000 OA
ENDBRANCH   5  12
BRANCH   9  13
ATOM     13  O   UNL     1       6.610   6.127  18.622  0.00  0.00    +0.000 OA
ATOM     14  C   UNL     1       7.857   5.707  19.168  0.00  0.00    +0.000 C 
ENDBRANCH   9  13
ENDBRANCH   1   8
BRANCH   3  15
ATOM     15  C   UNL     1       2.046   4.719  20.166  0.00  0.00    +0.000 A 
ATOM     16  C   UNL     1       1.120   3.828  19.621  0.00  0.00    +0.000 A 
ATOM     17  C   UNL     1       0.744   2.685  20.327  0.00  0.00    +0.000 A 
ATOM     18  C   UNL     1       1.317   2.457  21.568  0.00  0.00    +0.000 A 
ATOM     19  N   UNL     1       2.217   3.284  22.134  0.00  0.00    +0.000 NA
ATOM     20  C   UNL     1       2.541   4.398  21.431  0.00  0.00    +0.000 A 
ENDBRANCH   3  15
BRANCH   2  21
ATOM     21  S   UNL     1       3.055   7.660  17.729  0.00  0.00    +0.000 S 
ATOM     22  H   UNL     1       3.330   8.387  18.813  0.00  0.00    +0.000 HD
ENDBRANCH   2  21
TORSDOF 5
ENDMDL
MODEL 2
REMARK VINA RESULT:      -6.3      3.039      6.939
REMARK  Name = 
REMARK  7 active torsions:
REMARK  status: ('A' for Active; 'I' for Inactive)
REMARK    1  A    between atoms: C_1  and  O_2
REMARK    2  A    between atoms: O_2  and  C_3
REMARK    3  A    between atoms: C_6  and  N_7
REMARK    4  A    between atoms: C_8  and  S_9
REMARK    5  A    between atoms: N_10  and  C_11
REMARK    6  A    between atoms: C_17  and  O_18
REMARK    7  A    between atoms: O_18  and  C_19
REMARK                            x       y       z     vdW  Elec       q    Type
REMARK                         _______ _______ _______ _____ _____    ______ ____
ROOT
ATOM      1  N   UNL     1       5.195   5.585  16.603  0.00  0.00    +0.000 NA
ATOM      2  C   UNL     1       6.468   5.827  16.653  0.00  0.00    +0.000 C 
ATOM      3  N   UNL     1       7.322   5.604  15.601  0.00  0.00    +0.000 N 
ATOM      4  H   UNL     1       8.247   6.005  15.684  0.00  0.00    +0.000 HD
ENDROOT
BRANCH   1   8
ATOM      5  C   UNL     1       2.452   6.415  19.704  0.00  0.00    +0.000 A 
ATOM      6  C   UNL     1       2.693   7.344  18.700  0.00  0.00    +0.000 A 
ATOM      7  C   UNL     1       3.607   7.068  17.685  0.00  0.00    +0.000 A 
ATOM      8  C   UNL     1       4.254   5.833  17.616  0.00  0.00    +0.000 A 
ATOM      9  C   UNL     1       4.066   4.915  18.676  0.00  0.00    +0.000 A 
ATOM     10  C   UNL     1       3.156   5.209  19.706  0.00  0.00    +0.000 A 
BRANCH   5  12
ATOM     11  C   UNL     1       1.378   8.216  20.830  0.00  0.00    +0.000 C 
ATOM     12  O   UNL     1       1.538   6.811  20.644  0.00  0.00    +0.000 OA
ENDBRANCH   5  12
BRANCH   9  13
ATOM     13  O   UNL     1       4.791   3.744  18.636  0.00  0.00    +0.000 OA
ATOM     14  C   UNL     1       4.457   2.767  19.618  0.00  0.00    +0.000 C 
ENDBRANCH   9  13
ENDBRANCH   1   8
BRANCH   3  15
ATOM     15  C   UNL     1       7.047   4.892  14.426  0.00  0.00    +0.000 A 
ATOM     16  C   UNL     1       7.711   5.225  13.245  0.00  0.00    +0.000 A 
ATOM     17  C   UNL     1       7.386   4.582  12.050  0.00  0.00    +0.000 A 
ATOM     18  C   UNL     1       6.403   3.607  12.072  0.00  0.00    +0.000 A 
ATOM     19  N   UNL     1       5.737   3.247  13.186  0.00  0.00    +0.000 NA
ATOM     20  C   UNL     1       6.061   3.910  14.324  0.00  0.00    +0.000 A 
ENDBRANCH   3  15
BRANCH   2  21
ATOM     21  S   UNL     1       7.352   6.508  18.018  0.00  0.00    +0.000 S 
ATOM     22  H   UNL     1       8.437   5.735  17.953  0.00  0.00    +0.000 HD
ENDBRANCH   2  21
TORSDOF 5
ENDMDL
MODEL 3
REMARK VINA RESULT:      -6.3      2.817      7.013
REMARK  Name = 
REMARK  7 active torsions:
REMARK  status: ('A' for Active; 'I' for Inactive)
REMARK    1  A    between atoms: C_1  and  O_2
REMARK    2  A    between atoms: O_2  and  C_3
REMARK    3  A    between atoms: C_6  and  N_7
REMARK    4  A    between atoms: C_8  and  S_9
REMARK    5  A    between atoms: N_10  and  C_11
REMARK    6  A    between atoms: C_17  and  O_18
REMARK    7  A    between atoms: O_18  and  C_19
REMARK                            x       y       z     vdW  Elec       q    Type
REMARK                         _______ _______ _______ _____ _____    ______ ____
ROOT
ATOM      1  N   UNL     1       5.319   4.927  16.869  0.00  0.00    +0.000 NA
ATOM      2  C   UNL     1       6.542   5.358  16.880  0.00  0.00    +0.000 C 
ATOM      3  N   UNL     1       7.314   5.470  15.750  0.00  0.00    +0.000 N 
ATOM      4  H   UNL     1       8.174   5.992  15.847  0.00  0.00    +0.000 HD
ENDROOT
BRANCH   1   8
ATOM      5  C   UNL     1       2.636   4.573  20.111  0.00  0.00    +0.000 A 
ATOM      6  C   UNL     1       3.400   3.488  19.698  0.00  0.00    +0.000 A 
ATOM      7  C   UNL     1       4.276   3.608  18.621  0.00  0.00    +0.000 A 
ATOM      8  C   UNL     1       4.454   4.832  17.973  0.00  0.00    +0.000 A 
ATOM      9  C   UNL     1       3.626   5.918  18.344  0.00  0.00    +0.000 A 
ATOM     10  C   UNL     1       2.731   5.781  19.420  0.00  0.00    +0.000 A 
BRANCH   5  12
ATOM     11  C   UNL     1       1.756   2.972  21.637  0.00  0.00    +0.000 C 
ATOM     12  O   UNL     1       1.811   4.319  21.175  0.00  0.00    +0.000 OA
ENDBRANCH   5  12
BRANCH   9  13
ATOM     13  O   UNL     1       3.752   7.086  17.625  0.00  0.00    +0.000 OA
ATOM     14  C   UNL     1       2.757   8.078  17.864  0.00  0.00    +0.000 C 
ENDBRANCH   9  13
ENDBRANCH   1   8
BRANCH   3  15
ATOM     15  C   UNL     1       7.032   4.949  14.480  0.00  0.00    +0.000 A 
ATOM     16  C   UNL     1       6.033   3.986  14.334  0.00  0.00    +0.000 A 
ATOM     17  C   UNL     1       5.799   3.398  13.090  0.00  0.00    +0.000 A 
ATOM     18  C   UNL     1       6.573   3.800  12.014  0.00  0.00    +0.000 A 
ATOM     19  N   UNL     1       7.545   4.728  12.103  0.00  0.00    +0.000 NA
ATOM     20  C   UNL     1       7.762   5.260  13.332  0.00  0.00    +0.000 A 
ENDBRANCH   3  15
BRANCH   2  21
ATOM     21  S   UNL     1       7.445   5.912  18.289  0.00  0.00    +0.000 S 
ATOM     22  H   UNL     1       7.190   4.884  19.101  0.00  0.00    +0.000 HD
ENDBRANCH   2  21
TORSDOF 5
ENDMDL
MODEL 4
REMARK VINA RESULT:      -6.3      3.041      6.973
REMARK  Name = 
REMARK  7 active torsions:
REMARK  status: ('A' for Active; 'I' for Inactive)
REMARK    1  A    between atoms: C_1  and  O_2
REMARK    2  A    between atoms: O_2  and  C_3
REMARK    3  A    between atoms: C_6  and  N_7
REMARK    4  A    between atoms: C_8  and  S_9
REMARK    5  A    between atoms: N_10  and  C_11
REMARK    6  A    between atoms: C_17  and  O_18
REMARK    7  A    between atoms: O_18  and  C_19
REMARK                            x       y       z     vdW  Elec       q    Type
REMARK                         _______ _______ _______ _____ _____    ______ ____
ROOT
ATOM      1  N   UNL     1       5.168   5.606  16.581  0.00  0.00    +0.000 NA
ATOM      2  C   UNL     1       6.451   5.770  16.664  0.00  0.00    +0.000 C 
ATOM      3  N   UNL     1       7.308   5.570  15.609  0.00  0.00    +0.000 N 
ATOM      4  H   UNL     1       8.253   5.910  15.731  0.00  0.00    +0.000 HD
ENDROOT
BRANCH   1   8
ATOM      5  C   UNL     1       2.425   6.383  19.697  0.00  0.00    +0.000 A 
ATOM      6  C   UNL     1       2.705   7.349  18.738  0.00  0.00    +0.000 A 
ATOM      7  C   UNL     1       3.619   7.090  17.718  0.00  0.00    +0.000 A 
ATOM      8  C   UNL     1       4.226   5.839  17.598  0.00  0.00    +0.000 A 
ATOM      9  C   UNL     1       3.998   4.879  18.613  0.00  0.00    +0.000 A 
ATOM     10  C   UNL     1       3.089   5.156  19.649  0.00  0.00    +0.000 A 
BRANCH   5  12
ATOM     11  C   UNL     1       1.408   8.164  20.905  0.00  0.00    +0.000 C 
ATOM     12  O   UNL     1       1.516   6.766  20.647  0.00  0.00    +0.000 OA
ENDBRANCH   5  12
BRANCH   9  13
ATOM     13  O   UNL     1       4.685   3.688  18.525  0.00  0.00    +0.000 OA
ATOM     14  C   UNL     1       3.890   2.506  18.534  0.00  0.00    +0.000 C 
ENDBRANCH   9  13
ENDBRANCH   1   8
BRANCH   3  15
ATOM     15  C   UNL     1       7.011   4.957  14.385  0.00  0.00    +0.000 A 
ATOM     16  C   UNL     1       6.012   3.985  14.323  0.00  0.00    +0.000 A 
ATOM     17  C   UNL     1       5.763   3.307  13.128  0.00  0.00    +0.000 A 
ATOM     18  C   UNL     1       6.523   3.630  12.016  0.00  0.00    +0.000 A 
ATOM     19  N   UNL     1       7.495   4.562  12.024  0.00  0.00    +0.000 NA
ATOM     20  C   UNL     1       7.726   5.183  13.208  0.00  0.00    +0.000 A 
ENDBRANCH   3  15
BRANCH   2  21
ATOM     21  S   UNL     1       7.350   6.304  18.083  0.00  0.00    +0.000 S 
ATOM     22  H   UNL     1       8.103   7.236  17.497  0.00  0.00    +0.000 HD
ENDBRANCH   2  21
TORSDOF 5
ENDMDL
MODEL 5
REMARK VINA RESULT:      -6.3      2.744      7.024
REMARK  Name = 
REMARK  7 active torsions:
REMARK  status: ('A' for Active; 'I' for Inactive)
REMARK    1  A    between atoms: C_1  and  O_2
REMARK    2  A    between atoms: O_2  and  C_3
REMARK    3  A    between atoms: C_6  and  N_7
REMARK    4  A    between atoms: C_8  and  S_9
REMARK    5  A    between atoms: N_10  and  C_11
REMARK    6  A    between atoms: C_17  and  O_18
REMARK    7  A    between atoms: O_18  and  C_19
REMARK                            x       y       z     vdW  Elec       q    Type
REMARK                         _______ _______ _______ _____ _____    ______ ____
ROOT
ATOM      1  N   UNL     1       5.394   4.913  16.889  0.00  0.00    +0.000 NA
ATOM      2  C   UNL     1       6.566   5.465  16.850  0.00  0.00    +0.000 C 
ATOM      3  N   UNL     1       7.317   5.564  15.704  0.00  0.00    +0.000 N 
ATOM      4  H   UNL     1       8.120   6.177  15.748  0.00  0.00    +0.000 HD
ENDROOT
BRANCH   1   8
ATOM      5  C   UNL     1       2.772   4.556  20.180  0.00  0.00    +0.000 A 
ATOM      6  C   UNL     1       3.569   3.488  19.786  0.00  0.00    +0.000 A 
ATOM      7  C   UNL     1       4.425   3.609  18.693  0.00  0.00    +0.000 A 
ATOM      8  C   UNL     1       4.549   4.819  18.008  0.00  0.00    +0.000 A 
ATOM      9  C   UNL     1       3.687   5.884  18.361  0.00  0.00    +0.000 A 
ATOM     10  C   UNL     1       2.813   5.747  19.454  0.00  0.00    +0.000 A 
BRANCH   5  12
ATOM     11  C   UNL     1       1.837   2.940  21.657  0.00  0.00    +0.000 C 
ATOM     12  O   UNL     1       1.973   4.304  21.263  0.00  0.00    +0.000 OA
ENDBRANCH   5  12
BRANCH   9  13
ATOM     13  O   UNL     1       3.760   7.035  17.606  0.00  0.00    +0.000 OA
ATOM     14  C   UNL     1       2.759   8.016  17.864  0.00  0.00    +0.000 C 
ENDBRANCH   9  13
ENDBRANCH   1   8
BRANCH   3  15
ATOM     15  C   UNL     1       7.084   4.919  14.482  0.00  0.00    +0.000 A 
ATOM     16  C   UNL     1       7.787   5.317  13.344  0.00  0.00    +0.000 A 
ATOM     17  C   UNL     1       7.504   4.741  12.105  0.00  0.00    +0.000 A 
ATOM     18  C   UNL     1       6.523   3.766  12.039  0.00  0.00    +0.000 A 
ATOM     19  N   UNL     1       5.820   3.345  13.109  0.00  0.00    +0.000 NA
ATOM     20  C   UNL     1       6.103   3.944  14.292  0.00  0.00    +0.000 A 
ENDBRANCH   3  15
BRANCH   2  21
ATOM     21  S   UNL     1       7.416   6.217  18.198  0.00  0.00    +0.000 S 
ATOM     22  H   UNL     1       6.959   7.462  18.048  0.00  0.00    +0.000 HD
ENDBRANCH   2  21
TORSDOF 5
ENDMDL
MODEL 6
REMARK VINA RESULT:      -6.1      0.782      1.156
REMARK  Name = 
REMARK  7 active torsions:
REMARK  status: ('A' for Active; 'I' for Inactive)
REMARK    1  A    between atoms: C_1  and  O_2
REMARK    2  A    between atoms: O_2  and  C_3
REMARK    3  A    between atoms: C_6  and  N_7
REMARK    4  A    between atoms: C_8  and  S_9
REMARK    5  A    between atoms: N_10  and  C_11
REMARK    6  A    between atoms: C_17  and  O_18
REMARK    7  A    between atoms: O_18  and  C_19
REMARK                            x       y       z     vdW  Elec       q    Type
REMARK                         _______ _______ _______ _____ _____    ______ ____
ROOT
ATOM      1  N   UNL     1       4.107   5.122  18.078  0.00  0.00    +0.000 NA
ATOM      2  C   UNL     1       3.298   6.080  18.408  0.00  0.00    +0.000 C 
ATOM      3  N   UNL     1       2.351   5.964  19.395  0.00  0.00    +0.000 N 
ATOM      4  H   UNL     1       1.912   6.823  19.697  0.00  0.00    +0.000 HD
ENDROOT
BRANCH   1   8
ATOM      5  C   UNL     1       7.154   5.182  15.155  0.00  0.00    +0.000 A 
ATOM      6  C   UNL     1       5.815   5.261  14.789  0.00  0.00    +0.000 A 
ATOM      7  C   UNL     1       4.814   5.231  15.758  0.00  0.00    +0.000 A 
ATOM      8  C   UNL     1       5.131   5.183  17.117  0.00  0.00    +0.000 A 
ATOM      9  C   UNL     1       6.487   5.029  17.488  0.00  0.00    +0.000 A 
ATOM     10  C   UNL     1       7.490   5.042  16.502  0.00  0.00    +0.000 A 
BRANCH   5  12
ATOM     11  C   UNL     1       7.501   4.964  12.810  0.00  0.00    +0.000 C 
ATOM     12  O   UNL     1       8.036   5.215  14.107  0.00  0.00    +0.000 OA
ENDBRANCH   5  12
BRANCH   9  13
ATOM     13  O   UNL     1       6.765   4.886  18.830  0.00  0.00    +0.000 OA
ATOM     14  C   UNL     1       7.791   5.727  19.349  0.00  0.00    +0.000 C 
ENDBRANCH   9  13
ENDBRANCH   1   8
BRANCH   3  15
ATOM     15  C   UNL     1       1.937   4.787  20.034  0.00  0.00    +0.000 A 
ATOM     16  C   UNL     1       2.434   4.477  21.301  0.00  0.00    +0.000 A 
ATOM     17  C   UNL     1       2.097   3.269  21.913  0.00  0.00    +0.000 A 
ATOM     18  C   UNL     1       1.256   2.400  21.237  0.00  0.00    +0.000 A 
ATOM     19  N   UNL     1       0.748   2.655  20.016  0.00  0.00    +0.000 NA
ATOM     20  C   UNL     1       1.117   3.826  19.441  0.00  0.00    +0.000 A 
ENDBRANCH   3  15
BRANCH   2  21
ATOM     21  S   UNL     1       3.257   7.702  17.717  0.00  0.00    +0.000 S 
ATOM     22  H   UNL     1       2.097   7.606  17.065  0.00  0.00    +0.000 HD
ENDBRANCH   2  21
TORSDOF 5
ENDMDL
MODEL 7
REMARK VINA RESULT:      -6.1      2.873      7.166
REMARK  Name = 
REMARK  7 active torsions:
REMARK  status: ('A' for Active; 'I' for Inactive)
REMARK    1  A    between atoms: C_1  and  O_2
REMARK    2  A    between atoms: O_2  and  C_3
REMARK    3  A    between atoms: C_6  and  N_7
REMARK    4  A    between atoms: C_8  and  S_9
REMARK    5  A    between atoms: N_10  and  C_11
REMARK    6  A    between atoms: C_17  and  O_18
REMARK    7  A    between atoms: O_18  and  C_19
REMARK                            x       y       z     vdW  Elec       q    Type
REMARK                         _______ _______ _______ _____ _____    ______ ____
ROOT
ATOM      1  N   UNL     1       5.036   4.212  16.554  0.00  0.00    +0.000 NA
ATOM      2  C   UNL     1       6.204   4.715  16.807  0.00  0.00    +0.000 C 
ATOM      3  N   UNL     1       7.118   5.032  15.833  0.00  0.00    +0.000 N 
ATOM      4  H   UNL     1       7.909   5.590  16.126  0.00  0.00    +0.000 HD
ENDROOT
BRANCH   1   8
ATOM      5  C   UNL     1       1.947   3.255  19.270  0.00  0.00    +0.000 A 
ATOM      6  C   UNL     1       2.758   2.261  18.735  0.00  0.00    +0.000 A 
ATOM      7  C   UNL     1       3.769   2.582  17.832  0.00  0.00    +0.000 A 
ATOM      8  C   UNL     1       4.033   3.910  17.490  0.00  0.00    +0.000 A 
ATOM      9  C   UNL     1       3.163   4.915  17.976  0.00  0.00    +0.000 A 
ATOM     10  C   UNL     1       2.134   4.580  18.873  0.00  0.00    +0.000 A 
BRANCH   5  12
ATOM     11  C   UNL     1       1.345   2.758  21.519  0.00  0.00    +0.000 C 
ATOM     12  O   UNL     1       0.989   2.805  20.139  0.00  0.00    +0.000 OA
ENDBRANCH   5  12
BRANCH   9  13
ATOM     13  O   UNL     1       3.385   6.206  17.547  0.00  0.00    +0.000 OA
ATOM     14  C   UNL     1       2.761   7.235  18.311  0.00  0.00    +0.000 C 
ENDBRANCH   9  13
ENDBRANCH   1   8
BRANCH   3  15
ATOM     15  C   UNL     1       7.067   4.675  14.479  0.00  0.00    +0.000 A 
ATOM     16  C   UNL     1       7.798   5.408  13.543  0.00  0.00    +0.000 A 
ATOM     17  C   UNL     1       7.690   5.117  12.182  0.00  0.00    +0.000 A 
ATOM     18  C   UNL     1       6.854   4.084  11.792  0.00  0.00    +0.000 A 
ATOM     19  N   UNL     1       6.132   3.346  12.657  0.00  0.00    +0.000 NA
ATOM     20  C   UNL     1       6.241   3.672  13.969  0.00  0.00    +0.000 A 
ENDBRANCH   3  15
BRANCH   2  21
ATOM     21  S   UNL     1       6.846   5.125  18.397  0.00  0.00    +0.000 S 
ATOM     22  H   UNL     1       7.837   5.928  18.006  0.00  0.00    +0.000 HD
ENDBRANCH   2  21
TORSDOF 5
ENDMDL
MODEL 8
REMARK VINA RESULT:      -5.8      3.107      6.837
REMARK  Name = 
REMARK  7 active torsions:
REMARK  status: ('A' for Active; 'I' for Inactive)
REMARK    1  A    between atoms: C_1  and  O_2
REMARK    2  A    between atoms: O_2  and  C_3
REMARK    3  A    between atoms: C_6  and  N_7
REMARK    4  A    between atoms: C_8  and  S_9
REMARK    5  A    between atoms: N_10  and  C_11
REMARK    6  A    between atoms: C_17  and  O_18
REMARK    7  A    between atoms: O_18  and  C_19
REMARK                            x       y       z     vdW  Elec       q    Type
REMARK                         _______ _______ _______ _____ _____    ______ ____
ROOT
ATOM      1  N   UNL     1       3.434   6.039  17.800  0.00  0.00    +0.000 NA
ATOM      2  C   UNL     1       3.105   4.838  17.442  0.00  0.00    +0.000 C 
ATOM      3  N   UNL     1       3.951   3.991  16.768  0.00  0.00    +0.000 N 
ATOM      4  H   UNL     1       3.663   3.024  16.711  0.00  0.00    +0.000 HD
ENDROOT
BRANCH   1   8
ATOM      5  C   UNL     1       1.160   8.835  20.002  0.00  0.00    +0.000 A 
ATOM      6  C   UNL     1       1.445   9.050  18.659  0.00  0.00    +0.000 A 
ATOM      7  C   UNL     1       2.205   8.128  17.940  0.00  0.00    +0.000 A 
ATOM      8  C   UNL     1       2.643   6.942  18.532  0.00  0.00    +0.000 A 
ATOM      9  C   UNL     1       2.416   6.755  19.916  0.00  0.00    +0.000 A 
ATOM     10  C   UNL     1       1.665   7.699  20.637  0.00  0.00    +0.000 A 
BRANCH   5  12
ATOM     11  C   UNL     1       0.204   9.710  21.999  0.00  0.00    +0.000 C 
ATOM     12  O   UNL     1       0.412   9.818  20.593  0.00  0.00    +0.000 OA
ENDBRANCH   5  12
BRANCH   9  13
ATOM     13  O   UNL     1       2.944   5.623  20.497  0.00  0.00    +0.000 OA
ATOM     14  C   UNL     1       2.016   4.772  21.164  0.00  0.00    +0.000 C 
ENDBRANCH   9  13
ENDBRANCH   1   8
BRANCH   3  15
ATOM     15  C   UNL     1       5.172   4.322  16.165  0.00  0.00    +0.000 A 
ATOM     16  C   UNL     1       5.260   4.384  14.773  0.00  0.00    +0.000 A 
ATOM     17  C   UNL     1       6.487   4.629  14.156  0.00  0.00    +0.000 A 
ATOM     18  C   UNL     1       7.602   4.816  14.956  0.00  0.00    +0.000 A 
ATOM     19  N   UNL     1       7.568   4.770  16.302  0.00  0.00    +0.000 NA
ATOM     20  C   UNL     1       6.364   4.505  16.867  0.00  0.00    +0.000 A 
ENDBRANCH   3  15
BRANCH   2  21
ATOM     21  S   UNL     1       1.569   4.033  17.758  0.00  0.00    +0.000 S 
ATOM     22  H   UNL     1       1.966   2.773  17.574  0.00  0.00    +0.000 HD
ENDBRANCH   2  21
TORSDOF 5
ENDMDL
MODEL 9
REMARK VINA RESULT:      -5.8      2.751      3.569
REMARK  Name = 
REMARK  7 active torsions:
REMARK  status: ('A' for Active; 'I' for Inactive)
REMARK    1  A    between atoms: C_1  and  O_2
REMARK    2  A    between atoms: O_2  and  C_3
REMARK    3  A    between atoms: C_6  and  N_7
REMARK    4  A    between atoms: C_8  and  S_9
REMARK    5  A    between atoms: N_10  and  C_11
REMARK    6  A    between atoms: C_17  and  O_18
REMARK    7  A    between atoms: O_18  and  C_19
REMARK                            x       y       z     vdW  Elec       q    Type
REMARK                         _______ _______ _______ _____ _____    ______ ____
ROOT
ATOM      1  N   UNL     1       4.877   4.861  18.489  0.00  0.00    +0.000 NA
ATOM      2  C   UNL     1       4.612   3.826  17.755  0.00  0.00    +0.000 C 
ATOM      3  N   UNL     1       3.644   2.904  18.069  0.00  0.00    +0.000 N 
ATOM      4  H   UNL     1       3.393   2.253  17.337  0.00  0.00    +0.000 HD
ENDROOT
BRANCH   1   8
ATOM      5  C   UNL     1       7.678   7.939  17.770  0.00  0.00    +0.000 A 
ATOM      6  C   UNL     1       8.002   6.857  18.580  0.00  0.00    +0.000 A 
ATOM      7  C   UNL     1       7.070   5.850  18.822  0.00  0.00    +0.000 A 
ATOM      8  C   UNL     1       5.815   5.869  18.209  0.00  0.00    +0.000 A 
ATOM      9  C   UNL     1       5.458   7.004  17.443  0.00  0.00    +0.000 A 
ATOM     10  C   UNL     1       6.398   8.025  17.220  0.00  0.00    +0.000 A 
BRANCH   5  12
ATOM     11  C   UNL     1       8.936   9.717  18.730  0.00  0.00    +0.000 C 
ATOM     12  O   UNL     1       8.680   8.861  17.619  0.00  0.00    +0.000 OA
ENDBRANCH   5  12
BRANCH   9  13
ATOM     13  O   UNL     1       4.180   7.045  16.930  0.00  0.00    +0.000 OA
ATOM     14  C   UNL     1       3.217   7.756  17.703  0.00  0.00    +0.000 C 
ENDBRANCH   9  13
ENDBRANCH   1   8
BRANCH   3  15
ATOM     15  C   UNL     1       2.961   2.778  19.285  0.00  0.00    +0.000 A 
ATOM     16  C   UNL     1       1.600   3.085  19.349  0.00  0.00    +0.000 A 
ATOM     17  C   UNL     1       0.927   3.045  20.571  0.00  0.00    +0.000 A 
ATOM     18  C   UNL     1       1.638   2.687  21.705  0.00  0.00    +0.000 A 
ATOM     19  N   UNL     1       2.949   2.379  21.694  0.00  0.00    +0.000 NA
ATOM     20  C   UNL     1       3.577   2.452  20.494  0.00  0.00    +0.000 A 
ENDBRANCH   3  15
BRANCH   2  21
ATOM     21  S   UNL     1       5.379   3.402  16.225  0.00  0.00    +0.000 S 
ATOM     22  H   UNL     1       5.401   2.077  16.378  0.00  0.00    +0.000 HD
ENDBRANCH   2  21
TORSDOF 5
ENDMDL
