MODEL 1
REMARK VINA RESULT:      -9.5      0.000      0.000
REMARK  Name = 
REMARK  7 active torsions:
REMARK  status: ('A' for Active; 'I' for Inactive)
REMARK    1  A    between atoms: C_10  and  C_11
REMARK    2  A    between atoms: C_14  and  O_15
REMARK    3  A    between atoms: O_15  and  C_16
REMARK    4  A    between atoms: C_16  and  C_17
REMARK    5  A    between atoms: C_23  and  O_24
REMARK    6  A    between atoms: O_24  and  C_25
REMARK    7  A    between atoms: C_25  and  C_26
REMARK                            x       y       z     vdW  Elec       q    Type
REMARK                         _______ _______ _______ _____ _____    ______ ____
ROOT
ATOM      1  C   UNL     1       2.845   6.526  18.859  0.00  0.00    +0.000 A 
ATOM      2  C   UNL     1       4.192   6.775  18.623  0.00  0.00    +0.000 A 
ATOM      3  C   UNL     1       4.920   5.939  17.778  0.00  0.00    +0.000 A 
ATOM      4  C   UNL     1       4.317   4.837  17.160  0.00  0.00    +0.000 A 
ATOM      5  C   UNL     1       2.965   4.562  17.427  0.00  0.00    +0.000 A 
ATOM      6  C   UNL     1       2.229   5.427  18.254  0.00  0.00    +0.000 A 
ENDROOT
BRANCH   1  16
ATOM      7  O   UNL     1       2.221   8.754  17.127  0.00  0.00    +0.000 OA
ATOM      8  C   UNL     1       1.622   9.215  18.087  0.00  0.00    +0.000 C 
ATOM      9  N   UNL     1       0.909  10.379  17.960  0.00  0.00    +0.000 N 
ATOM     10  C   UNL     1       0.308  11.076  18.962  0.00  0.00    +0.000 C 
ATOM     11  S   UNL     1      -0.488  12.505  18.667  0.00  0.00    +0.000 S 
ATOM     12  N   UNL     1       0.393  10.562  20.218  0.00  0.00    +0.000 N 
ATOM     13  C   UNL     1       0.988   9.381  20.569  0.00  0.00    +0.000 C 
ATOM     14  O   UNL     1       1.005   9.009  21.738  0.00  0.00    +0.000 OA
ATOM     15  C   UNL     1       1.604   8.620  19.451  0.00  0.00    +0.000 C 
ATOM     16  C   UNL     1       2.123   7.418  19.761  0.00  0.00    +0.000 C 
ATOM     17  H   UNL     1       0.891  10.776  17.029  0.00  0.00    +0.000 HD
ATOM     18  H   UNL     1      -0.030  11.082  20.975  0.00  0.00    +0.000 HD
ENDBRANCH   1  16
BRANCH   4  19
ATOM     19  O   UNL     1       5.010   3.996  16.329  0.00  0.00    +0.000 OA
BRANCH  19  20
ATOM     20  C   UNL     1       6.348   4.380  16.009  0.00  0.00    +0.000 C 
BRANCH  20  21
ATOM     21  C   UNL     1       6.559   4.382  14.515  0.00  0.00    +0.000 A 
ATOM     22  C   UNL     1       7.558   5.196  13.962  0.00  0.00    +0.000 A 
ATOM     23  C   UNL     1       7.815   5.166  12.593  0.00  0.00    +0.000 A 
ATOM     24  C   UNL     1       7.088   4.313  11.765  0.00  0.00    +0.000 A 
ATOM     25  C   UNL     1       6.113   3.478  12.307  0.00  0.00    +0.000 A 
ATOM     26  C   UNL     1       5.854   3.505  13.677  0.00  0.00    +0.000 A 
ENDBRANCH  20  21
ENDBRANCH  19  20
ENDBRANCH   4  19
BRANCH   5  27
ATOM     27  O   UNL     1       2.218   3.522  16.932  0.00  0.00    +0.000 OA
BRANCH  27  28
ATOM     28  C   UNL     1       2.402   2.249  17.548  0.00  0.00    +0.000 C 
BRANCH  28  29
ATOM     29  C   UNL     1       2.282   2.429  19.043  0.00  0.00    +0.000 A 
ATOM     30  C   UNL     1       1.045   2.711  19.637  0.00  0.00    +0.000 A 
ATOM     31  C   UNL     1       0.949   2.890  21.017  0.00  0.00    +0.000 A 
ATOM     32  C   UNL     1       2.089   2.794  21.815  0.00  0.00    +0.000 A 
ATOM     33  C   UNL     1       3.325   2.523  21.234  0.00  0.00    +0.000 A 
ATOM     34  C   UNL     1       3.423   2.346  19.853  0.00  0.00    +0.000 A 
ENDBRANCH  28  29
ENDBRANCH  27  28
ENDBRANCH   5  27
TORSDOF 7
ENDMDL
MODEL 2
REMARK VINA RESULT:      -9.5      0.092      1.211
REMARK  Name = 
REMARK  7 active torsions:
REMARK  status: ('A' for Active; 'I' for Inactive)
REMARK    1  A    between atoms: C_10  and  C_11
REMARK    2  A    between atoms: C_14  and  O_15
REMARK    3  A    between atoms: O_15  and  C_16
REMARK    4  A    between atoms: C_16  and  C_17
REMARK    5  A    between atoms: C_23  and  O_24
REMARK    6  A    between atoms: O_24  and  C_25
REMARK    7  A    between atoms: C_25  and  C_26
REMARK                            x       y       z     vdW  Elec       q    Type
REMARK                         _______ _______ _______ _____ _____    ______ ____
ROOT
ATOM      1  C   UNL     1       2.824   6.573  18.798  0.00  0.00    +0.000 A 
ATOM      2  C   UNL     1       4.146   6.862  18.484  0.00  0.00    +0.000 A 
ATOM      3  C   UNL     1       4.851   6.039  17.607  0.00  0.00    +0.000 A 
ATOM      4  C   UNL     1       4.250   4.912  17.036  0.00  0.00    +0.000 A 
ATOM      5  C   UNL     1       2.925   4.598  17.383  0.00  0.00    +0.000 A 
ATOM      6  C   UNL     1       2.210   5.448  18.241  0.00  0.00    +0.000 A 
ENDROOT
BRANCH   1  16
ATOM      7  O   UNL     1       2.152   8.824  17.113  0.00  0.00    +0.000 OA
ATOM      8  C   UNL     1       1.579   9.272  18.094  0.00  0.00    +0.000 C 
ATOM      9  N   UNL     1       0.863  10.436  18.001  0.00  0.00    +0.000 N 
ATOM     10  C   UNL     1       0.288  11.121  19.027  0.00  0.00    +0.000 C 
ATOM     11  S   UNL     1      -0.516  12.553  18.772  0.00  0.00    +0.000 S 
ATOM     12  N   UNL     1       0.407  10.590  20.274  0.00  0.00    +0.000 N 
ATOM     13  C   UNL     1       1.012   9.405  20.594  0.00  0.00    +0.000 C 
ATOM     14  O   UNL     1       1.060   9.018  21.757  0.00  0.00    +0.000 OA
ATOM     15  C   UNL     1       1.597   8.659  19.450  0.00  0.00    +0.000 C 
ATOM     16  C   UNL     1       2.126   7.454  19.731  0.00  0.00    +0.000 C 
ATOM     17  H   UNL     1       0.819  10.845  17.075  0.00  0.00    +0.000 HD
ATOM     18  H   UNL     1       0.004  11.100  21.049  0.00  0.00    +0.000 HD
ENDBRANCH   1  16
BRANCH   4  19
ATOM     19  O   UNL     1       4.922   4.082  16.175  0.00  0.00    +0.000 OA
BRANCH  19  20
ATOM     20  C   UNL     1       6.308   4.361  15.978  0.00  0.00    +0.000 C 
BRANCH  20  21
ATOM     21  C   UNL     1       6.654   4.339  14.510  0.00  0.00    +0.000 A 
ATOM     22  C   UNL     1       5.954   3.480  13.651  0.00  0.00    +0.000 A 
ATOM     23  C   UNL     1       6.210   3.488  12.282  0.00  0.00    +0.000 A 
ATOM     24  C   UNL     1       7.156   4.365  11.754  0.00  0.00    +0.000 A 
ATOM     25  C   UNL     1       7.837   5.245  12.594  0.00  0.00    +0.000 A 
ATOM     26  C   UNL     1       7.581   5.239  13.965  0.00  0.00    +0.000 A 
ENDBRANCH  20  21
ENDBRANCH  19  20
ENDBRANCH   4  19
BRANCH   5  27
ATOM     27  O   UNL     1       2.185   3.529  16.941  0.00  0.00    +0.000 OA
BRANCH  27  28
ATOM     28  C   UNL     1       2.434   2.272  17.569  0.00  0.00    +0.000 C 
BRANCH  28  29
ATOM     29  C   UNL     1       2.317   2.462  19.063  0.00  0.00    +0.000 A 
ATOM     30  C   UNL     1       3.444   2.373  19.890  0.00  0.00    +0.000 A 
ATOM     31  C   UNL     1       3.321   2.535  21.271  0.00  0.00    +0.000 A 
ATOM     32  C   UNL     1       2.070   2.781  21.837  0.00  0.00    +0.000 A 
ATOM     33  C   UNL     1       0.942   2.863  21.025  0.00  0.00    +0.000 A 
ATOM     34  C   UNL     1       1.063   2.699  19.644  0.00  0.00    +0.000 A 
ENDBRANCH  28  29
ENDBRANCH  27  28
ENDBRANCH   5  27
TORSDOF 7
ENDMDL
MODEL 3
REMARK VINA RESULT:      -9.4      2.468      3.985
REMARK  Name = 
REMARK  7 active torsions:
REMARK  status: ('A' for Active; 'I' for Inactive)
REMARK    1  A    between atoms: C_10  and  C_11
REMARK    2  A    between atoms: C_14  and  O_15
REMARK    3  A    between atoms: O_15  and  C_16
REMARK    4  A    between atoms: C_16  and  C_17
REMARK    5  A    between atoms: C_23  and  O_24
REMARK    6  A    between atoms: O_24  and  C_25
REMARK    7  A    between atoms: C_25  and  C_26
REMARK                            x       y       z     vdW  Elec       q    Type
REMARK                         _______ _______ _______ _____ _____    ______ ____
ROOT
ATOM      1  C   UNL     1       0.706   9.754  19.372  0.00  0.00    +0.000 A 
ATOM      2  C   UNL     1       1.443   9.989  18.218  0.00  0.00    +0.000 A 
ATOM      3  C   UNL     1       2.409   9.072  17.808  0.00  0.00    +0.000 A 
ATOM      4  C   UNL     1       2.659   7.909  18.546  0.00  0.00    +0.000 A 
ATOM      5  C   UNL     1       1.940   7.689  19.733  0.00  0.00    +0.000 A 
ATOM      6  C   UNL     1       0.946   8.601  20.124  0.00  0.00    +0.000 A 
ENDROOT
BRANCH   1  16
ATOM      7  O   UNL     1      -1.314   9.446  17.328  0.00  0.00    +0.000 OA
ATOM      8  C   UNL     1      -1.947  10.282  17.955  0.00  0.00    +0.000 C 
ATOM      9  N   UNL     1      -3.217  10.620  17.566  0.00  0.00    +0.000 N 
ATOM     10  C   UNL     1      -3.986  11.618  18.080  0.00  0.00    +0.000 C 
ATOM     11  S   UNL     1      -5.498  11.946  17.474  0.00  0.00    +0.000 S 
ATOM     12  N   UNL     1      -3.462  12.344  19.103  0.00  0.00    +0.000 N 
ATOM     13  C   UNL     1      -2.249  12.138  19.703  0.00  0.00    +0.000 C 
ATOM     14  O   UNL     1      -1.875  12.854  20.625  0.00  0.00    +0.000 OA
ATOM     15  C   UNL     1      -1.446  11.018  19.148  0.00  0.00    +0.000 C 
ATOM     16  C   UNL     1      -0.286  10.748  19.774  0.00  0.00    +0.000 C 
ATOM     17  H   UNL     1      -3.578  10.103  16.773  0.00  0.00    +0.000 HD
ATOM     18  H   UNL     1      -4.014  13.103  19.480  0.00  0.00    +0.000 HD
ENDBRANCH   1  16
BRANCH   4  19
ATOM     19  O   UNL     1       3.606   6.993  18.167  0.00  0.00    +0.000 OA
BRANCH  19  20
ATOM     20  C   UNL     1       4.128   7.128  16.845  0.00  0.00    +0.000 C 
BRANCH  20  21
ATOM     21  C   UNL     1       5.265   6.163  16.619  0.00  0.00    +0.000 A 
ATOM     22  C   UNL     1       6.189   5.934  17.648  0.00  0.00    +0.000 A 
ATOM     23  C   UNL     1       7.209   4.999  17.486  0.00  0.00    +0.000 A 
ATOM     24  C   UNL     1       7.308   4.273  16.301  0.00  0.00    +0.000 A 
ATOM     25  C   UNL     1       6.377   4.470  15.281  0.00  0.00    +0.000 A 
ATOM     26  C   UNL     1       5.355   5.405  15.442  0.00  0.00    +0.000 A 
ENDBRANCH  20  21
ENDBRANCH  19  20
ENDBRANCH   4  19
BRANCH   5  27
ATOM     27  O   UNL     1       2.064   6.624  20.591  0.00  0.00    +0.000 OA
BRANCH  27  28
ATOM     28  C   UNL     1       1.299   5.460  20.284  0.00  0.00    +0.000 C 
BRANCH  28  29
ATOM     29  C   UNL     1       2.143   4.559  19.414  0.00  0.00    +0.000 A 
ATOM     30  C   UNL     1       3.362   4.047  19.878  0.00  0.00    +0.000 A 
ATOM     31  C   UNL     1       4.141   3.227  19.060  0.00  0.00    +0.000 A 
ATOM     32  C   UNL     1       3.710   2.916  17.770  0.00  0.00    +0.000 A 
ATOM     33  C   UNL     1       2.504   3.427  17.296  0.00  0.00    +0.000 A 
ATOM     34  C   UNL     1       1.726   4.248  18.112  0.00  0.00    +0.000 A 
ENDBRANCH  28  29
ENDBRANCH  27  28
ENDBRANCH   5  27
TORSDOF 7
ENDMDL
MODEL 4
REMARK VINA RESULT:      -9.3      2.412      3.867
REMARK  Name = 
REMARK  7 active torsions:
REMARK  status: ('A' for Active; 'I' for Inactive)
REMARK    1  A    between atoms: C_10  and  C_11
REMARK    2  A    between atoms: C_14  and  O_15
REMARK    3  A    between atoms: O_15  and  C_16
REMARK    4  A    between atoms: C_16  and  C_17
REMARK    5  A    between atoms: C_23  and  O_24
REMARK    6  A    between atoms: O_24  and  C_25
REMARK    7  A    between atoms: C_25  and  C_26
REMARK                            x       y       z     vdW  Elec       q    Type
REMARK                         _______ _______ _______ _____ _____    ______ ____
ROOT
ATOM      1  C   UNL     1       0.742   9.689  19.338  0.00  0.00    +0.000 A 
ATOM      2  C   UNL     1       1.460   9.904  18.168  0.00  0.00    +0.000 A 
ATOM      3  C   UNL     1       2.403   8.968  17.746  0.00  0.00    +0.000 A 
ATOM      4  C   UNL     1       2.649   7.808  18.488  0.00  0.00    +0.000 A 
ATOM      5  C   UNL     1       1.950   7.607  19.691  0.00  0.00    +0.000 A 
ATOM      6  C   UNL     1       0.978   8.538  20.094  0.00  0.00    +0.000 A 
ENDROOT
BRANCH   1  16
ATOM      7  O   UNL     1      -1.326   9.392  17.340  0.00  0.00    +0.000 OA
ATOM      8  C   UNL     1      -1.934  10.242  17.973  0.00  0.00    +0.000 C 
ATOM      9  N   UNL     1      -3.206  10.596  17.607  0.00  0.00    +0.000 N 
ATOM     10  C   UNL     1      -3.949  11.610  18.127  0.00  0.00    +0.000 C 
ATOM     11  S   UNL     1      -5.469  11.955  17.550  0.00  0.00    +0.000 S 
ATOM     12  N   UNL     1      -3.393  12.338  19.133  0.00  0.00    +0.000 N 
ATOM     13  C   UNL     1      -2.171  12.119  19.708  0.00  0.00    +0.000 C 
ATOM     14  O   UNL     1      -1.766  12.839  20.615  0.00  0.00    +0.000 OA
ATOM     15  C   UNL     1      -1.396  10.982  19.147  0.00  0.00    +0.000 C 
ATOM     16  C   UNL     1      -0.227  10.701  19.751  0.00  0.00    +0.000 C 
ATOM     17  H   UNL     1      -3.592  10.077  16.827  0.00  0.00    +0.000 HD
ATOM     18  H   UNL     1      -3.926  13.109  19.513  0.00  0.00    +0.000 HD
ENDBRANCH   1  16
BRANCH   4  19
ATOM     19  O   UNL     1       3.574   6.873  18.098  0.00  0.00    +0.000 OA
BRANCH  19  20
ATOM     20  C   UNL     1       4.549   7.303  17.147  0.00  0.00    +0.000 C 
BRANCH  20  21
ATOM     21  C   UNL     1       5.387   6.140  16.679  0.00  0.00    +0.000 A 
ATOM     22  C   UNL     1       5.199   5.632  15.386  0.00  0.00    +0.000 A 
ATOM     23  C   UNL     1       6.005   4.601  14.909  0.00  0.00    +0.000 A 
ATOM     24  C   UNL     1       7.016   4.076  15.712  0.00  0.00    +0.000 A 
ATOM     25  C   UNL     1       7.232   4.594  16.989  0.00  0.00    +0.000 A 
ATOM     26  C   UNL     1       6.427   5.626  17.468  0.00  0.00    +0.000 A 
ENDBRANCH  20  21
ENDBRANCH  19  20
ENDBRANCH   4  19
BRANCH   5  27
ATOM     27  O   UNL     1       2.074   6.547  20.554  0.00  0.00    +0.000 OA
BRANCH  27  28
ATOM     28  C   UNL     1       1.327   5.373  20.240  0.00  0.00    +0.000 C 
BRANCH  28  29
ATOM     29  C   UNL     1       2.180   4.496  19.354  0.00  0.00    +0.000 A 
ATOM     30  C   UNL     1       1.775   4.178  18.051  0.00  0.00    +0.000 A 
ATOM     31  C   UNL     1       2.564   3.354  17.247  0.00  0.00    +0.000 A 
ATOM     32  C   UNL     1       3.761   2.837  17.741  0.00  0.00    +0.000 A 
ATOM     33  C   UNL     1       4.169   3.139  19.038  0.00  0.00    +0.000 A 
ATOM     34  C   UNL     1       3.380   3.961  19.844  0.00  0.00    +0.000 A 
ENDBRANCH  28  29
ENDBRANCH  27  28
ENDBRANCH   5  27
TORSDOF 7
ENDMDL
MODEL 5
REMARK VINA RESULT:      -9.3      1.520      1.903
REMARK  Name = 
REMARK  7 active torsions:
REMARK  status: ('A' for Active; 'I' for Inactive)
REMARK    1  A    between atoms: C_10  and  C_11
REMARK    2  A    between atoms: C_14  and  O_15
REMARK    3  A    between atoms: O_15  and  C_16
REMARK    4  A    between atoms: C_16  and  C_17
REMARK    5  A    between atoms: C_23  and  O_24
REMARK    6  A    between atoms: O_24  and  C_25
REMARK    7  A    between atoms: C_25  and  C_26
REMARK                            x       y       z     vdW  Elec       q    Type
REMARK                         _______ _______ _______ _____ _____    ______ ____
ROOT
ATOM      1  C   UNL     1       3.197   7.231  17.664  0.00  0.00    +0.000 A 
ATOM      2  C   UNL     1       4.554   7.518  17.580  0.00  0.00    +0.000 A 
ATOM      3  C   UNL     1       5.463   6.510  17.264  0.00  0.00    +0.000 A 
ATOM      4  C   UNL     1       5.033   5.198  17.033  0.00  0.00    +0.000 A 
ATOM      5  C   UNL     1       3.665   4.899  17.155  0.00  0.00    +0.000 A 
ATOM      6  C   UNL     1       2.751   5.925  17.442  0.00  0.00    +0.000 A 
ENDROOT
BRANCH   1  16
ATOM      7  O   UNL     1       2.558   6.616  20.415  0.00  0.00    +0.000 OA
ATOM      8  C   UNL     1       1.908   7.650  20.401  0.00  0.00    +0.000 C 
ATOM      9  N   UNL     1       1.307   8.102  21.547  0.00  0.00    +0.000 N 
ATOM     10  C   UNL     1       0.451   9.154  21.654  0.00  0.00    +0.000 C 
ATOM     11  S   UNL     1      -0.243   9.562  23.108  0.00  0.00    +0.000 S 
ATOM     12  N   UNL     1       0.177   9.853  20.520  0.00  0.00    +0.000 N 
ATOM     13  C   UNL     1       0.717   9.630  19.283  0.00  0.00    +0.000 C 
ATOM     14  O   UNL     1       0.400  10.326  18.324  0.00  0.00    +0.000 OA
ATOM     15  C   UNL     1       1.678   8.499  19.201  0.00  0.00    +0.000 C 
ATOM     16  C   UNL     1       2.280   8.313  18.012  0.00  0.00    +0.000 C 
ATOM     17  H   UNL     1       1.483   7.547  22.375  0.00  0.00    +0.000 HD
ATOM     18  H   UNL     1      -0.476  10.623  20.582  0.00  0.00    +0.000 HD
ENDBRANCH   1  16
BRANCH   4  19
ATOM     19  O   UNL     1       5.906   4.186  16.725  0.00  0.00    +0.000 OA
BRANCH  19  20
ATOM     20  C   UNL     1       7.119   4.570  16.077  0.00  0.00    +0.000 C 
BRANCH  20  21
ATOM     21  C   UNL     1       6.974   4.480  14.578  0.00  0.00    +0.000 A 
ATOM     22  C   UNL     1       7.810   5.251  13.758  0.00  0.00    +0.000 A 
ATOM     23  C   UNL     1       7.740   5.136  12.372  0.00  0.00    +0.000 A 
ATOM     24  C   UNL     1       6.845   4.241  11.790  0.00  0.00    +0.000 A 
ATOM     25  C   UNL     1       6.030   3.447  12.595  0.00  0.00    +0.000 A 
ATOM     26  C   UNL     1       6.099   3.559  13.983  0.00  0.00    +0.000 A 
ENDBRANCH  20  21
ENDBRANCH  19  20
ENDBRANCH   4  19
BRANCH   5  27
ATOM     27  O   UNL     1       3.068   3.674  16.987  0.00  0.00    +0.000 OA
BRANCH  27  28
ATOM     28  C   UNL     1       3.498   2.626  17.853  0.00  0.00    +0.000 C 
BRANCH  28  29
ATOM     29  C   UNL     1       2.713   2.727  19.140  0.00  0.00    +0.000 A 
ATOM     30  C   UNL     1       1.330   2.955  19.123  0.00  0.00    +0.000 A 
ATOM     31  C   UNL     1       0.618   3.063  20.318  0.00  0.00    +0.000 A 
ATOM     32  C   UNL     1       1.281   2.949  21.540  0.00  0.00    +0.000 A 
ATOM     33  C   UNL     1       2.657   2.731  21.568  0.00  0.00    +0.000 A 
ATOM     34  C   UNL     1       3.371   2.626  20.374  0.00  0.00    +0.000 A 
ENDBRANCH  28  29
ENDBRANCH  27  28
ENDBRANCH   5  27
TORSDOF 7
ENDMDL
MODEL 6
REMARK VINA RESULT:      -8.9      3.074      4.246
REMARK  Name = 
REMARK  7 active torsions:
REMARK  status: ('A' for Active; 'I' for Inactive)
REMARK    1  A    between atoms: C_10  and  C_11
REMARK    2  A    between atoms: C_14  and  O_15
REMARK    3  A    between atoms: O_15  and  C_16
REMARK    4  A    between atoms: C_16  and  C_17
REMARK    5  A    between atoms: C_23  and  O_24
REMARK    6  A    between atoms: O_24  and  C_25
REMARK    7  A    between atoms: C_25  and  C_26
REMARK                            x       y       z     vdW  Elec       q    Type
REMARK                         _______ _______ _______ _____ _____    ______ ____
ROOT
ATOM      1  C   UNL     1       0.941   9.660  19.369  0.00  0.00    +0.000 A 
ATOM      2  C   UNL     1       1.474   9.768  18.090  0.00  0.00    +0.000 A 
ATOM      3  C   UNL     1       2.240   8.730  17.564  0.00  0.00    +0.000 A 
ATOM      4  C   UNL     1       2.492   7.571  18.307  0.00  0.00    +0.000 A 
ATOM      5  C   UNL     1       1.985   7.477  19.614  0.00  0.00    +0.000 A 
ATOM      6  C   UNL     1       1.187   8.512  20.127  0.00  0.00    +0.000 A 
ENDROOT
BRANCH   1  16
ATOM      7  O   UNL     1      -1.475   9.479  17.793  0.00  0.00    +0.000 OA
ATOM      8  C   UNL     1      -1.881  10.410  18.472  0.00  0.00    +0.000 C 
ATOM      9  N   UNL     1      -3.163  10.868  18.319  0.00  0.00    +0.000 N 
ATOM     10  C   UNL     1      -3.708  11.969  18.903  0.00  0.00    +0.000 C 
ATOM     11  S   UNL     1      -5.272  12.434  18.587  0.00  0.00    +0.000 S 
ATOM     12  N   UNL     1      -2.916  12.682  19.749  0.00  0.00    +0.000 N 
ATOM     13  C   UNL     1      -1.633  12.372  20.109  0.00  0.00    +0.000 C 
ATOM     14  O   UNL     1      -1.009  13.086  20.886  0.00  0.00    +0.000 OA
ATOM     15  C   UNL     1      -1.075  11.143  19.486  0.00  0.00    +0.000 C 
ATOM     16  C   UNL     1       0.156  10.777  19.889  0.00  0.00    +0.000 C 
ATOM     17  H   UNL     1      -3.728  10.356  17.652  0.00  0.00    +0.000 HD
ATOM     18  H   UNL     1      -3.302  13.516  20.172  0.00  0.00    +0.000 HD
ENDBRANCH   1  16
BRANCH   4  19
ATOM     19  O   UNL     1       3.247   6.537  17.815  0.00  0.00    +0.000 OA
BRANCH  19  20
ATOM     20  C   UNL     1       4.383   6.898  17.029  0.00  0.00    +0.000 C 
BRANCH  20  21
ATOM     21  C   UNL     1       5.662   6.528  17.739  0.00  0.00    +0.000 A 
ATOM     22  C   UNL     1       6.826   7.269  17.492  0.00  0.00    +0.000 A 
ATOM     23  C   UNL     1       8.002   6.988  18.184  0.00  0.00    +0.000 A 
ATOM     24  C   UNL     1       8.024   5.973  19.139  0.00  0.00    +0.000 A 
ATOM     25  C   UNL     1       6.865   5.249  19.415  0.00  0.00    +0.000 A 
ATOM     26  C   UNL     1       5.686   5.530  18.725  0.00  0.00    +0.000 A 
ENDBRANCH  20  21
ENDBRANCH  19  20
ENDBRANCH   4  19
BRANCH   5  27
ATOM     27  O   UNL     1       2.148   6.434  20.492  0.00  0.00    +0.000 OA
BRANCH  27  28
ATOM     28  C   UNL     1       1.211   5.362  20.395  0.00  0.00    +0.000 C 
BRANCH  28  29
ATOM     29  C   UNL     1       1.905   4.189  19.743  0.00  0.00    +0.000 A 
ATOM     30  C   UNL     1       3.015   3.583  20.346  0.00  0.00    +0.000 A 
ATOM     31  C   UNL     1       3.657   2.510  19.726  0.00  0.00    +0.000 A 
ATOM     32  C   UNL     1       3.199   2.038  18.497  0.00  0.00    +0.000 A 
ATOM     33  C   UNL     1       2.102   2.639  17.884  0.00  0.00    +0.000 A 
ATOM     34  C   UNL     1       1.460   3.713  18.501  0.00  0.00    +0.000 A 
ENDBRANCH  28  29
ENDBRANCH  27  28
ENDBRANCH   5  27
TORSDOF 7
ENDMDL
MODEL 7
REMARK VINA RESULT:      -8.8      2.992      4.146
REMARK  Name = 
REMARK  7 active torsions:
REMARK  status: ('A' for Active; 'I' for Inactive)
REMARK    1  A    between atoms: C_10  and  C_11
REMARK    2  A    between atoms: C_14  and  O_15
REMARK    3  A    between atoms: O_15  and  C_16
REMARK    4  A    between atoms: C_16  and  C_17
REMARK    5  A    between atoms: C_23  and  O_24
REMARK    6  A    between atoms: O_24  and  C_25
REMARK    7  A    between atoms: C_25  and  C_26
REMARK                            x       y       z     vdW  Elec       q    Type
REMARK                         _______ _______ _______ _____ _____    ______ ____
ROOT
ATOM      1  C   UNL     1       1.303   9.470  19.901  0.00  0.00    +0.000 A 
ATOM      2  C   UNL     1       1.637   9.727  18.576  0.00  0.00    +0.000 A 
ATOM      3  C   UNL     1       2.218   8.728  17.796  0.00  0.00    +0.000 A 
ATOM      4  C   UNL     1       2.479   7.460  18.327  0.00  0.00    +0.000 A 
ATOM      5  C   UNL     1       2.176   7.210  19.676  0.00  0.00    +0.000 A 
ATOM      6  C   UNL     1       1.562   8.210  20.448  0.00  0.00    +0.000 A 
ENDROOT
BRANCH   1  16
ATOM      7  O   UNL     1      -1.147   9.987  18.457  0.00  0.00    +0.000 OA
ATOM      8  C   UNL     1      -1.390  10.796  19.339  0.00  0.00    +0.000 C 
ATOM      9  N   UNL     1      -2.590  11.457  19.357  0.00  0.00    +0.000 N 
ATOM     10  C   UNL     1      -2.947  12.472  20.190  0.00  0.00    +0.000 C 
ATOM     11  S   UNL     1      -4.428  13.216  20.066  0.00  0.00    +0.000 S 
ATOM     12  N   UNL     1      -2.037  12.862  21.123  0.00  0.00    +0.000 N 
ATOM     13  C   UNL     1      -0.808  12.299  21.338  0.00  0.00    +0.000 C 
ATOM     14  O   UNL     1      -0.064  12.729  22.213  0.00  0.00    +0.000 OA
ATOM     15  C   UNL     1      -0.459  11.167  20.440  0.00  0.00    +0.000 C 
ATOM     16  C   UNL     1       0.710  10.548  20.687  0.00  0.00    +0.000 C 
ATOM     17  H   UNL     1      -3.242  11.190  18.629  0.00  0.00    +0.000 HD
ATOM     18  H   UNL     1      -2.280  13.630  21.734  0.00  0.00    +0.000 HD
ENDBRANCH   1  16
BRANCH   4  19
ATOM     19  O   UNL     1       3.053   6.461  17.583  0.00  0.00    +0.000 OA
BRANCH  19  20
ATOM     20  C   UNL     1       4.219   6.814  16.839  0.00  0.00    +0.000 C 
BRANCH  20  21
ATOM     21  C   UNL     1       5.467   6.545  17.643  0.00  0.00    +0.000 A 
ATOM     22  C   UNL     1       5.451   5.545  18.625  0.00  0.00    +0.000 A 
ATOM     23  C   UNL     1       6.608   5.234  19.336  0.00  0.00    +0.000 A 
ATOM     24  C   UNL     1       7.797   5.909  19.063  0.00  0.00    +0.000 A 
ATOM     25  C   UNL     1       7.833   6.885  18.067  0.00  0.00    +0.000 A 
ATOM     26  C   UNL     1       6.676   7.197  17.354  0.00  0.00    +0.000 A 
ENDBRANCH  20  21
ENDBRANCH  19  20
ENDBRANCH   4  19
BRANCH   5  27
ATOM     27  O   UNL     1       2.380   6.042  20.368  0.00  0.00    +0.000 OA
BRANCH  27  28
ATOM     28  C   UNL     1       1.428   5.000  20.163  0.00  0.00    +0.000 C 
BRANCH  28  29
ATOM     29  C   UNL     1       2.141   3.831  19.526  0.00  0.00    +0.000 A 
ATOM     30  C   UNL     1       3.209   3.198  20.176  0.00  0.00    +0.000 A 
ATOM     31  C   UNL     1       3.870   2.129  19.571  0.00  0.00    +0.000 A 
ATOM     32  C   UNL     1       3.473   1.686  18.309  0.00  0.00    +0.000 A 
ATOM     33  C   UNL     1       2.419   2.313  17.650  0.00  0.00    +0.000 A 
ATOM     34  C   UNL     1       1.758   3.385  18.253  0.00  0.00    +0.000 A 
ENDBRANCH  28  29
ENDBRANCH  27  28
ENDBRANCH   5  27
TORSDOF 7
ENDMDL
MODEL 8
REMARK VINA RESULT:      -8.7      2.553      4.077
REMARK  Name = 
REMARK  7 active torsions:
REMARK  status: ('A' for Active; 'I' for Inactive)
REMARK    1  A    between atoms: C_10  and  C_11
REMARK    2  A    between atoms: C_14  and  O_15
REMARK    3  A    between atoms: O_15  and  C_16
REMARK    4  A    between atoms: C_16  and  C_17
REMARK    5  A    between atoms: C_23  and  O_24
REMARK    6  A    between atoms: O_24  and  C_25
REMARK    7  A    between atoms: C_25  and  C_26
REMARK                            x       y       z     vdW  Elec       q    Type
REMARK                         _______ _______ _______ _____ _____    ______ ____
ROOT
ATOM      1  C   UNL     1       0.497   9.648  19.968  0.00  0.00    +0.000 A 
ATOM      2  C   UNL     1       0.722  10.039  18.653  0.00  0.00    +0.000 A 
ATOM      3  C   UNL     1       1.577   9.295  17.841  0.00  0.00    +0.000 A 
ATOM      4  C   UNL     1       2.225   8.156  18.329  0.00  0.00    +0.000 A 
ATOM      5  C   UNL     1       2.028   7.781  19.670  0.00  0.00    +0.000 A 
ATOM      6  C   UNL     1       1.141   8.516  20.473  0.00  0.00    +0.000 A 
ENDROOT
BRANCH   1  16
ATOM      7  O   UNL     1       2.044  12.064  20.319  0.00  0.00    +0.000 OA
ATOM      8  C   UNL     1       1.070  12.494  20.918  0.00  0.00    +0.000 C 
ATOM      9  N   UNL     1       1.051  13.789  21.364  0.00  0.00    +0.000 N 
ATOM     10  C   UNL     1       0.103  14.363  22.154  0.00  0.00    +0.000 C 
ATOM     11  S   UNL     1       0.234  15.940  22.660  0.00  0.00    +0.000 S 
ATOM     12  N   UNL     1      -0.953  13.588  22.523  0.00  0.00    +0.000 N 
ATOM     13  C   UNL     1      -1.180  12.295  22.137  0.00  0.00    +0.000 C 
ATOM     14  O   UNL     1      -2.172  11.688  22.528  0.00  0.00    +0.000 OA
ATOM     15  C   UNL     1      -0.149  11.706  21.244  0.00  0.00    +0.000 C 
ATOM     16  C   UNL     1      -0.395  10.463  20.789  0.00  0.00    +0.000 C 
ATOM     17  H   UNL     1       1.864  14.342  21.122  0.00  0.00    +0.000 HD
ATOM     18  H   UNL     1      -1.653  13.996  23.128  0.00  0.00    +0.000 HD
ENDBRANCH   1  16
BRANCH   4  19
ATOM     19  O   UNL     1       3.075   7.409  17.554  0.00  0.00    +0.000 OA
BRANCH  19  20
ATOM     20  C   UNL     1       4.472   7.605  17.773  0.00  0.00    +0.000 C 
BRANCH  20  21
ATOM     21  C   UNL     1       5.271   6.481  17.161  0.00  0.00    +0.000 A 
ATOM     22  C   UNL     1       6.310   5.895  17.897  0.00  0.00    +0.000 A 
ATOM     23  C   UNL     1       7.019   4.813  17.380  0.00  0.00    +0.000 A 
ATOM     24  C   UNL     1       6.689   4.298  16.128  0.00  0.00    +0.000 A 
ATOM     25  C   UNL     1       5.638   4.853  15.399  0.00  0.00    +0.000 A 
ATOM     26  C   UNL     1       4.926   5.935  15.916  0.00  0.00    +0.000 A 
ENDBRANCH  20  21
ENDBRANCH  19  20
ENDBRANCH   4  19
BRANCH   5  27
ATOM     27  O   UNL     1       2.592   6.714  20.323  0.00  0.00    +0.000 OA
BRANCH  27  28
ATOM     28  C   UNL     1       1.837   5.504  20.347  0.00  0.00    +0.000 C 
BRANCH  28  29
ATOM     29  C   UNL     1       2.486   4.527  19.395  0.00  0.00    +0.000 A 
ATOM     30  C   UNL     1       1.920   4.260  18.141  0.00  0.00    +0.000 A 
ATOM     31  C   UNL     1       2.519   3.344  17.277  0.00  0.00    +0.000 A 
ATOM     32  C   UNL     1       3.686   2.682  17.660  0.00  0.00    +0.000 A 
ATOM     33  C   UNL     1       4.252   2.932  18.907  0.00  0.00    +0.000 A 
ATOM     34  C   UNL     1       3.652   3.847  19.774  0.00  0.00    +0.000 A 
ENDBRANCH  28  29
ENDBRANCH  27  28
ENDBRANCH   5  27
TORSDOF 7
ENDMDL
MODEL 9
REMARK VINA RESULT:      -8.7      2.409      5.428
REMARK  Name = 
REMARK  7 active torsions:
REMARK  status: ('A' for Active; 'I' for Inactive)
REMARK    1  A    between atoms: C_10  and  C_11
REMARK    2  A    between atoms: C_14  and  O_15
REMARK    3  A    between atoms: O_15  and  C_16
REMARK    4  A    between atoms: C_16  and  C_17
REMARK    5  A    between atoms: C_23  and  O_24
REMARK    6  A    between atoms: O_24  and  C_25
REMARK    7  A    between atoms: C_25  and  C_26
REMARK                            x       y       z     vdW  Elec       q    Type
REMARK                         _______ _______ _______ _____ _____    ______ ____
ROOT
ATOM      1  C   UNL     1       0.424   9.684  19.461  0.00  0.00    +0.000 A 
ATOM      2  C   UNL     1       0.480   9.165  20.749  0.00  0.00    +0.000 A 
ATOM      3  C   UNL     1       1.291   8.065  21.024  0.00  0.00    +0.000 A 
ATOM      4  C   UNL     1       2.053   7.462  20.017  0.00  0.00    +0.000 A 
ATOM      5  C   UNL     1       1.969   7.963  18.707  0.00  0.00    +0.000 A 
ATOM      6  C   UNL     1       1.176   9.091  18.443  0.00  0.00    +0.000 A 
ENDROOT
BRANCH   1  16
ATOM      7  O   UNL     1       2.267  11.901  19.667  0.00  0.00    +0.000 OA
ATOM      8  C   UNL     1       1.315  12.604  19.363  0.00  0.00    +0.000 C 
ATOM      9  N   UNL     1       1.486  13.948  19.166  0.00  0.00    +0.000 N 
ATOM     10  C   UNL     1       0.507  14.870  18.957  0.00  0.00    +0.000 C 
ATOM     11  S   UNL     1       0.860  16.484  18.779  0.00  0.00    +0.000 S 
ATOM     12  N   UNL     1      -0.775  14.418  18.910  0.00  0.00    +0.000 N 
ATOM     13  C   UNL     1      -1.175  13.113  19.007  0.00  0.00    +0.000 C 
ATOM     14  O   UNL     1      -2.364  12.815  18.948  0.00  0.00    +0.000 OA
ATOM     15  C   UNL     1      -0.083  12.123  19.196  0.00  0.00    +0.000 C 
ATOM     16  C   UNL     1      -0.449  10.828  19.213  0.00  0.00    +0.000 C 
ATOM     17  H   UNL     1       2.440  14.280  19.249  0.00  0.00    +0.000 HD
ATOM     18  H   UNL     1      -1.514  15.096  18.778  0.00  0.00    +0.000 HD
ENDBRANCH   1  16
BRANCH   4  19
ATOM     19  O   UNL     1       2.856   6.377  20.259  0.00  0.00    +0.000 OA
BRANCH  19  20
ATOM     20  C   UNL     1       2.191   5.161  20.605  0.00  0.00    +0.000 C 
BRANCH  20  21
ATOM     21  C   UNL     1       2.533   4.068  19.622  0.00  0.00    +0.000 A 
ATOM     22  C   UNL     1       2.094   4.174  18.295  0.00  0.00    +0.000 A 
ATOM     23  C   UNL     1       2.451   3.211  17.354  0.00  0.00    +0.000 A 
ATOM     24  C   UNL     1       3.262   2.140  17.726  0.00  0.00    +0.000 A 
ATOM     25  C   UNL     1       3.729   2.040  19.035  0.00  0.00    +0.000 A 
ATOM     26  C   UNL     1       3.374   3.004  19.978  0.00  0.00    +0.000 A 
ENDBRANCH  20  21
ENDBRANCH  19  20
ENDBRANCH   4  19
BRANCH   5  27
ATOM     27  O   UNL     1       2.624   7.490  17.596  0.00  0.00    +0.000 OA
BRANCH  27  28
ATOM     28  C   UNL     1       3.996   7.854  17.457  0.00  0.00    +0.000 C 
BRANCH  28  29
ATOM     29  C   UNL     1       4.779   6.609  17.112  0.00  0.00    +0.000 A 
ATOM     30  C   UNL     1       5.333   5.806  18.118  0.00  0.00    +0.000 A 
ATOM     31  C   UNL     1       6.067   4.666  17.787  0.00  0.00    +0.000 A 
ATOM     32  C   UNL     1       6.259   4.323  16.449  0.00  0.00    +0.000 A 
ATOM     33  C   UNL     1       5.721   5.119  15.441  0.00  0.00    +0.000 A 
ATOM     34  C   UNL     1       4.988   6.260  15.770  0.00  0.00    +0.000 A 
ENDBRANCH  28  29
ENDBRANCH  27  28
ENDBRANCH   5  27
TORSDOF 7
ENDMDL
