MODEL 1
REMARK VINA RESULT:      -6.5      0.000      0.000
REMARK  Name = 
REMARK  3 active torsions:
REMARK  status: ('A' for Active; 'I' for Inactive)
REMARK    1  A    between atoms: C_1  and  O_2
REMARK    2  A    between atoms: O_2  and  C_3
REMARK    3  A    between atoms: C_6  and  N_7
REMARK                            x       y       z     vdW  Elec       q    Type
REMARK                         _______ _______ _______ _____ _____    ______ ____
ROOT
ATOM      1  C   UNL     1       5.915   5.352  15.615  0.00  0.00    +0.000 A 
ATOM      2  C   UNL     1       5.775   3.985  15.831  0.00  0.00    +0.000 A 
ATOM      3  C   UNL     1       4.841   3.497  16.756  0.00  0.00    +0.000 A 
ATOM      4  C   UNL     1       4.021   4.366  17.487  0.00  0.00    +0.000 A 
ATOM      5  C   UNL     1       4.199   5.747  17.277  0.00  0.00    +0.000 A 
ATOM      6  C   UNL     1       5.140   6.235  16.360  0.00  0.00    +0.000 A 
ENDROOT
BRANCH   4   7
ATOM      7  N   UNL     1       3.041   3.876  18.402  0.00  0.00    +0.000 N 
ATOM      8  S   UNL     1       3.476   3.267  19.948  0.00  0.00    +0.000 S 
ATOM      9  C   UNL     1       1.822   3.078  20.368  0.00  0.00    +0.000 A 
ATOM     10 CL   UNL     1       1.347   2.502  21.905  0.00  0.00    +0.000 Cl
ATOM     11  C   UNL     1       0.959   3.414  19.414  0.00  0.00    +0.000 A 
ATOM     12  C   UNL     1       1.658   3.905  18.209  0.00  0.00    +0.000 A 
ATOM     13  O   UNL     1       1.013   4.246  17.228  0.00  0.00    +0.000 OA
ENDBRANCH   4   7
BRANCH   1  15
ATOM     14  C   UNL     1       7.123   4.743  13.680  0.00  0.00    +0.000 C 
ATOM     15  O   UNL     1       6.853   5.710  14.690  0.00  0.00    +0.000 OA
ENDBRANCH   1  15
TORSDOF 2
ENDMDL
MODEL 2
REMARK VINA RESULT:      -6.4      1.577      1.613
REMARK  Name = 
REMARK  3 active torsions:
REMARK  status: ('A' for Active; 'I' for Inactive)
REMARK    1  A    between atoms: C_1  and  O_2
REMARK    2  A    between atoms: O_2  and  C_3
REMARK    3  A    between atoms: C_6  and  N_7
REMARK                            x       y       z     vdW  Elec       q    Type
REMARK                         _______ _______ _______ _____ _____    ______ ____
ROOT
ATOM      1  C   UNL     1       6.692   5.258  16.080  0.00  0.00    +0.000 A 
ATOM      2  C   UNL     1       5.568   4.497  15.771  0.00  0.00    +0.000 A 
ATOM      3  C   UNL     1       4.592   4.232  16.743  0.00  0.00    +0.000 A 
ATOM      4  C   UNL     1       4.715   4.725  18.049  0.00  0.00    +0.000 A 
ATOM      5  C   UNL     1       5.873   5.467  18.349  0.00  0.00    +0.000 A 
ATOM      6  C   UNL     1       6.853   5.723  17.381  0.00  0.00    +0.000 A 
ENDROOT
BRANCH   4   7
ATOM      7  N   UNL     1       3.708   4.493  19.032  0.00  0.00    +0.000 N 
ATOM      8  S   UNL     1       3.408   2.923  19.664  0.00  0.00    +0.000 S 
ATOM      9  C   UNL     1       2.269   3.560  20.779  0.00  0.00    +0.000 A 
ATOM     10 CL   UNL     1       1.463   2.561  21.906  0.00  0.00    +0.000 Cl
ATOM     11  C   UNL     1       2.072   4.872  20.692  0.00  0.00    +0.000 A 
ATOM     12  C   UNL     1       2.927   5.474  19.649  0.00  0.00    +0.000 A 
ATOM     13  O   UNL     1       2.863   6.674  19.428  0.00  0.00    +0.000 OA
ENDBRANCH   4   7
BRANCH   1  15
ATOM     14  C   UNL     1       7.200   4.878  13.806  0.00  0.00    +0.000 C 
ATOM     15  O   UNL     1       7.572   5.453  15.055  0.00  0.00    +0.000 OA
ENDBRANCH   1  15
TORSDOF 2
ENDMDL
MODEL 3
REMARK VINA RESULT:      -6.4      0.162      1.248
REMARK  Name = 
REMARK  3 active torsions:
REMARK  status: ('A' for Active; 'I' for Inactive)
REMARK    1  A    between atoms: C_1  and  O_2
REMARK    2  A    between atoms: O_2  and  C_3
REMARK    3  A    between atoms: C_6  and  N_7
REMARK                            x       y       z     vdW  Elec       q    Type
REMARK                         _______ _______ _______ _____ _____    ______ ____
ROOT
ATOM      1  C   UNL     1       6.029   5.157  15.525  0.00  0.00    +0.000 A 
ATOM      2  C   UNL     1       5.246   6.080  16.212  0.00  0.00    +0.000 A 
ATOM      3  C   UNL     1       4.264   5.653  17.118  0.00  0.00    +0.000 A 
ATOM      4  C   UNL     1       4.042   4.292  17.361  0.00  0.00    +0.000 A 
ATOM      5  C   UNL     1       4.824   3.373  16.634  0.00  0.00    +0.000 A 
ATOM      6  C   UNL     1       5.799   3.799  15.721  0.00  0.00    +0.000 A 
ENDROOT
BRANCH   4   7
ATOM      7  N   UNL     1       3.072   3.851  18.309  0.00  0.00    +0.000 N 
ATOM      8  S   UNL     1       3.527   3.251  19.853  0.00  0.00    +0.000 S 
ATOM      9  C   UNL     1       1.879   3.127  20.320  0.00  0.00    +0.000 A 
ATOM     10 CL   UNL     1       1.427   2.592  21.879  0.00  0.00    +0.000 Cl
ATOM     11  C   UNL     1       1.003   3.477  19.384  0.00  0.00    +0.000 A 
ATOM     12  C   UNL     1       1.686   3.925  18.152  0.00  0.00    +0.000 A 
ATOM     13  O   UNL     1       1.026   4.272  17.184  0.00  0.00    +0.000 OA
ENDBRANCH   4   7
BRANCH   1  15
ATOM     14  C   UNL     1       7.255   4.902  13.524  0.00  0.00    +0.000 C 
ATOM     15  O   UNL     1       6.955   5.687  14.673  0.00  0.00    +0.000 OA
ENDBRANCH   1  15
TORSDOF 2
ENDMDL
MODEL 4
REMARK VINA RESULT:      -6.3      1.619      1.791
REMARK  Name = 
REMARK  3 active torsions:
REMARK  status: ('A' for Active; 'I' for Inactive)
REMARK    1  A    between atoms: C_1  and  O_2
REMARK    2  A    between atoms: O_2  and  C_3
REMARK    3  A    between atoms: C_6  and  N_7
REMARK                            x       y       z     vdW  Elec       q    Type
REMARK                         _______ _______ _______ _____ _____    ______ ____
ROOT
ATOM      1  C   UNL     1       6.720   5.076  15.942  0.00  0.00    +0.000 A 
ATOM      2  C   UNL     1       7.013   5.340  17.276  0.00  0.00    +0.000 A 
ATOM      3  C   UNL     1       6.045   5.151  18.273  0.00  0.00    +0.000 A 
ATOM      4  C   UNL     1       4.759   4.691  17.960  0.00  0.00    +0.000 A 
ATOM      5  C   UNL     1       4.473   4.458  16.602  0.00  0.00    +0.000 A 
ATOM      6  C   UNL     1       5.437   4.657  15.603  0.00  0.00    +0.000 A 
ENDROOT
BRANCH   4   7
ATOM      7  N   UNL     1       3.782   4.460  18.973  0.00  0.00    +0.000 N 
ATOM      8  S   UNL     1       3.497   2.891  19.611  0.00  0.00    +0.000 S 
ATOM      9  C   UNL     1       2.393   3.529  20.761  0.00  0.00    +0.000 A 
ATOM     10 CL   UNL     1       1.618   2.530  21.911  0.00  0.00    +0.000 Cl
ATOM     11  C   UNL     1       2.197   4.842  20.682  0.00  0.00    +0.000 A 
ATOM     12  C   UNL     1       3.023   5.443  19.614  0.00  0.00    +0.000 A 
ATOM     13  O   UNL     1       2.956   6.644  19.397  0.00  0.00    +0.000 OA
ENDBRANCH   4   7
BRANCH   1  15
ATOM     14  C   UNL     1       7.449   4.996  13.697  0.00  0.00    +0.000 C 
ATOM     15  O   UNL     1       7.740   5.292  15.060  0.00  0.00    +0.000 OA
ENDBRANCH   1  15
TORSDOF 2
ENDMDL
MODEL 5
REMARK VINA RESULT:      -6.1      2.021      2.172
REMARK  Name = 
REMARK  3 active torsions:
REMARK  status: ('A' for Active; 'I' for Inactive)
REMARK    1  A    between atoms: C_1  and  O_2
REMARK    2  A    between atoms: O_2  and  C_3
REMARK    3  A    between atoms: C_6  and  N_7
REMARK                            x       y       z     vdW  Elec       q    Type
REMARK                         _______ _______ _______ _____ _____    ______ ____
ROOT
ATOM      1  C   UNL     1       7.020   5.038  15.531  0.00  0.00    +0.000 A 
ATOM      2  C   UNL     1       5.831   4.412  15.167  0.00  0.00    +0.000 A 
ATOM      3  C   UNL     1       4.876   4.071  16.136  0.00  0.00    +0.000 A 
ATOM      4  C   UNL     1       5.086   4.348  17.493  0.00  0.00    +0.000 A 
ATOM      5  C   UNL     1       6.308   4.954  17.844  0.00  0.00    +0.000 A 
ATOM      6  C   UNL     1       7.267   5.286  16.877  0.00  0.00    +0.000 A 
ENDROOT
BRANCH   4   7
ATOM      7  N   UNL     1       4.103   4.038  18.479  0.00  0.00    +0.000 N 
ATOM      8  S   UNL     1       2.525   4.716  18.424  0.00  0.00    +0.000 S 
ATOM      9  C   UNL     1       2.038   3.759  19.764  0.00  0.00    +0.000 A 
ATOM     10 CL   UNL     1       0.444   3.818  20.376  0.00  0.00    +0.000 Cl
ATOM     11  C   UNL     1       2.990   2.982  20.274  0.00  0.00    +0.000 A 
ATOM     12  C   UNL     1       4.253   3.120  19.521  0.00  0.00    +0.000 A 
ATOM     13  O   UNL     1       5.238   2.483  19.865  0.00  0.00    +0.000 OA
ENDBRANCH   4   7
BRANCH   1  15
ATOM     14  C   UNL     1       7.423   4.950  13.206  0.00  0.00    +0.000 C 
ATOM     15  O   UNL     1       7.873   5.326  14.504  0.00  0.00    +0.000 OA
ENDBRANCH   1  15
TORSDOF 2
ENDMDL
MODEL 6
REMARK VINA RESULT:      -6.1      2.744      3.203
REMARK  Name = 
REMARK  3 active torsions:
REMARK  status: ('A' for Active; 'I' for Inactive)
REMARK    1  A    between atoms: C_1  and  O_2
REMARK    2  A    between atoms: O_2  and  C_3
REMARK    3  A    between atoms: C_6  and  N_7
REMARK                            x       y       z     vdW  Elec       q    Type
REMARK                         _______ _______ _______ _____ _____    ______ ____
ROOT
ATOM      1  C   UNL     1       7.085   6.972  17.542  0.00  0.00    +0.000 A 
ATOM      2  C   UNL     1       5.904   6.888  16.811  0.00  0.00    +0.000 A 
ATOM      3  C   UNL     1       4.903   5.973  17.168  0.00  0.00    +0.000 A 
ATOM      4  C   UNL     1       5.058   5.119  18.268  0.00  0.00    +0.000 A 
ATOM      5  C   UNL     1       6.272   5.199  18.977  0.00  0.00    +0.000 A 
ATOM      6  C   UNL     1       7.277   6.106  18.614  0.00  0.00    +0.000 A 
ENDROOT
BRANCH   4   7
ATOM      7  N   UNL     1       4.029   4.212  18.661  0.00  0.00    +0.000 N 
ATOM      8  S   UNL     1       2.406   4.406  18.132  0.00  0.00    +0.000 S 
ATOM      9  C   UNL     1       1.957   2.929  18.883  0.00  0.00    +0.000 A 
ATOM     10 CL   UNL     1       0.363   2.322  18.785  0.00  0.00    +0.000 Cl
ATOM     11  C   UNL     1       2.938   2.308  19.532  0.00  0.00    +0.000 A 
ATOM     12  C   UNL     1       4.209   3.052  19.418  0.00  0.00    +0.000 A 
ATOM     13  O   UNL     1       5.213   2.627  19.969  0.00  0.00    +0.000 OA
ENDBRANCH   4   7
BRANCH   1  15
ATOM     14  C   UNL     1       8.134   9.051  17.931  0.00  0.00    +0.000 C 
ATOM     15  O   UNL     1       7.985   7.901  17.104  0.00  0.00    +0.000 OA
ENDBRANCH   1  15
TORSDOF 2
ENDMDL
MODEL 7
REMARK VINA RESULT:      -6.0      1.332      1.832
REMARK  Name = 
REMARK  3 active torsions:
REMARK  status: ('A' for Active; 'I' for Inactive)
REMARK    1  A    between atoms: C_1  and  O_2
REMARK    2  A    between atoms: O_2  and  C_3
REMARK    3  A    between atoms: C_6  and  N_7
REMARK                            x       y       z     vdW  Elec       q    Type
REMARK                         _______ _______ _______ _____ _____    ______ ____
ROOT
ATOM      1  C   UNL     1       5.808   5.323  15.489  0.00  0.00    +0.000 A 
ATOM      2  C   UNL     1       5.230   6.390  16.171  0.00  0.00    +0.000 A 
ATOM      3  C   UNL     1       4.355   6.166  17.243  0.00  0.00    +0.000 A 
ATOM      4  C   UNL     1       4.038   4.868  17.662  0.00  0.00    +0.000 A 
ATOM      5  C   UNL     1       4.609   3.802  16.942  0.00  0.00    +0.000 A 
ATOM      6  C   UNL     1       5.476   4.025  15.863  0.00  0.00    +0.000 A 
ENDROOT
BRANCH   4   7
ATOM      7  N   UNL     1       3.178   4.632  18.776  0.00  0.00    +0.000 N 
ATOM      8  S   UNL     1       2.846   3.043  19.340  0.00  0.00    +0.000 S 
ATOM      9  C   UNL     1       1.951   3.670  20.664  0.00  0.00    +0.000 A 
ATOM     10 CL   UNL     1       1.246   2.646  21.835  0.00  0.00    +0.000 Cl
ATOM     11  C   UNL     1       1.857   4.996  20.699  0.00  0.00    +0.000 A 
ATOM     12  C   UNL     1       2.590   5.615  19.576  0.00  0.00    +0.000 A 
ATOM     13  O   UNL     1       2.596   6.831  19.450  0.00  0.00    +0.000 OA
ENDBRANCH   4   7
BRANCH   1  15
ATOM     14  C   UNL     1       6.992   4.604  13.578  0.00  0.00    +0.000 C 
ATOM     15  O   UNL     1       6.646   5.662  14.466  0.00  0.00    +0.000 OA
ENDBRANCH   1  15
TORSDOF 2
ENDMDL
MODEL 8
REMARK VINA RESULT:      -5.9      2.312      2.825
REMARK  Name = 
REMARK  3 active torsions:
REMARK  status: ('A' for Active; 'I' for Inactive)
REMARK    1  A    between atoms: C_1  and  O_2
REMARK    2  A    between atoms: O_2  and  C_3
REMARK    3  A    between atoms: C_6  and  N_7
REMARK                            x       y       z     vdW  Elec       q    Type
REMARK                         _______ _______ _______ _____ _____    ______ ____
ROOT
ATOM      1  C   UNL     1       6.973   7.066  17.545  0.00  0.00    +0.000 A 
ATOM      2  C   UNL     1       5.714   7.019  16.954  0.00  0.00    +0.000 A 
ATOM      3  C   UNL     1       4.750   6.102  17.395  0.00  0.00    +0.000 A 
ATOM      4  C   UNL     1       5.020   5.209  18.440  0.00  0.00    +0.000 A 
ATOM      5  C   UNL     1       6.309   5.252  19.004  0.00  0.00    +0.000 A 
ATOM      6  C   UNL     1       7.277   6.162  18.557  0.00  0.00    +0.000 A 
ENDROOT
BRANCH   4   7
ATOM      7  N   UNL     1       4.032   4.299  18.919  0.00  0.00    +0.000 N 
ATOM      8  S   UNL     1       3.103   4.634  20.325  0.00  0.00    +0.000 S 
ATOM      9  C   UNL     1       2.163   3.219  20.075  0.00  0.00    +0.000 A 
ATOM     10 CL   UNL     1       0.875   2.802  21.116  0.00  0.00    +0.000 Cl
ATOM     11  C   UNL     1       2.518   2.489  19.021  0.00  0.00    +0.000 A 
ATOM     12  C   UNL     1       3.643   3.112  18.293  0.00  0.00    +0.000 A 
ATOM     13  O   UNL     1       4.103   2.564  17.302  0.00  0.00    +0.000 OA
ENDBRANCH   4   7
BRANCH   1  15
ATOM     14  C   UNL     1       8.205   9.043  17.931  0.00  0.00    +0.000 C 
ATOM     15  O   UNL     1       7.829   8.001  17.036  0.00  0.00    +0.000 OA
ENDBRANCH   1  15
TORSDOF 2
ENDMDL
MODEL 9
REMARK VINA RESULT:      -5.9      2.235      2.647
REMARK  Name = 
REMARK  3 active torsions:
REMARK  status: ('A' for Active; 'I' for Inactive)
REMARK    1  A    between atoms: C_1  and  O_2
REMARK    2  A    between atoms: O_2  and  C_3
REMARK    3  A    between atoms: C_6  and  N_7
REMARK                            x       y       z     vdW  Elec       q    Type
REMARK                         _______ _______ _______ _____ _____    ______ ____
ROOT
ATOM      1  C   UNL     1       6.830   6.991  17.403  0.00  0.00    +0.000 A 
ATOM      2  C   UNL     1       7.191   6.126  18.432  0.00  0.00    +0.000 A 
ATOM      3  C   UNL     1       6.259   5.230  18.975  0.00  0.00    +0.000 A 
ATOM      4  C   UNL     1       4.942   5.175  18.500  0.00  0.00    +0.000 A 
ATOM      5  C   UNL     1       4.589   6.079  17.479  0.00  0.00    +0.000 A 
ATOM      6  C   UNL     1       5.518   6.981  16.943  0.00  0.00    +0.000 A 
ENDROOT
BRANCH   4   7
ATOM      7  N   UNL     1       3.999   4.240  19.021  0.00  0.00    +0.000 N 
ATOM      8  S   UNL     1       3.084   4.574  20.436  0.00  0.00    +0.000 S 
ATOM      9  C   UNL     1       2.196   3.119  20.239  0.00  0.00    +0.000 A 
ATOM     10 CL   UNL     1       0.944   2.679  21.316  0.00  0.00    +0.000 Cl
ATOM     11  C   UNL     1       2.558   2.378  19.196  0.00  0.00    +0.000 A 
ATOM     12  C   UNL     1       3.644   3.025  18.431  0.00  0.00    +0.000 A 
ATOM     13  O   UNL     1       4.106   2.470  17.444  0.00  0.00    +0.000 OA
ENDBRANCH   4   7
BRANCH   1  15
ATOM     14  C   UNL     1       8.087   8.958  17.759  0.00  0.00    +0.000 C 
ATOM     15  O   UNL     1       7.821   7.816  16.951  0.00  0.00    +0.000 OA
ENDBRANCH   1  15
TORSDOF 2
ENDMDL
