MODEL 1
REMARK VINA RESULT:      -7.2      0.000      0.000
REMARK  Name = 
REMARK  5 active torsions:
REMARK  status: ('A' for Active; 'I' for Inactive)
REMARK    1  A    between atoms: C_1  and  C_2
REMARK    2  A    between atoms: C_8  and  C_10
REMARK    3  A    between atoms: C_13  and  C_14
REMARK    4  A    between atoms: C_17  and  C_18
REMARK    5  A    between atoms: C_20  and  C_21
REMARK                            x       y       z     vdW  Elec       q    Type
REMARK                         _______ _______ _______ _____ _____    ______ ____
ROOT
ATOM      1  C   UNL     1       0.786   9.550  19.076  0.00  0.00    +0.000 A 
ATOM      2  C   UNL     1       0.909   9.101  20.377  0.00  0.00    +0.000 A 
ATOM      3  S   UNL     1       1.938   7.744  20.450  0.00  0.00    +0.000 S 
ATOM      4  C   UNL     1       2.173   7.819  18.739  0.00  0.00    +0.000 A 
ATOM      5  N   UNL     1       1.545   8.823  18.156  0.00  0.00    +0.000 NA
ENDROOT
BRANCH   1  13
ATOM      6  C   UNL     1       3.643  15.924  18.397  0.00  0.00    +0.000 C 
ATOM      7  C   UNL     1       2.162  15.812  18.644  0.00  0.00    +0.000 C 
ATOM      8  O   UNL     1       1.430  16.781  18.462  0.00  0.00    +0.000 OA
ATOM      9  N   UNL     1       1.678  14.573  19.029  0.00  0.00    +0.000 N 
ATOM     10  C   UNL     1       0.229  14.360  19.131  0.00  0.00    +0.000 C 
ATOM     11  C   UNL     1      -0.208  13.150  18.291  0.00  0.00    +0.000 C 
ATOM     12  N   UNL     1       0.612  11.968  18.595  0.00  0.00    +0.000 N 
ATOM     13  C   UNL     1      -0.017  10.733  18.729  0.00  0.00    +0.000 C 
ATOM     14  O   UNL     1      -1.231  10.613  18.555  0.00  0.00    +0.000 OA
ATOM     15  C   UNL     1       2.059  12.197  18.476  0.00  0.00    +0.000 C 
ATOM     16  C   UNL     1       2.492  13.389  19.338  0.00  0.00    +0.000 C 
ENDBRANCH   1  13
BRANCH   4  17
ATOM     17  C   UNL     1       3.028   6.827  18.041  0.00  0.00    +0.000 A 
ATOM     18  C   UNL     1       4.128   7.258  17.273  0.00  0.00    +0.000 A 
ATOM     19  C   UNL     1       4.951   6.358  16.593  0.00  0.00    +0.000 A 
ATOM     20  C   UNL     1       4.712   4.989  16.674  0.00  0.00    +0.000 A 
ATOM     21  C   UNL     1       5.582   4.012  15.943  0.00  0.00    +0.000 C 
ATOM     22  C   UNL     1       3.638   4.538  17.450  0.00  0.00    +0.000 A 
ATOM     23  C   UNL     1       2.788   5.434  18.129  0.00  0.00    +0.000 A 
ATOM     24  C   UNL     1       1.646   4.856  18.926  0.00  0.00    +0.000 C 
ENDBRANCH   4  17
TORSDOF 2
ENDMDL
MODEL 2
REMARK VINA RESULT:      -7.0      4.284      5.772
REMARK  Name = 
REMARK  5 active torsions:
REMARK  status: ('A' for Active; 'I' for Inactive)
REMARK    1  A    between atoms: C_1  and  C_2
REMARK    2  A    between atoms: C_8  and  C_10
REMARK    3  A    between atoms: C_13  and  C_14
REMARK    4  A    between atoms: C_17  and  C_18
REMARK    5  A    between atoms: C_20  and  C_21
REMARK                            x       y       z     vdW  Elec       q    Type
REMARK                         _______ _______ _______ _____ _____    ______ ____
ROOT
ATOM      1  C   UNL     1      -1.854  11.605  18.705  0.00  0.00    +0.000 A 
ATOM      2  C   UNL     1      -0.938  12.638  18.759  0.00  0.00    +0.000 A 
ATOM      3  S   UNL     1       0.646  12.029  18.919  0.00  0.00    +0.000 S 
ATOM      4  C   UNL     1       0.035  10.412  18.907  0.00  0.00    +0.000 A 
ATOM      5  N   UNL     1      -1.274  10.336  18.757  0.00  0.00    +0.000 NA
ENDROOT
BRANCH   1  13
ATOM      6  C   UNL     1      -5.798  14.390  23.798  0.00  0.00    +0.000 C 
ATOM      7  C   UNL     1      -6.470  13.612  22.698  0.00  0.00    +0.000 C 
ATOM      8  O   UNL     1      -7.686  13.690  22.540  0.00  0.00    +0.000 OA
ATOM      9  N   UNL     1      -5.656  12.864  21.864  0.00  0.00    +0.000 N 
ATOM     10  C   UNL     1      -6.233  12.213  20.681  0.00  0.00    +0.000 C 
ATOM     11  C   UNL     1      -5.467  12.610  19.409  0.00  0.00    +0.000 C 
ATOM     12  N   UNL     1      -4.020  12.415  19.577  0.00  0.00    +0.000 N 
ATOM     13  C   UNL     1      -3.295  11.845  18.533  0.00  0.00    +0.000 C 
ATOM     14  O   UNL     1      -3.837  11.548  17.467  0.00  0.00    +0.000 OA
ATOM     15  C   UNL     1      -3.459  13.084  20.760  0.00  0.00    +0.000 C 
ATOM     16  C   UNL     1      -4.210  12.662  22.028  0.00  0.00    +0.000 C 
ENDBRANCH   1  13
BRANCH   4  17
ATOM     17  C   UNL     1       0.949   9.250  19.040  0.00  0.00    +0.000 A 
ATOM     18  C   UNL     1       1.705   8.815  17.933  0.00  0.00    +0.000 A 
ATOM     19  C   UNL     1       2.568   7.720  18.014  0.00  0.00    +0.000 A 
ATOM     20  C   UNL     1       2.719   7.032  19.215  0.00  0.00    +0.000 A 
ATOM     21  C   UNL     1       3.635   5.850  19.314  0.00  0.00    +0.000 C 
ATOM     22  C   UNL     1       1.994   7.461  20.333  0.00  0.00    +0.000 A 
ATOM     23  C   UNL     1       1.106   8.554  20.263  0.00  0.00    +0.000 A 
ATOM     24  C   UNL     1       0.355   8.933  21.515  0.00  0.00    +0.000 C 
ENDBRANCH   4  17
TORSDOF 2
ENDMDL
MODEL 3
REMARK VINA RESULT:      -7.0      1.466      2.164
REMARK  Name = 
REMARK  5 active torsions:
REMARK  status: ('A' for Active; 'I' for Inactive)
REMARK    1  A    between atoms: C_1  and  C_2
REMARK    2  A    between atoms: C_8  and  C_10
REMARK    3  A    between atoms: C_13  and  C_14
REMARK    4  A    between atoms: C_17  and  C_18
REMARK    5  A    between atoms: C_20  and  C_21
REMARK                            x       y       z     vdW  Elec       q    Type
REMARK                         _______ _______ _______ _____ _____    ______ ____
ROOT
ATOM      1  C   UNL     1       0.266  10.468  20.215  0.00  0.00    +0.000 A 
ATOM      2  C   UNL     1       0.493  10.399  21.576  0.00  0.00    +0.000 A 
ATOM      3  S   UNL     1       1.309   8.958  21.977  0.00  0.00    +0.000 S 
ATOM      4  C   UNL     1       1.323   8.492  20.313  0.00  0.00    +0.000 A 
ATOM      5  N   UNL     1       0.779   9.382  19.504  0.00  0.00    +0.000 NA
ENDROOT
BRANCH   1  13
ATOM      6  C   UNL     1       3.894  16.019  17.918  0.00  0.00    +0.000 C 
ATOM      7  C   UNL     1       2.424  16.176  18.201  0.00  0.00    +0.000 C 
ATOM      8  O   UNL     1       1.816  17.160  17.788  0.00  0.00    +0.000 OA
ATOM      9  N   UNL     1       1.800  15.150  18.892  0.00  0.00    +0.000 N 
ATOM     10  C   UNL     1       0.342  15.170  19.059  0.00  0.00    +0.000 C 
ATOM     11  C   UNL     1      -0.286  13.861  18.557  0.00  0.00    +0.000 C 
ATOM     12  N   UNL     1       0.386  12.691  19.141  0.00  0.00    +0.000 N 
ATOM     13  C   UNL     1      -0.392  11.626  19.589  0.00  0.00    +0.000 C 
ATOM     14  O   UNL     1      -1.617  11.634  19.464  0.00  0.00    +0.000 OA
ATOM     15  C   UNL     1       1.844  12.682  18.953  0.00  0.00    +0.000 C 
ATOM     16  C   UNL     1       2.467  13.980  19.481  0.00  0.00    +0.000 C 
ENDBRANCH   1  13
BRANCH   4  17
ATOM     17  C   UNL     1       1.920   7.202  19.886  0.00  0.00    +0.000 A 
ATOM     18  C   UNL     1       1.764   6.053  20.686  0.00  0.00    +0.000 A 
ATOM     19  C   UNL     1       2.319   4.823  20.326  0.00  0.00    +0.000 A 
ATOM     20  C   UNL     1       3.035   4.696  19.139  0.00  0.00    +0.000 A 
ATOM     21  C   UNL     1       3.644   3.385  18.744  0.00  0.00    +0.000 C 
ATOM     22  C   UNL     1       3.184   5.821  18.318  0.00  0.00    +0.000 A 
ATOM     23  C   UNL     1       2.644   7.073  18.676  0.00  0.00    +0.000 A 
ATOM     24  C   UNL     1       2.869   8.231  17.737  0.00  0.00    +0.000 C 
ENDBRANCH   4  17
TORSDOF 2
ENDMDL
MODEL 4
REMARK VINA RESULT:      -6.9      3.717      4.888
REMARK  Name = 
REMARK  5 active torsions:
REMARK  status: ('A' for Active; 'I' for Inactive)
REMARK    1  A    between atoms: C_1  and  C_2
REMARK    2  A    between atoms: C_8  and  C_10
REMARK    3  A    between atoms: C_13  and  C_14
REMARK    4  A    between atoms: C_17  and  C_18
REMARK    5  A    between atoms: C_20  and  C_21
REMARK                            x       y       z     vdW  Elec       q    Type
REMARK                         _______ _______ _______ _____ _____    ______ ____
ROOT
ATOM      1  C   UNL     1      -0.847  11.546  18.952  0.00  0.00    +0.000 A 
ATOM      2  C   UNL     1       0.204  12.412  18.717  0.00  0.00    +0.000 A 
ATOM      3  S   UNL     1       1.677  11.560  18.622  0.00  0.00    +0.000 S 
ATOM      4  C   UNL     1       0.843  10.071  18.898  0.00  0.00    +0.000 A 
ATOM      5  N   UNL     1      -0.464  10.204  19.019  0.00  0.00    +0.000 NA
ENDROOT
BRANCH   1  13
ATOM      6  C   UNL     1      -3.399  14.517  24.775  0.00  0.00    +0.000 C 
ATOM      7  C   UNL     1      -4.359  13.930  23.775  0.00  0.00    +0.000 C 
ATOM      8  O   UNL     1      -5.556  14.200  23.835  0.00  0.00    +0.000 OA
ATOM      9  N   UNL     1      -3.824  13.131  22.779  0.00  0.00    +0.000 N 
ATOM     10  C   UNL     1      -4.685  12.660  21.686  0.00  0.00    +0.000 C 
ATOM     11  C   UNL     1      -4.086  13.028  20.320  0.00  0.00    +0.000 C 
ATOM     12  N   UNL     1      -2.681  12.606  20.224  0.00  0.00    +0.000 N 
ATOM     13  C   UNL     1      -2.239  12.011  19.045  0.00  0.00    +0.000 C 
ATOM     14  O   UNL     1      -2.990  11.876  18.078  0.00  0.00    +0.000 OA
ATOM     15  C   UNL     1      -1.833  13.097  21.320  0.00  0.00    +0.000 C 
ATOM     16  C   UNL     1      -2.422  12.703  22.680  0.00  0.00    +0.000 C 
ENDBRANCH   1  13
BRANCH   4  17
ATOM     17  C   UNL     1       1.580   8.785  18.968  0.00  0.00    +0.000 A 
ATOM     18  C   UNL     1       2.274   8.307  17.838  0.00  0.00    +0.000 A 
ATOM     19  C   UNL     1       2.972   7.097  17.859  0.00  0.00    +0.000 A 
ATOM     20  C   UNL     1       3.014   6.331  19.020  0.00  0.00    +0.000 A 
ATOM     21  C   UNL     1       3.752   5.026  19.055  0.00  0.00    +0.000 C 
ATOM     22  C   UNL     1       2.350   6.798  20.161  0.00  0.00    +0.000 A 
ATOM     23  C   UNL     1       1.628   8.009  20.151  0.00  0.00    +0.000 A 
ATOM     24  C   UNL     1       0.930   8.423  21.422  0.00  0.00    +0.000 C 
ENDBRANCH   4  17
TORSDOF 2
ENDMDL
MODEL 5
REMARK VINA RESULT:      -6.9      3.349      3.970
REMARK  Name = 
REMARK  5 active torsions:
REMARK  status: ('A' for Active; 'I' for Inactive)
REMARK    1  A    between atoms: C_1  and  C_2
REMARK    2  A    between atoms: C_8  and  C_10
REMARK    3  A    between atoms: C_13  and  C_14
REMARK    4  A    between atoms: C_17  and  C_18
REMARK    5  A    between atoms: C_20  and  C_21
REMARK                            x       y       z     vdW  Elec       q    Type
REMARK                         _______ _______ _______ _____ _____    ______ ____
ROOT
ATOM      1  C   UNL     1       1.423   8.859  20.084  0.00  0.00    +0.000 A 
ATOM      2  C   UNL     1       1.198   9.687  19.001  0.00  0.00    +0.000 A 
ATOM      3  S   UNL     1       1.931   9.057  17.598  0.00  0.00    +0.000 S 
ATOM      4  C   UNL     1       2.517   7.704  18.502  0.00  0.00    +0.000 A 
ATOM      5  N   UNL     1       2.152   7.710  19.770  0.00  0.00    +0.000 NA
ENDROOT
BRANCH   1  13
ATOM      6  C   UNL     1      -4.191  12.973  20.983  0.00  0.00    +0.000 C 
ATOM      7  C   UNL     1      -3.262  12.743  22.145  0.00  0.00    +0.000 C 
ATOM      8  O   UNL     1      -3.614  13.037  23.285  0.00  0.00    +0.000 OA
ATOM      9  N   UNL     1      -2.041  12.149  21.871  0.00  0.00    +0.000 N 
ATOM     10  C   UNL     1      -1.161  11.756  22.978  0.00  0.00    +0.000 C 
ATOM     11  C   UNL     1      -0.770  10.274  22.867  0.00  0.00    +0.000 C 
ATOM     12  N   UNL     1      -0.254   9.959  21.527  0.00  0.00    +0.000 N 
ATOM     13  C   UNL     1       0.871   9.146  21.417  0.00  0.00    +0.000 C 
ATOM     14  O   UNL     1       1.407   8.659  22.414  0.00  0.00    +0.000 OA
ATOM     15  C   UNL     1      -1.154  10.349  20.433  0.00  0.00    +0.000 C 
ATOM     16  C   UNL     1      -1.519  11.835  20.534  0.00  0.00    +0.000 C 
ENDBRANCH   1  13
BRANCH   4  17
ATOM     17  C   UNL     1       3.337   6.651  17.854  0.00  0.00    +0.000 A 
ATOM     18  C   UNL     1       4.537   6.994  17.198  0.00  0.00    +0.000 A 
ATOM     19  C   UNL     1       5.333   6.036  16.567  0.00  0.00    +0.000 A 
ATOM     20  C   UNL     1       4.964   4.693  16.588  0.00  0.00    +0.000 A 
ATOM     21  C   UNL     1       5.804   3.655  15.908  0.00  0.00    +0.000 C 
ATOM     22  C   UNL     1       3.788   4.328  17.253  0.00  0.00    +0.000 A 
ATOM     23  C   UNL     1       2.965   5.285  17.880  0.00  0.00    +0.000 A 
ATOM     24  C   UNL     1       1.708   4.799  18.557  0.00  0.00    +0.000 C 
ENDBRANCH   4  17
TORSDOF 2
ENDMDL
MODEL 6
REMARK VINA RESULT:      -6.7      3.421      5.600
REMARK  Name = 
REMARK  5 active torsions:
REMARK  status: ('A' for Active; 'I' for Inactive)
REMARK    1  A    between atoms: C_1  and  C_2
REMARK    2  A    between atoms: C_8  and  C_10
REMARK    3  A    between atoms: C_13  and  C_14
REMARK    4  A    between atoms: C_17  and  C_18
REMARK    5  A    between atoms: C_20  and  C_21
REMARK                            x       y       z     vdW  Elec       q    Type
REMARK                         _______ _______ _______ _____ _____    ______ ____
ROOT
ATOM      1  C   UNL     1       3.155   4.144  19.379  0.00  0.00    +0.000 A 
ATOM      2  C   UNL     1       3.157   2.764  19.302  0.00  0.00    +0.000 A 
ATOM      3  S   UNL     1       4.125   2.236  18.002  0.00  0.00    +0.000 S 
ATOM      4  C   UNL     1       4.497   3.876  17.601  0.00  0.00    +0.000 A 
ATOM      5  N   UNL     1       3.955   4.761  18.416  0.00  0.00    +0.000 NA
ENDROOT
BRANCH   1  13
ATOM      6  C   UNL     1       0.338  10.477  18.283  0.00  0.00    +0.000 C 
ATOM      7  C   UNL     1       0.611  10.036  19.696  0.00  0.00    +0.000 C 
ATOM      8  O   UNL     1       0.110  10.641  20.641  0.00  0.00    +0.000 OA
ATOM      9  N   UNL     1       1.396   8.907  19.865  0.00  0.00    +0.000 N 
ATOM     10  C   UNL     1       1.566   8.337  21.207  0.00  0.00    +0.000 C 
ATOM     11  C   UNL     1       1.191   6.847  21.221  0.00  0.00    +0.000 C 
ATOM     12  N   UNL     1       1.878   6.115  20.148  0.00  0.00    +0.000 N 
ATOM     13  C   UNL     1       2.426   4.867  20.433  0.00  0.00    +0.000 C 
ATOM     14  O   UNL     1       2.306   4.357  21.547  0.00  0.00    +0.000 OA
ATOM     15  C   UNL     1       1.686   6.694  18.811  0.00  0.00    +0.000 C 
ATOM     16  C   UNL     1       2.089   8.174  18.797  0.00  0.00    +0.000 C 
ENDBRANCH   1  13
BRANCH   4  17
ATOM     17  C   UNL     1       5.366   4.200  16.443  0.00  0.00    +0.000 A 
ATOM     18  C   UNL     1       4.861   4.098  15.131  0.00  0.00    +0.000 A 
ATOM     19  C   UNL     1       5.649   4.384  14.014  0.00  0.00    +0.000 A 
ATOM     20  C   UNL     1       6.967   4.801  14.172  0.00  0.00    +0.000 A 
ATOM     21  C   UNL     1       7.827   5.103  12.982  0.00  0.00    +0.000 C 
ATOM     22  C   UNL     1       7.482   4.931  15.468  0.00  0.00    +0.000 A 
ATOM     23  C   UNL     1       6.705   4.630  16.605  0.00  0.00    +0.000 A 
ATOM     24  C   UNL     1       7.350   4.783  17.959  0.00  0.00    +0.000 C 
ENDBRANCH   4  17
TORSDOF 2
ENDMDL
MODEL 7
REMARK VINA RESULT:      -6.7      3.670      8.316
REMARK  Name = 
REMARK  5 active torsions:
REMARK  status: ('A' for Active; 'I' for Inactive)
REMARK    1  A    between atoms: C_1  and  C_2
REMARK    2  A    between atoms: C_8  and  C_10
REMARK    3  A    between atoms: C_13  and  C_14
REMARK    4  A    between atoms: C_17  and  C_18
REMARK    5  A    between atoms: C_20  and  C_21
REMARK                            x       y       z     vdW  Elec       q    Type
REMARK                         _______ _______ _______ _____ _____    ______ ____
ROOT
ATOM      1  C   UNL     1       0.218  10.086  19.878  0.00  0.00    +0.000 A 
ATOM      2  C   UNL     1       0.852  11.290  19.635  0.00  0.00    +0.000 A 
ATOM      3  S   UNL     1      -0.238  12.420  18.971  0.00  0.00    +0.000 S 
ATOM      4  C   UNL     1      -1.508  11.248  19.039  0.00  0.00    +0.000 A 
ATOM      5  N   UNL     1      -1.142  10.093  19.561  0.00  0.00    +0.000 NA
ENDROOT
BRANCH   1  13
ATOM      6  C   UNL     1       4.807   6.189  16.272  0.00  0.00    +0.000 C 
ATOM      7  C   UNL     1       4.177   5.613  17.512  0.00  0.00    +0.000 C 
ATOM      8  O   UNL     1       4.649   4.605  18.033  0.00  0.00    +0.000 OA
ATOM      9  N   UNL     1       3.096   6.293  18.047  0.00  0.00    +0.000 N 
ATOM     10  C   UNL     1       2.541   5.872  19.339  0.00  0.00    +0.000 C 
ATOM     11  C   UNL     1       2.487   7.050  20.323  0.00  0.00    +0.000 C 
ATOM     12  N   UNL     1       1.827   8.217  19.719  0.00  0.00    +0.000 N 
ATOM     13  C   UNL     1       0.917   8.942  20.485  0.00  0.00    +0.000 C 
ATOM     14  O   UNL     1       0.694   8.648  21.660  0.00  0.00    +0.000 OA
ATOM     15  C   UNL     1       2.405   8.632  18.433  0.00  0.00    +0.000 C 
ATOM     16  C   UNL     1       2.430   7.458  17.447  0.00  0.00    +0.000 C 
ENDBRANCH   1  13
BRANCH   4  17
ATOM     17  C   UNL     1      -2.872  11.573  18.554  0.00  0.00    +0.000 A 
ATOM     18  C   UNL     1      -3.794  12.206  19.412  0.00  0.00    +0.000 A 
ATOM     19  C   UNL     1      -5.091  12.519  18.999  0.00  0.00    +0.000 A 
ATOM     20  C   UNL     1      -5.505  12.226  17.702  0.00  0.00    +0.000 A 
ATOM     21  C   UNL     1      -6.896  12.549  17.247  0.00  0.00    +0.000 C 
ATOM     22  C   UNL     1      -4.597  11.617  16.827  0.00  0.00    +0.000 A 
ATOM     23  C   UNL     1      -3.290  11.280  17.234  0.00  0.00    +0.000 A 
ATOM     24  C   UNL     1      -2.389  10.611  16.227  0.00  0.00    +0.000 C 
ENDBRANCH   4  17
TORSDOF 2
ENDMDL
MODEL 8
REMARK VINA RESULT:      -6.7      2.354      3.597
REMARK  Name = 
REMARK  5 active torsions:
REMARK  status: ('A' for Active; 'I' for Inactive)
REMARK    1  A    between atoms: C_1  and  C_2
REMARK    2  A    between atoms: C_8  and  C_10
REMARK    3  A    between atoms: C_13  and  C_14
REMARK    4  A    between atoms: C_17  and  C_18
REMARK    5  A    between atoms: C_20  and  C_21
REMARK                            x       y       z     vdW  Elec       q    Type
REMARK                         _______ _______ _______ _____ _____    ______ ____
ROOT
ATOM      1  C   UNL     1      -0.244  12.797  19.046  0.00  0.00    +0.000 A 
ATOM      2  C   UNL     1      -1.355  12.309  18.385  0.00  0.00    +0.000 A 
ATOM      3  S   UNL     1      -1.210  10.631  18.122  0.00  0.00    +0.000 S 
ATOM      4  C   UNL     1       0.331  10.633  18.905  0.00  0.00    +0.000 A 
ATOM      5  N   UNL     1       0.695  11.815  19.365  0.00  0.00    +0.000 NA
ENDROOT
BRANCH   1  13
ATOM      6  C   UNL     1       5.834  16.272  18.576  0.00  0.00    +0.000 C 
ATOM      7  C   UNL     1       4.760  16.803  19.487  0.00  0.00    +0.000 C 
ATOM      8  O   UNL     1       4.831  17.949  19.925  0.00  0.00    +0.000 OA
ATOM      9  N   UNL     1       3.689  15.967  19.755  0.00  0.00    +0.000 N 
ATOM     10  C   UNL     1       2.537  16.483  20.505  0.00  0.00    +0.000 C 
ATOM     11  C   UNL     1       1.230  16.249  19.731  0.00  0.00    +0.000 C 
ATOM     12  N   UNL     1       1.110  14.848  19.302  0.00  0.00    +0.000 N 
ATOM     13  C   UNL     1      -0.122  14.211  19.432  0.00  0.00    +0.000 C 
ATOM     14  O   UNL     1      -1.110  14.812  19.857  0.00  0.00    +0.000 OA
ATOM     15  C   UNL     1       2.267  14.354  18.542  0.00  0.00    +0.000 C 
ATOM     16  C   UNL     1       3.564  14.566  19.332  0.00  0.00    +0.000 C 
ENDBRANCH   1  13
BRANCH   4  17
ATOM     17  C   UNL     1       1.123   9.384  19.034  0.00  0.00    +0.000 A 
ATOM     18  C   UNL     1       1.876   8.911  17.941  0.00  0.00    +0.000 A 
ATOM     19  C   UNL     1       2.627   7.735  18.017  0.00  0.00    +0.000 A 
ATOM     20  C   UNL     1       2.664   7.001  19.199  0.00  0.00    +0.000 A 
ATOM     21  C   UNL     1       3.458   5.733  19.293  0.00  0.00    +0.000 C 
ATOM     22  C   UNL     1       1.940   7.466  20.304  0.00  0.00    +0.000 A 
ATOM     23  C   UNL     1       1.165   8.641  20.238  0.00  0.00    +0.000 A 
ATOM     24  C   UNL     1       0.405   9.055  21.473  0.00  0.00    +0.000 C 
ENDBRANCH   4  17
TORSDOF 2
ENDMDL
MODEL 9
REMARK VINA RESULT:      -6.6      2.486      4.009
REMARK  Name = 
REMARK  5 active torsions:
REMARK  status: ('A' for Active; 'I' for Inactive)
REMARK    1  A    between atoms: C_1  and  C_2
REMARK    2  A    between atoms: C_8  and  C_10
REMARK    3  A    between atoms: C_13  and  C_14
REMARK    4  A    between atoms: C_17  and  C_18
REMARK    5  A    between atoms: C_20  and  C_21
REMARK                            x       y       z     vdW  Elec       q    Type
REMARK                         _______ _______ _______ _____ _____    ______ ____
ROOT
ATOM      1  C   UNL     1       1.375   9.373  18.905  0.00  0.00    +0.000 A 
ATOM      2  C   UNL     1       1.251   8.749  20.132  0.00  0.00    +0.000 A 
ATOM      3  S   UNL     1       2.095   7.269  20.142  0.00  0.00    +0.000 S 
ATOM      4  C   UNL     1       2.590   7.530  18.507  0.00  0.00    +0.000 A 
ATOM      5  N   UNL     1       2.175   8.675  17.998  0.00  0.00    +0.000 NA
ENDROOT
BRANCH   1  13
ATOM      6  C   UNL     1      -5.559  10.224  18.240  0.00  0.00    +0.000 C 
ATOM      7  C   UNL     1      -4.638  11.264  17.660  0.00  0.00    +0.000 C 
ATOM      8  O   UNL     1      -5.078  12.361  17.323  0.00  0.00    +0.000 OA
ATOM      9  N   UNL     1      -3.293  10.943  17.578  0.00  0.00    +0.000 N 
ATOM     10  C   UNL     1      -2.326  11.970  17.171  0.00  0.00    +0.000 C 
ATOM     11  C   UNL     1      -1.199  12.102  18.207  0.00  0.00    +0.000 C 
ATOM     12  N   UNL     1      -0.612  10.792  18.524  0.00  0.00    +0.000 N 
ATOM     13  C   UNL     1       0.773  10.687  18.631  0.00  0.00    +0.000 C 
ATOM     14  O   UNL     1       1.499  11.674  18.507  0.00  0.00    +0.000 OA
ATOM     15  C   UNL     1      -1.594   9.781  18.941  0.00  0.00    +0.000 C 
ATOM     16  C   UNL     1      -2.701   9.635  17.890  0.00  0.00    +0.000 C 
ENDBRANCH   1  13
BRANCH   4  17
ATOM     17  C   UNL     1       3.421   6.529  17.792  0.00  0.00    +0.000 A 
ATOM     18  C   UNL     1       4.640   6.917  17.200  0.00  0.00    +0.000 A 
ATOM     19  C   UNL     1       5.446   6.009  16.510  0.00  0.00    +0.000 A 
ATOM     20  C   UNL     1       5.068   4.673  16.404  0.00  0.00    +0.000 A 
ATOM     21  C   UNL     1       5.919   3.690  15.659  0.00  0.00    +0.000 C 
ATOM     22  C   UNL     1       3.871   4.263  17.003  0.00  0.00    +0.000 A 
ATOM     23  C   UNL     1       3.038   5.170  17.689  0.00  0.00    +0.000 A 
ATOM     24  C   UNL     1       1.760   4.639  18.288  0.00  0.00    +0.000 C 
ENDBRANCH   4  17
TORSDOF 2
ENDMDL
