MODEL 1
REMARK VINA RESULT:      -7.9      0.000      0.000
REMARK  Name = 
REMARK  8 active torsions:
REMARK  status: ('A' for Active; 'I' for Inactive)
REMARK    1  A    between atoms: C_1  and  O_2
REMARK    2  A    between atoms: O_2  and  C_3
REMARK    3  A    between atoms: N_5  and  C_6
REMARK    4  A    between atoms: C_9  and  N_10
REMARK    5  A    between atoms: N_13  and  C_14
REMARK    6  A    between atoms: C_16  and  C_17
REMARK    7  A    between atoms: C_26  and  C_27
REMARK    8  A    between atoms: C_27  and  O_29
REMARK                            x       y       z     vdW  Elec       q    Type
REMARK                         _______ _______ _______ _____ _____    ______ ____
ROOT
ATOM      1  N   UNL     1       2.227   7.608  17.655  0.00  0.00    +0.000 N 
ATOM      2  C   UNL     1       1.707   8.568  18.493  0.00  0.00    +0.000 C 
ATOM      3  O   UNL     1       1.755   8.523  19.725  0.00  0.00    +0.000 OA
ATOM      4  N   UNL     1       1.193   9.676  17.861  0.00  0.00    +0.000 N 
ATOM      5  H   UNL     1       2.321   7.848  16.677  0.00  0.00    +0.000 HD
ATOM      6  H   UNL     1       0.616   9.478  17.053  0.00  0.00    +0.000 HD
ENDROOT
BRANCH   1  10
ATOM      7  C   UNL     1       4.199   4.045  18.908  0.00  0.00    +0.000 A 
ATOM      8  C   UNL     1       4.899   5.240  18.797  0.00  0.00    +0.000 A 
ATOM      9  C   UNL     1       4.253   6.415  18.417  0.00  0.00    +0.000 A 
ATOM     10  C   UNL     1       2.895   6.437  18.103  0.00  0.00    +0.000 A 
ATOM     11  C   UNL     1       2.181   5.237  18.219  0.00  0.00    +0.000 A 
ATOM     12  C   UNL     1       2.833   4.047  18.607  0.00  0.00    +0.000 A 
BRANCH   7  15
ATOM     13  C   UNL     1       4.563   2.136  20.447  0.00  0.00    +0.000 C 
ATOM     14  O   UNL     1       3.703   2.359  21.284  0.00  0.00    +0.000 OA
ATOM     15  N   UNL     1       4.830   2.850  19.303  0.00  0.00    +0.000 N 
ATOM     16  H   UNL     1       5.500   2.422  18.682  0.00  0.00    +0.000 HD
BRANCH  13  18
ATOM     17  C   UNL     1       5.707   0.680  21.855  0.00  0.00    +0.000 C 
ATOM     18  O   UNL     1       5.399   1.060  20.510  0.00  0.00    +0.000 OA
ENDBRANCH  13  18
ENDBRANCH   7  15
ENDBRANCH   1  10
BRANCH   4  19
ATOM     19  C   UNL     1       0.735  10.716  18.669  0.00  0.00    +0.000 A 
ATOM     20  S   UNL     1      -0.806  10.395  19.330  0.00  0.00    +0.000 S 
ATOM     21  C   UNL     1      -0.774  11.798  20.314  0.00  0.00    +0.000 A 
ATOM     22  C   UNL     1       0.366  12.530  20.051  0.00  0.00    +0.000 A 
ATOM     23  C   UNL     1       1.245  11.947  19.064  0.00  0.00    +0.000 A 
BRANCH  21  24
ATOM     24  C   UNL     1      -1.856  12.128  21.260  0.00  0.00    +0.000 A 
ATOM     25  C   UNL     1      -1.770  11.822  22.625  0.00  0.00    +0.000 A 
ATOM     26  C   UNL     1      -2.841  12.078  23.489  0.00  0.00    +0.000 A 
ATOM     27  C   UNL     1      -4.020  12.645  23.002  0.00  0.00    +0.000 A 
ATOM     28 CL   UNL     1      -5.311  12.906  24.119  0.00  0.00    +0.000 Cl
ATOM     29  C   UNL     1      -4.121  12.969  21.647  0.00  0.00    +0.000 A 
ATOM     30 CL   UNL     1      -5.546  13.670  20.966  0.00  0.00    +0.000 Cl
ATOM     31  C   UNL     1      -3.044  12.714  20.787  0.00  0.00    +0.000 A 
ENDBRANCH  21  24
BRANCH  23  32
ATOM     32  C   UNL     1       2.407  12.704  18.582  0.00  0.00    +0.000 C 
ATOM     33  O   UNL     1       2.910  13.598  19.255  0.00  0.00    +0.000 OA
BRANCH  32  34
ATOM     34  O   UNL     1       2.928  12.393  17.376  0.00  0.00    +0.000 OA
ATOM     35  H   UNL     1       3.778  11.910  17.488  0.00  0.00    +0.000 HD
ENDBRANCH  32  34
ENDBRANCH  23  32
ENDBRANCH   4  19
TORSDOF 7
ENDMDL
MODEL 2
REMARK VINA RESULT:      -7.8      5.619     11.052
REMARK  Name = 
REMARK  8 active torsions:
REMARK  status: ('A' for Active; 'I' for Inactive)
REMARK    1  A    between atoms: C_1  and  O_2
REMARK    2  A    between atoms: O_2  and  C_3
REMARK    3  A    between atoms: N_5  and  C_6
REMARK    4  A    between atoms: C_9  and  N_10
REMARK    5  A    between atoms: N_13  and  C_14
REMARK    6  A    between atoms: C_16  and  C_17
REMARK    7  A    between atoms: C_26  and  C_27
REMARK    8  A    between atoms: C_27  and  O_29
REMARK                            x       y       z     vdW  Elec       q    Type
REMARK                         _______ _______ _______ _____ _____    ______ ____
ROOT
ATOM      1  N   UNL     1       1.561   7.846  21.692  0.00  0.00    +0.000 N 
ATOM      2  C   UNL     1       1.743   7.156  20.515  0.00  0.00    +0.000 C 
ATOM      3  O   UNL     1       1.278   7.496  19.424  0.00  0.00    +0.000 OA
ATOM      4  N   UNL     1       2.586   6.072  20.600  0.00  0.00    +0.000 N 
ATOM      5  H   UNL     1       2.155   7.598  22.471  0.00  0.00    +0.000 HD
ATOM      6  H   UNL     1       2.439   5.479  21.406  0.00  0.00    +0.000 HD
ENDROOT
BRANCH   1  10
ATOM      7  C   UNL     1      -0.732  11.429  21.927  0.00  0.00    +0.000 A 
ATOM      8  C   UNL     1      -0.784  10.488  22.947  0.00  0.00    +0.000 A 
ATOM      9  C   UNL     1      -0.013   9.327  22.889  0.00  0.00    +0.000 A 
ATOM     10  C   UNL     1       0.813   9.049  21.802  0.00  0.00    +0.000 A 
ATOM     11  C   UNL     1       0.876   9.998  20.772  0.00  0.00    +0.000 A 
ATOM     12  C   UNL     1       0.098  11.174  20.831  0.00  0.00    +0.000 A 
BRANCH   7  15
ATOM     13  C   UNL     1      -1.293  13.668  22.831  0.00  0.00    +0.000 C 
ATOM     14  O   UNL     1      -0.401  13.806  23.652  0.00  0.00    +0.000 OA
ATOM     15  N   UNL     1      -1.492  12.613  21.972  0.00  0.00    +0.000 N 
ATOM     16  H   UNL     1      -2.217  12.756  21.284  0.00  0.00    +0.000 HD
BRANCH  13  18
ATOM     17  C   UNL     1      -3.395  14.453  23.446  0.00  0.00    +0.000 C 
ATOM     18  O   UNL     1      -2.248  14.616  22.606  0.00  0.00    +0.000 OA
ENDBRANCH  13  18
ENDBRANCH   7  15
ENDBRANCH   1  10
BRANCH   4  19
ATOM     19  C   UNL     1       2.873   5.394  19.415  0.00  0.00    +0.000 A 
ATOM     20  S   UNL     1       4.130   6.137  18.530  0.00  0.00    +0.000 S 
ATOM     21  C   UNL     1       4.190   4.868  17.380  0.00  0.00    +0.000 A 
ATOM     22  C   UNL     1       3.191   3.952  17.639  0.00  0.00    +0.000 A 
ATOM     23  C   UNL     1       2.378   4.254  18.795  0.00  0.00    +0.000 A 
BRANCH  21  24
ATOM     24  C   UNL     1       5.172   4.839  16.281  0.00  0.00    +0.000 A 
ATOM     25  C   UNL     1       6.422   5.465  16.383  0.00  0.00    +0.000 A 
ATOM     26  C   UNL     1       7.307   5.487  15.299  0.00  0.00    +0.000 A 
ATOM     27  C   UNL     1       6.956   4.882  14.090  0.00  0.00    +0.000 A 
ATOM     28 CL   UNL     1       8.085   4.974  12.785  0.00  0.00    +0.000 Cl
ATOM     29  C   UNL     1       5.720   4.243  13.972  0.00  0.00    +0.000 A 
ATOM     30 CL   UNL     1       5.211   3.476  12.509  0.00  0.00    +0.000 Cl
ATOM     31  C   UNL     1       4.840   4.221  15.062  0.00  0.00    +0.000 A 
ENDBRANCH  21  24
BRANCH  23  32
ATOM     32  C   UNL     1       1.187   3.444  19.083  0.00  0.00    +0.000 C 
ATOM     33  O   UNL     1       0.765   2.622  18.277  0.00  0.00    +0.000 OA
BRANCH  32  34
ATOM     34  O   UNL     1       0.562   3.612  20.267  0.00  0.00    +0.000 OA
ATOM     35  H   UNL     1       0.378   4.566  20.422  0.00  0.00    +0.000 HD
ENDBRANCH  32  34
ENDBRANCH  23  32
ENDBRANCH   4  19
TORSDOF 7
ENDMDL
MODEL 3
REMARK VINA RESULT:      -7.6      5.576     11.107
REMARK  Name = 
REMARK  8 active torsions:
REMARK  status: ('A' for Active; 'I' for Inactive)
REMARK    1  A    between atoms: C_1  and  O_2
REMARK    2  A    between atoms: O_2  and  C_3
REMARK    3  A    between atoms: N_5  and  C_6
REMARK    4  A    between atoms: C_9  and  N_10
REMARK    5  A    between atoms: N_13  and  C_14
REMARK    6  A    between atoms: C_16  and  C_17
REMARK    7  A    between atoms: C_26  and  C_27
REMARK    8  A    between atoms: C_27  and  O_29
REMARK                            x       y       z     vdW  Elec       q    Type
REMARK                         _______ _______ _______ _____ _____    ______ ____
ROOT
ATOM      1  N   UNL     1       1.801   7.491  21.312  0.00  0.00    +0.000 N 
ATOM      2  C   UNL     1       2.074   6.739  20.192  0.00  0.00    +0.000 C 
ATOM      3  O   UNL     1       1.701   7.022  19.050  0.00  0.00    +0.000 OA
ATOM      4  N   UNL     1       2.899   5.659  20.402  0.00  0.00    +0.000 N 
ATOM      5  H   UNL     1       2.328   7.284  22.149  0.00  0.00    +0.000 HD
ATOM      6  H   UNL     1       2.683   5.110  21.225  0.00  0.00    +0.000 HD
ENDROOT
BRANCH   1  10
ATOM      7  C   UNL     1      -0.375  11.154  21.350  0.00  0.00    +0.000 A 
ATOM      8  C   UNL     1       0.273  10.727  20.197  0.00  0.00    +0.000 A 
ATOM      9  C   UNL     1       0.961   9.515  20.170  0.00  0.00    +0.000 A 
ATOM     10  C   UNL     1       1.055   8.700  21.297  0.00  0.00    +0.000 A 
ATOM     11  C   UNL     1       0.398   9.121  22.461  0.00  0.00    +0.000 A 
ATOM     12  C   UNL     1      -0.301  10.346  22.489  0.00  0.00    +0.000 A 
BRANCH   7  15
ATOM     13  C   UNL     1      -0.609  13.567  21.869  0.00  0.00    +0.000 C 
ATOM     14  O   UNL     1       0.515  13.818  22.271  0.00  0.00    +0.000 OA
ATOM     15  N   UNL     1      -1.086  12.368  21.393  0.00  0.00    +0.000 N 
ATOM     16  H   UNL     1      -2.011  12.408  20.991  0.00  0.00    +0.000 HD
BRANCH  13  18
ATOM     17  C   UNL     1      -2.905  13.940  21.911  0.00  0.00    +0.000 C 
ATOM     18  O   UNL     1      -1.596  14.505  21.788  0.00  0.00    +0.000 OA
ENDBRANCH  13  18
ENDBRANCH   7  15
ENDBRANCH   1  10
BRANCH   4  19
ATOM     19  C   UNL     1       3.277   4.918  19.283  0.00  0.00    +0.000 A 
ATOM     20  S   UNL     1       4.224   5.828  18.191  0.00  0.00    +0.000 S 
ATOM     21  C   UNL     1       4.545   4.468  17.198  0.00  0.00    +0.000 A 
ATOM     22  C   UNL     1       3.849   3.371  17.666  0.00  0.00    +0.000 A 
ATOM     23  C   UNL     1       3.066   3.613  18.855  0.00  0.00    +0.000 A 
BRANCH  21  24
ATOM     24  C   UNL     1       5.422   4.539  16.015  0.00  0.00    +0.000 A 
ATOM     25  C   UNL     1       6.646   5.221  16.036  0.00  0.00    +0.000 A 
ATOM     26  C   UNL     1       7.424   5.337  14.879  0.00  0.00    +0.000 A 
ATOM     27  C   UNL     1       6.991   4.772  13.677  0.00  0.00    +0.000 A 
ATOM     28 CL   UNL     1       7.989   4.980  12.283  0.00  0.00    +0.000 Cl
ATOM     29  C   UNL     1       5.780   4.078  13.639  0.00  0.00    +0.000 A 
ATOM     30 CL   UNL     1       5.174   3.353  12.192  0.00  0.00    +0.000 Cl
ATOM     31  C   UNL     1       5.006   3.961  14.802  0.00  0.00    +0.000 A 
ENDBRANCH  21  24
BRANCH  23  32
ATOM     32  C   UNL     1       2.160   2.572  19.358  0.00  0.00    +0.000 C 
ATOM     33  O   UNL     1       1.588   2.691  20.436  0.00  0.00    +0.000 OA
BRANCH  32  34
ATOM     34  O   UNL     1       1.954   1.473  18.603  0.00  0.00    +0.000 OA
ATOM     35  H   UNL     1       1.013   1.426  18.320  0.00  0.00    +0.000 HD
ENDBRANCH  32  34
ENDBRANCH  23  32
ENDBRANCH   4  19
TORSDOF 7
ENDMDL
MODEL 4
REMARK VINA RESULT:      -7.6      5.695     11.151
REMARK  Name = 
REMARK  8 active torsions:
REMARK  status: ('A' for Active; 'I' for Inactive)
REMARK    1  A    between atoms: C_1  and  O_2
REMARK    2  A    between atoms: O_2  and  C_3
REMARK    3  A    between atoms: N_5  and  C_6
REMARK    4  A    between atoms: C_9  and  N_10
REMARK    5  A    between atoms: N_13  and  C_14
REMARK    6  A    between atoms: C_16  and  C_17
REMARK    7  A    between atoms: C_26  and  C_27
REMARK    8  A    between atoms: C_27  and  O_29
REMARK                            x       y       z     vdW  Elec       q    Type
REMARK                         _______ _______ _______ _____ _____    ______ ____
ROOT
ATOM      1  N   UNL     1       1.986   7.663  21.042  0.00  0.00    +0.000 N 
ATOM      2  C   UNL     1       2.168   6.838  19.956  0.00  0.00    +0.000 C 
ATOM      3  O   UNL     1       1.615   6.985  18.863  0.00  0.00    +0.000 OA
ATOM      4  N   UNL     1       3.113   5.852  20.126  0.00  0.00    +0.000 N 
ATOM      5  H   UNL     1       2.641   7.576  21.806  0.00  0.00    +0.000 HD
ATOM      6  H   UNL     1       3.066   5.364  21.011  0.00  0.00    +0.000 HD
ENDROOT
BRANCH   1  10
ATOM      7  C   UNL     1      -0.520  11.108  21.139  0.00  0.00    +0.000 A 
ATOM      8  C   UNL     1       0.307  10.865  20.050  0.00  0.00    +0.000 A 
ATOM      9  C   UNL     1       1.107   9.724  19.999  0.00  0.00    +0.000 A 
ATOM     10  C   UNL     1       1.134   8.800  21.043  0.00  0.00    +0.000 A 
ATOM     11  C   UNL     1       0.297   9.036  22.142  0.00  0.00    +0.000 A 
ATOM     12  C   UNL     1      -0.514  10.189  22.194  0.00  0.00    +0.000 A 
BRANCH   7  15
ATOM     13  C   UNL     1      -2.370  12.551  20.340  0.00  0.00    +0.000 C 
ATOM     14  O   UNL     1      -2.794  11.877  19.415  0.00  0.00    +0.000 OA
ATOM     15  N   UNL     1      -1.345  12.247  21.204  0.00  0.00    +0.000 N 
ATOM     16  H   UNL     1      -1.238  12.885  21.978  0.00  0.00    +0.000 HD
BRANCH  13  18
ATOM     17  C   UNL     1      -4.161  13.610  21.380  0.00  0.00    +0.000 C 
ATOM     18  O   UNL     1      -2.913  13.751  20.694  0.00  0.00    +0.000 OA
ENDBRANCH  13  18
ENDBRANCH   7  15
ENDBRANCH   1  10
BRANCH   4  19
ATOM     19  C   UNL     1       3.399   5.047  19.023  0.00  0.00    +0.000 A 
ATOM     20  S   UNL     1       4.324   5.865  17.844  0.00  0.00    +0.000 S 
ATOM     21  C   UNL     1       4.534   4.450  16.900  0.00  0.00    +0.000 A 
ATOM     22  C   UNL     1       3.818   3.407  17.452  0.00  0.00    +0.000 A 
ATOM     23  C   UNL     1       3.110   3.736  18.668  0.00  0.00    +0.000 A 
BRANCH  21  24
ATOM     24  C   UNL     1       5.349   4.429  15.671  0.00  0.00    +0.000 A 
ATOM     25  C   UNL     1       6.631   4.993  15.619  0.00  0.00    +0.000 A 
ATOM     26  C   UNL     1       7.354   5.027  14.422  0.00  0.00    +0.000 A 
ATOM     27  C   UNL     1       6.806   4.498  13.251  0.00  0.00    +0.000 A 
ATOM     28 CL   UNL     1       7.743   4.601  11.804  0.00  0.00    +0.000 Cl
ATOM     29  C   UNL     1       5.534   3.921  13.285  0.00  0.00    +0.000 A 
ATOM     30 CL   UNL     1       4.786   3.248  11.881  0.00  0.00    +0.000 Cl
ATOM     31  C   UNL     1       4.816   3.886  14.488  0.00  0.00    +0.000 A 
ENDBRANCH  21  24
BRANCH  23  32
ATOM     32  C   UNL     1       2.188   2.759  19.264  0.00  0.00    +0.000 C 
ATOM     33  O   UNL     1       1.495   3.046  20.234  0.00  0.00    +0.000 OA
BRANCH  32  34
ATOM     34  O   UNL     1       2.107   1.529  18.716  0.00  0.00    +0.000 OA
ATOM     35  H   UNL     1       2.881   1.364  18.132  0.00  0.00    +0.000 HD
ENDBRANCH  32  34
ENDBRANCH  23  32
ENDBRANCH   4  19
TORSDOF 7
ENDMDL
MODEL 5
REMARK VINA RESULT:      -7.4      5.668     11.024
REMARK  Name = 
REMARK  8 active torsions:
REMARK  status: ('A' for Active; 'I' for Inactive)
REMARK    1  A    between atoms: C_1  and  O_2
REMARK    2  A    between atoms: O_2  and  C_3
REMARK    3  A    between atoms: N_5  and  C_6
REMARK    4  A    between atoms: C_9  and  N_10
REMARK    5  A    between atoms: N_13  and  C_14
REMARK    6  A    between atoms: C_16  and  C_17
REMARK    7  A    between atoms: C_26  and  C_27
REMARK    8  A    between atoms: C_27  and  O_29
REMARK                            x       y       z     vdW  Elec       q    Type
REMARK                         _______ _______ _______ _____ _____    ______ ____
ROOT
ATOM      1  N   UNL     1       1.557   7.982  21.678  0.00  0.00    +0.000 N 
ATOM      2  C   UNL     1       1.752   7.291  20.503  0.00  0.00    +0.000 C 
ATOM      3  O   UNL     1       1.344   7.658  19.398  0.00  0.00    +0.000 OA
ATOM      4  N   UNL     1       2.542   6.170  20.612  0.00  0.00    +0.000 N 
ATOM      5  H   UNL     1       2.109   7.704  22.477  0.00  0.00    +0.000 HD
ATOM      6  H   UNL     1       2.338   5.579  21.409  0.00  0.00    +0.000 HD
ENDROOT
BRANCH   1  10
ATOM      7  C   UNL     1      -0.492  11.700  22.049  0.00  0.00    +0.000 A 
ATOM      8  C   UNL     1       0.399  11.484  21.005  0.00  0.00    +0.000 A 
ATOM      9  C   UNL     1       1.050  10.259  20.861  0.00  0.00    +0.000 A 
ATOM     10  C   UNL     1       0.860   9.217  21.768  0.00  0.00    +0.000 A 
ATOM     11  C   UNL     1      -0.043   9.425  22.819  0.00  0.00    +0.000 A 
ATOM     12  C   UNL     1      -0.704  10.664  22.964  0.00  0.00    +0.000 A 
BRANCH   7  15
ATOM     13  C   UNL     1      -2.532  13.090  22.279  0.00  0.00    +0.000 C 
ATOM     14  O   UNL     1      -3.391  12.223  22.292  0.00  0.00    +0.000 OA
ATOM     15  N   UNL     1      -1.169  12.924  22.204  0.00  0.00    +0.000 N 
ATOM     16  H   UNL     1      -0.630  13.768  22.335  0.00  0.00    +0.000 HD
BRANCH  13  18
ATOM     17  C   UNL     1      -3.416  14.952  21.200  0.00  0.00    +0.000 C 
ATOM     18  O   UNL     1      -2.816  14.419  22.386  0.00  0.00    +0.000 OA
ENDBRANCH  13  18
ENDBRANCH   7  15
ENDBRANCH   1  10
BRANCH   4  19
ATOM     19  C   UNL     1       2.843   5.486  19.435  0.00  0.00    +0.000 A 
ATOM     20  S   UNL     1       4.091   6.240  18.547  0.00  0.00    +0.000 S 
ATOM     21  C   UNL     1       4.174   4.962  17.408  0.00  0.00    +0.000 A 
ATOM     22  C   UNL     1       3.188   4.033  17.673  0.00  0.00    +0.000 A 
ATOM     23  C   UNL     1       2.367   4.333  18.823  0.00  0.00    +0.000 A 
BRANCH  21  24
ATOM     24  C   UNL     1       5.160   4.938  16.313  0.00  0.00    +0.000 A 
ATOM     25  C   UNL     1       6.371   5.640  16.386  0.00  0.00    +0.000 A 
ATOM     26  C   UNL     1       7.256   5.662  15.302  0.00  0.00    +0.000 A 
ATOM     27  C   UNL     1       6.947   4.981  14.123  0.00  0.00    +0.000 A 
ATOM     28 CL   UNL     1       8.073   5.075  12.817  0.00  0.00    +0.000 Cl
ATOM     29  C   UNL     1       5.751   4.265  14.036  0.00  0.00    +0.000 A 
ATOM     30 CL   UNL     1       5.293   3.399  12.612  0.00  0.00    +0.000 Cl
ATOM     31  C   UNL     1       4.869   4.243  15.125  0.00  0.00    +0.000 A 
ENDBRANCH  21  24
BRANCH  23  32
ATOM     32  C   UNL     1       1.187   3.508  19.114  0.00  0.00    +0.000 C 
ATOM     33  O   UNL     1       0.542   3.660  20.146  0.00  0.00    +0.000 OA
BRANCH  32  34
ATOM     34  O   UNL     1       0.813   2.573  18.216  0.00  0.00    +0.000 OA
ATOM     35  H   UNL     1       0.488   3.004  17.393  0.00  0.00    +0.000 HD
ENDBRANCH  32  34
ENDBRANCH  23  32
ENDBRANCH   4  19
TORSDOF 7
ENDMDL
MODEL 6
REMARK VINA RESULT:      -7.2      5.587     11.069
REMARK  Name = 
REMARK  8 active torsions:
REMARK  status: ('A' for Active; 'I' for Inactive)
REMARK    1  A    between atoms: C_1  and  O_2
REMARK    2  A    between atoms: O_2  and  C_3
REMARK    3  A    between atoms: N_5  and  C_6
REMARK    4  A    between atoms: C_9  and  N_10
REMARK    5  A    between atoms: N_13  and  C_14
REMARK    6  A    between atoms: C_16  and  C_17
REMARK    7  A    between atoms: C_26  and  C_27
REMARK    8  A    between atoms: C_27  and  O_29
REMARK                            x       y       z     vdW  Elec       q    Type
REMARK                         _______ _______ _______ _____ _____    ______ ____
ROOT
ATOM      1  N   UNL     1       1.583   7.517  21.341  0.00  0.00    +0.000 N 
ATOM      2  C   UNL     1       1.929   6.810  20.213  0.00  0.00    +0.000 C 
ATOM      3  O   UNL     1       1.788   7.219  19.057  0.00  0.00    +0.000 OA
ATOM      4  N   UNL     1       2.557   5.608  20.449  0.00  0.00    +0.000 N 
ATOM      5  H   UNL     1       1.935   7.180  22.227  0.00  0.00    +0.000 HD
ATOM      6  H   UNL     1       2.138   5.044  21.177  0.00  0.00    +0.000 HD
ENDROOT
BRANCH   1  10
ATOM      7  C   UNL     1      -0.158  11.404  21.186  0.00  0.00    +0.000 A 
ATOM      8  C   UNL     1      -0.378  10.573  22.277  0.00  0.00    +0.000 A 
ATOM      9  C   UNL     1       0.213   9.312  22.347  0.00  0.00    +0.000 A 
ATOM     10  C   UNL     1       1.020   8.822  21.321  0.00  0.00    +0.000 A 
ATOM     11  C   UNL     1       1.252   9.657  20.220  0.00  0.00    +0.000 A 
ATOM     12  C   UNL     1       0.656  10.934  20.149  0.00  0.00    +0.000 A 
BRANCH   7  15
ATOM     13  C   UNL     1      -1.965  12.984  20.567  0.00  0.00    +0.000 C 
ATOM     14  O   UNL     1      -2.801  12.207  20.135  0.00  0.00    +0.000 OA
ATOM     15  N   UNL     1      -0.734  12.685  21.102  0.00  0.00    +0.000 N 
ATOM     16  H   UNL     1      -0.251  13.467  21.519  0.00  0.00    +0.000 HD
BRANCH  13  18
ATOM     17  C   UNL     1      -0.938  15.070  20.623  0.00  0.00    +0.000 C 
ATOM     18  O   UNL     1      -2.164  14.332  20.625  0.00  0.00    +0.000 OA
ENDBRANCH  13  18
ENDBRANCH   7  15
ENDBRANCH   1  10
BRANCH   4  19
ATOM     19  C   UNL     1       3.007   4.895  19.338  0.00  0.00    +0.000 A 
ATOM     20  S   UNL     1       4.012   5.836  18.327  0.00  0.00    +0.000 S 
ATOM     21  C   UNL     1       4.402   4.501  17.325  0.00  0.00    +0.000 A 
ATOM     22  C   UNL     1       3.688   3.390  17.724  0.00  0.00    +0.000 A 
ATOM     23  C   UNL     1       2.832   3.600  18.869  0.00  0.00    +0.000 A 
BRANCH  21  24
ATOM     24  C   UNL     1       5.349   4.604  16.200  0.00  0.00    +0.000 A 
ATOM     25  C   UNL     1       6.541   5.335  16.294  0.00  0.00    +0.000 A 
ATOM     26  C   UNL     1       7.386   5.479  15.188  0.00  0.00    +0.000 A 
ATOM     27  C   UNL     1       7.053   4.895  13.964  0.00  0.00    +0.000 A 
ATOM     28 CL   UNL     1       8.128   5.139  12.635  0.00  0.00    +0.000 Cl
ATOM     29  C   UNL     1       5.876   4.152  13.853  0.00  0.00    +0.000 A 
ATOM     30 CL   UNL     1       5.392   3.400  12.374  0.00  0.00    +0.000 Cl
ATOM     31  C   UNL     1       5.035   4.007  14.965  0.00  0.00    +0.000 A 
ENDBRANCH  21  24
BRANCH  23  32
ATOM     32  C   UNL     1       1.904   2.542  19.292  0.00  0.00    +0.000 C 
ATOM     33  O   UNL     1       1.295   2.616  20.354  0.00  0.00    +0.000 OA
BRANCH  32  34
ATOM     34  O   UNL     1       1.722   1.479  18.482  0.00  0.00    +0.000 OA
ATOM     35  H   UNL     1       2.560   1.259  18.015  0.00  0.00    +0.000 HD
ENDBRANCH  32  34
ENDBRANCH  23  32
ENDBRANCH   4  19
TORSDOF 7
ENDMDL
MODEL 7
REMARK VINA RESULT:      -7.2      5.629     11.217
REMARK  Name = 
REMARK  8 active torsions:
REMARK  status: ('A' for Active; 'I' for Inactive)
REMARK    1  A    between atoms: C_1  and  O_2
REMARK    2  A    between atoms: O_2  and  C_3
REMARK    3  A    between atoms: N_5  and  C_6
REMARK    4  A    between atoms: C_9  and  N_10
REMARK    5  A    between atoms: N_13  and  C_14
REMARK    6  A    between atoms: C_16  and  C_17
REMARK    7  A    between atoms: C_26  and  C_27
REMARK    8  A    between atoms: C_27  and  O_29
REMARK                            x       y       z     vdW  Elec       q    Type
REMARK                         _______ _______ _______ _____ _____    ______ ____
ROOT
ATOM      1  N   UNL     1       2.114   7.681  20.891  0.00  0.00    +0.000 N 
ATOM      2  C   UNL     1       2.317   6.803  19.851  0.00  0.00    +0.000 C 
ATOM      3  O   UNL     1       1.722   6.845  18.771  0.00  0.00    +0.000 OA
ATOM      4  N   UNL     1       3.330   5.892  20.047  0.00  0.00    +0.000 N 
ATOM      5  H   UNL     1       2.798   7.685  21.635  0.00  0.00    +0.000 HD
ATOM      6  H   UNL     1       3.343   5.458  20.962  0.00  0.00    +0.000 HD
ENDROOT
BRANCH   1  10
ATOM      7  C   UNL     1      -0.708  10.867  20.694  0.00  0.00    +0.000 A 
ATOM      8  C   UNL     1      -0.532  10.150  21.870  0.00  0.00    +0.000 A 
ATOM      9  C   UNL     1       0.411   9.126  21.950  0.00  0.00    +0.000 A 
ATOM     10  C   UNL     1       1.191   8.760  20.853  0.00  0.00    +0.000 A 
ATOM     11  C   UNL     1       1.023   9.484  19.665  0.00  0.00    +0.000 A 
ATOM     12  C   UNL     1       0.070  10.522  19.584  0.00  0.00    +0.000 A 
BRANCH   7  15
ATOM     13  C   UNL     1      -1.360  13.257  20.610  0.00  0.00    +0.000 C 
ATOM     14  O   UNL     1      -0.262  13.788  20.639  0.00  0.00    +0.000 OA
ATOM     15  N   UNL     1      -1.646  11.913  20.597  0.00  0.00    +0.000 N 
ATOM     16  H   UNL     1      -2.617  11.686  20.442  0.00  0.00    +0.000 HD
BRANCH  13  18
ATOM     17  C   UNL     1      -3.050  14.293  21.827  0.00  0.00    +0.000 C 
ATOM     18  O   UNL     1      -2.524  13.964  20.537  0.00  0.00    +0.000 OA
ENDBRANCH  13  18
ENDBRANCH   7  15
ENDBRANCH   1  10
BRANCH   4  19
ATOM     19  C   UNL     1       3.633   5.039  18.987  0.00  0.00    +0.000 A 
ATOM     20  S   UNL     1       4.405   5.852  17.699  0.00  0.00    +0.000 S 
ATOM     21  C   UNL     1       4.703   4.398  16.842  0.00  0.00    +0.000 A 
ATOM     22  C   UNL     1       4.127   3.335  17.508  0.00  0.00    +0.000 A 
ATOM     23  C   UNL     1       3.459   3.683  18.740  0.00  0.00    +0.000 A 
BRANCH  21  24
ATOM     24  C   UNL     1       5.446   4.365  15.569  0.00  0.00    +0.000 A 
ATOM     25  C   UNL     1       6.743   4.883  15.451  0.00  0.00    +0.000 A 
ATOM     26  C   UNL     1       7.398   4.907  14.215  0.00  0.00    +0.000 A 
ATOM     27  C   UNL     1       6.766   4.414  13.072  0.00  0.00    +0.000 A 
ATOM     28 CL   UNL     1       7.624   4.503  11.574  0.00  0.00    +0.000 Cl
ATOM     29  C   UNL     1       5.478   3.883  13.171  0.00  0.00    +0.000 A 
ATOM     30 CL   UNL     1       4.628   3.257  11.803  0.00  0.00    +0.000 Cl
ATOM     31  C   UNL     1       4.828   3.858  14.412  0.00  0.00    +0.000 A 
ENDBRANCH  21  24
BRANCH  23  32
ATOM     32  C   UNL     1       2.674   2.669  19.458  0.00  0.00    +0.000 C 
ATOM     33  O   UNL     1       2.158   1.727  18.868  0.00  0.00    +0.000 OA
BRANCH  32  34
ATOM     34  O   UNL     1       2.536   2.786  20.795  0.00  0.00    +0.000 OA
ATOM     35  H   UNL     1       3.176   2.197  21.256  0.00  0.00    +0.000 HD
ENDBRANCH  32  34
ENDBRANCH  23  32
ENDBRANCH   4  19
TORSDOF 7
ENDMDL
MODEL 8
REMARK VINA RESULT:      -7.2      2.974      3.787
REMARK  Name = 
REMARK  8 active torsions:
REMARK  status: ('A' for Active; 'I' for Inactive)
REMARK    1  A    between atoms: C_1  and  O_2
REMARK    2  A    between atoms: O_2  and  C_3
REMARK    3  A    between atoms: N_5  and  C_6
REMARK    4  A    between atoms: C_9  and  N_10
REMARK    5  A    between atoms: N_13  and  C_14
REMARK    6  A    between atoms: C_16  and  C_17
REMARK    7  A    between atoms: C_26  and  C_27
REMARK    8  A    between atoms: C_27  and  O_29
REMARK                            x       y       z     vdW  Elec       q    Type
REMARK                         _______ _______ _______ _____ _____    ______ ____
ROOT
ATOM      1  N   UNL     1       2.598   7.695  18.877  0.00  0.00    +0.000 N 
ATOM      2  C   UNL     1       1.862   8.806  18.536  0.00  0.00    +0.000 C 
ATOM      3  O   UNL     1       1.777   9.268  17.395  0.00  0.00    +0.000 OA
ATOM      4  N   UNL     1       1.115   9.345  19.557  0.00  0.00    +0.000 N 
ATOM      5  H   UNL     1       2.427   7.285  19.785  0.00  0.00    +0.000 HD
ATOM      6  H   UNL     1       1.598   9.427  20.443  0.00  0.00    +0.000 HD
ENDROOT
BRANCH   1  10
ATOM      7  C   UNL     1       4.780   5.356  16.062  0.00  0.00    +0.000 A 
ATOM      8  C   UNL     1       4.938   6.736  16.109  0.00  0.00    +0.000 A 
ATOM      9  C   UNL     1       4.249   7.503  17.048  0.00  0.00    +0.000 A 
ATOM     10  C   UNL     1       3.357   6.928  17.952  0.00  0.00    +0.000 A 
ATOM     11  C   UNL     1       3.199   5.536  17.915  0.00  0.00    +0.000 A 
ATOM     12  C   UNL     1       3.897   4.759  16.966  0.00  0.00    +0.000 A 
BRANCH   7  15
ATOM     13  C   UNL     1       6.843   4.446  15.030  0.00  0.00    +0.000 C 
ATOM     14  O   UNL     1       7.691   4.942  15.754  0.00  0.00    +0.000 OA
ATOM     15  N   UNL     1       5.477   4.563  15.130  0.00  0.00    +0.000 N 
ATOM     16  H   UNL     1       4.953   3.967  14.506  0.00  0.00    +0.000 HD
BRANCH  13  18
ATOM     17  C   UNL     1       6.117   3.587  12.994  0.00  0.00    +0.000 C 
ATOM     18  O   UNL     1       7.147   3.622  13.987  0.00  0.00    +0.000 OA
ENDBRANCH  13  18
ENDBRANCH   7  15
ENDBRANCH   1  10
BRANCH   4  19
ATOM     19  C   UNL     1       0.282  10.418  19.241  0.00  0.00    +0.000 A 
ATOM     20  S   UNL     1      -1.362   9.964  19.163  0.00  0.00    +0.000 S 
ATOM     21  C   UNL     1      -1.891  11.582  18.962  0.00  0.00    +0.000 A 
ATOM     22  C   UNL     1      -0.801  12.423  18.865  0.00  0.00    +0.000 A 
ATOM     23  C   UNL     1       0.481  11.768  18.980  0.00  0.00    +0.000 A 
BRANCH  21  24
ATOM     24  C   UNL     1      -3.317  11.946  18.883  0.00  0.00    +0.000 A 
ATOM     25  C   UNL     1      -4.111  11.609  17.778  0.00  0.00    +0.000 A 
ATOM     26  C   UNL     1      -5.442  12.032  17.693  0.00  0.00    +0.000 A 
ATOM     27  C   UNL     1      -6.006  12.801  18.713  0.00  0.00    +0.000 A 
ATOM     28 CL   UNL     1      -7.645  13.311  18.528  0.00  0.00    +0.000 Cl
ATOM     29  C   UNL     1      -5.235  13.136  19.828  0.00  0.00    +0.000 A 
ATOM     30 CL   UNL     1      -5.856  14.086  21.131  0.00  0.00    +0.000 Cl
ATOM     31  C   UNL     1      -3.903  12.708  19.910  0.00  0.00    +0.000 A 
ENDBRANCH  21  24
BRANCH  23  32
ATOM     32  C   UNL     1       1.715  12.528  18.735  0.00  0.00    +0.000 C 
ATOM     33  O   UNL     1       2.150  13.320  19.563  0.00  0.00    +0.000 OA
BRANCH  32  34
ATOM     34  O   UNL     1       2.376  12.332  17.575  0.00  0.00    +0.000 OA
ATOM     35  H   UNL     1       3.333  12.529  17.692  0.00  0.00    +0.000 HD
ENDBRANCH  32  34
ENDBRANCH  23  32
ENDBRANCH   4  19
TORSDOF 7
ENDMDL
MODEL 9
REMARK VINA RESULT:      -7.2      3.262      4.080
REMARK  Name = 
REMARK  8 active torsions:
REMARK  status: ('A' for Active; 'I' for Inactive)
REMARK    1  A    between atoms: C_1  and  O_2
REMARK    2  A    between atoms: O_2  and  C_3
REMARK    3  A    between atoms: N_5  and  C_6
REMARK    4  A    between atoms: C_9  and  N_10
REMARK    5  A    between atoms: N_13  and  C_14
REMARK    6  A    between atoms: C_16  and  C_17
REMARK    7  A    between atoms: C_26  and  C_27
REMARK    8  A    between atoms: C_27  and  O_29
REMARK                            x       y       z     vdW  Elec       q    Type
REMARK                         _______ _______ _______ _____ _____    ______ ____
ROOT
ATOM      1  N   UNL     1       1.782   7.010  20.281  0.00  0.00    +0.000 N 
ATOM      2  C   UNL     1       1.366   8.320  20.205  0.00  0.00    +0.000 C 
ATOM      3  O   UNL     1       1.817   9.154  19.415  0.00  0.00    +0.000 OA
ATOM      4  N   UNL     1       0.310   8.643  21.025  0.00  0.00    +0.000 N 
ATOM      5  H   UNL     1       1.205   6.370  20.809  0.00  0.00    +0.000 HD
ATOM      6  H   UNL     1       0.377   8.286  21.970  0.00  0.00    +0.000 HD
ENDROOT
BRANCH   1  10
ATOM      7  C   UNL     1       4.838   5.414  17.777  0.00  0.00    +0.000 A 
ATOM      8  C   UNL     1       4.665   4.942  19.072  0.00  0.00    +0.000 A 
ATOM      9  C   UNL     1       3.648   5.439  19.886  0.00  0.00    +0.000 A 
ATOM     10  C   UNL     1       2.786   6.445  19.451  0.00  0.00    +0.000 A 
ATOM     11  C   UNL     1       2.950   6.921  18.143  0.00  0.00    +0.000 A 
ATOM     12  C   UNL     1       3.978   6.417  17.318  0.00  0.00    +0.000 A 
BRANCH   7  15
ATOM     13  C   UNL     1       6.937   5.621  16.475  0.00  0.00    +0.000 C 
ATOM     14  O   UNL     1       7.261   6.764  16.754  0.00  0.00    +0.000 OA
ATOM     15  N   UNL     1       5.850   4.916  16.935  0.00  0.00    +0.000 N 
ATOM     16  H   UNL     1       5.837   3.940  16.679  0.00  0.00    +0.000 HD
BRANCH  13  18
ATOM     17  C   UNL     1       7.123   4.725  14.336  0.00  0.00    +0.000 C 
ATOM     18  O   UNL     1       7.675   4.820  15.653  0.00  0.00    +0.000 OA
ENDBRANCH  13  18
ENDBRANCH   7  15
ENDBRANCH   1  10
BRANCH   4  19
ATOM     19  C   UNL     1      -0.206   9.935  20.920  0.00  0.00    +0.000 A 
ATOM     20  S   UNL     1      -0.118  10.791  22.395  0.00  0.00    +0.000 S 
ATOM     21  C   UNL     1      -0.653  12.254  21.679  0.00  0.00    +0.000 A 
ATOM     22  C   UNL     1      -0.977  12.038  20.355  0.00  0.00    +0.000 A 
ATOM     23  C   UNL     1      -0.768  10.684  19.895  0.00  0.00    +0.000 A 
BRANCH  21  24
ATOM     24  C   UNL     1      -0.758  13.515  22.435  0.00  0.00    +0.000 A 
ATOM     25  C   UNL     1       0.071  14.614  22.168  0.00  0.00    +0.000 A 
ATOM     26  C   UNL     1       0.003  15.773  22.950  0.00  0.00    +0.000 A 
ATOM     27  C   UNL     1      -0.897  15.854  24.015  0.00  0.00    +0.000 A 
ATOM     28 CL   UNL     1      -0.906  17.304  24.954  0.00  0.00    +0.000 Cl
ATOM     29  C   UNL     1      -1.739  14.775  24.289  0.00  0.00    +0.000 A 
ATOM     30 CL   UNL     1      -2.877  14.796  25.590  0.00  0.00    +0.000 Cl
ATOM     31  C   UNL     1      -1.670  13.618  23.501  0.00  0.00    +0.000 A 
ENDBRANCH  21  24
BRANCH  23  32
ATOM     32  C   UNL     1      -1.222  10.290  18.554  0.00  0.00    +0.000 C 
ATOM     33  O   UNL     1      -2.414  10.172  18.294  0.00  0.00    +0.000 OA
BRANCH  32  34
ATOM     34  O   UNL     1      -0.297  10.064  17.598  0.00  0.00    +0.000 OA
ATOM     35  H   UNL     1      -0.089   9.104  17.546  0.00  0.00    +0.000 HD
ENDBRANCH  32  34
ENDBRANCH  23  32
ENDBRANCH   4  19
TORSDOF 7
ENDMDL
