MODEL 1
REMARK VINA RESULT:      -8.4      0.000      0.000
REMARK  Name = 
REMARK  7 active torsions:
REMARK  status: ('A' for Active; 'I' for Inactive)
REMARK    1  A    between atoms: C_1  and  C_2
REMARK    2  A    between atoms: C_7  and  C_8
REMARK    3  A    between atoms: C_14  and  N_15
REMARK    4  A    between atoms: N_15  and  C_16
REMARK    5  A    between atoms: C_19  and  C_20
REMARK    6  A    between atoms: C_20  and  C_21
REMARK    7  A    between atoms: C_20  and  C_22
REMARK                            x       y       z     vdW  Elec       q    Type
REMARK                         _______ _______ _______ _____ _____    ______ ____
ROOT
ATOM      1  C   UNL     1       5.219   1.896  11.063  0.00  0.00    +0.000 C 
ATOM      2  C   UNL     1       5.840   2.921  11.961  0.00  0.00    +0.000 A 
ATOM      3  C   UNL     1       6.821   3.859  11.441  0.00  0.00    +0.000 A 
ATOM      4  C   UNL     1       7.430   4.757  12.246  0.00  0.00    +0.000 A 
ATOM      5  C   UNL     1       7.158   4.762  13.642  0.00  0.00    +0.000 A 
ATOM      6  N   UNL     1       7.627   5.529  14.601  0.00  0.00    +0.000 NA
ATOM      7  C   UNL     1       7.068   5.058  15.767  0.00  0.00    +0.000 A 
ATOM      8  C   UNL     1       6.216   3.977  15.523  0.00  0.00    +0.000 A 
ATOM      9  N   UNL     1       6.236   3.841  14.127  0.00  0.00    +0.000 N 
ATOM     10  C   UNL     1       5.536   2.985  13.267  0.00  0.00    +0.000 A 
ENDROOT
BRANCH   7  11
ATOM     11  C   UNL     1       7.430   5.655  17.045  0.00  0.00    +0.000 A 
ATOM     12  C   UNL     1       7.582   7.046  17.118  0.00  0.00    +0.000 A 
ATOM     13  C   UNL     1       7.949   7.617  18.326  0.00  0.00    +0.000 A 
ATOM     14  N   UNL     1       8.173   6.907  19.450  0.00  0.00    +0.000 NA
ATOM     15  C   UNL     1       8.049   5.567  19.351  0.00  0.00    +0.000 A 
ATOM     16  C   UNL     1       7.688   4.901  18.188  0.00  0.00    +0.000 A 
ENDBRANCH   7  11
BRANCH   8  17
ATOM     17  N   UNL     1       5.447   3.209  16.362  0.00  0.00    +0.000 N 
ATOM     18  H   UNL     1       5.843   2.351  16.739  0.00  0.00    +0.000 HD
BRANCH  17  19
ATOM     19  C   UNL     1       4.218   3.594  16.952  0.00  0.00    +0.000 A 
ATOM     20  C   UNL     1       4.025   4.898  17.435  0.00  0.00    +0.000 A 
ATOM     21  C   UNL     1       3.038   5.175  18.383  0.00  0.00    +0.000 A 
ATOM     22  C   UNL     1       2.178   4.167  18.835  0.00  0.00    +0.000 A 
ATOM     23  C   UNL     1       2.257   2.907  18.220  0.00  0.00    +0.000 A 
ATOM     24  C   UNL     1       3.271   2.622  17.292  0.00  0.00    +0.000 A 
BRANCH  22  25
ATOM     25  C   UNL     1       1.258   4.448  20.011  0.00  0.00    +0.000 C 
ATOM     26  C   UNL     1       1.254   3.310  21.029  0.00  0.00    +0.000 C 
ATOM     27  C   UNL     1       1.579   5.788  20.685  0.00  0.00    +0.000 C 
ENDBRANCH  22  25
ENDBRANCH  17  19
ENDBRANCH   8  17
TORSDOF 4
ENDMDL
MODEL 2
REMARK VINA RESULT:      -7.8      3.174      7.317
REMARK  Name = 
REMARK  7 active torsions:
REMARK  status: ('A' for Active; 'I' for Inactive)
REMARK    1  A    between atoms: C_1  and  C_2
REMARK    2  A    between atoms: C_7  and  C_8
REMARK    3  A    between atoms: C_14  and  N_15
REMARK    4  A    between atoms: N_15  and  C_16
REMARK    5  A    between atoms: C_19  and  C_20
REMARK    6  A    between atoms: C_20  and  C_21
REMARK    7  A    between atoms: C_20  and  C_22
REMARK                            x       y       z     vdW  Elec       q    Type
REMARK                         _______ _______ _______ _____ _____    ______ ____
ROOT
ATOM      1  C   UNL     1       4.915   1.221  20.514  0.00  0.00    +0.000 C 
ATOM      2  C   UNL     1       4.044   2.433  20.645  0.00  0.00    +0.000 A 
ATOM      3  C   UNL     1       2.822   2.381  21.429  0.00  0.00    +0.000 A 
ATOM      4  C   UNL     1       1.998   3.447  21.518  0.00  0.00    +0.000 A 
ATOM      5  C   UNL     1       2.291   4.636  20.793  0.00  0.00    +0.000 A 
ATOM      6  N   UNL     1       1.643   5.777  20.727  0.00  0.00    +0.000 NA
ATOM      7  C   UNL     1       2.343   6.556  19.833  0.00  0.00    +0.000 A 
ATOM      8  C   UNL     1       3.465   5.883  19.342  0.00  0.00    +0.000 A 
ATOM      9  N   UNL     1       3.452   4.660  20.028  0.00  0.00    +0.000 N 
ATOM     10  C   UNL     1       4.349   3.584  20.025  0.00  0.00    +0.000 A 
ENDROOT
BRANCH   7  11
ATOM     11  C   UNL     1       1.854   7.881  19.479  0.00  0.00    +0.000 A 
ATOM     12  C   UNL     1       2.090   8.362  18.184  0.00  0.00    +0.000 A 
ATOM     13  C   UNL     1       1.648   9.631  17.850  0.00  0.00    +0.000 A 
ATOM     14  N   UNL     1       0.998  10.445  18.706  0.00  0.00    +0.000 NA
ATOM     15  C   UNL     1       0.806   9.975  19.957  0.00  0.00    +0.000 A 
ATOM     16  C   UNL     1       1.212   8.720  20.389  0.00  0.00    +0.000 A 
ENDBRANCH   7  11
BRANCH   8  17
ATOM     17  N   UNL     1       4.444   6.260  18.456  0.00  0.00    +0.000 N 
ATOM     18  H   UNL     1       5.240   6.789  18.804  0.00  0.00    +0.000 HD
BRANCH  17  19
ATOM     19  C   UNL     1       4.587   5.796  17.125  0.00  0.00    +0.000 A 
ATOM     20  C   UNL     1       4.308   4.462  16.790  0.00  0.00    +0.000 A 
ATOM     21  C   UNL     1       4.843   3.883  15.637  0.00  0.00    +0.000 A 
ATOM     22  C   UNL     1       5.626   4.638  14.756  0.00  0.00    +0.000 A 
ATOM     23  C   UNL     1       5.755   6.014  15.000  0.00  0.00    +0.000 A 
ATOM     24  C   UNL     1       5.245   6.586  16.176  0.00  0.00    +0.000 A 
BRANCH  22  25
ATOM     25  C   UNL     1       6.361   3.934  13.628  0.00  0.00    +0.000 C 
ATOM     26  C   UNL     1       5.409   3.400  12.559  0.00  0.00    +0.000 C 
ATOM     27  C   UNL     1       7.444   4.823  13.004  0.00  0.00    +0.000 C 
ENDBRANCH  22  25
ENDBRANCH  17  19
ENDBRANCH   8  17
TORSDOF 4
ENDMDL
MODEL 3
REMARK VINA RESULT:      -7.8      3.747      6.462
REMARK  Name = 
REMARK  7 active torsions:
REMARK  status: ('A' for Active; 'I' for Inactive)
REMARK    1  A    between atoms: C_1  and  C_2
REMARK    2  A    between atoms: C_7  and  C_8
REMARK    3  A    between atoms: C_14  and  N_15
REMARK    4  A    between atoms: N_15  and  C_16
REMARK    5  A    between atoms: C_19  and  C_20
REMARK    6  A    between atoms: C_20  and  C_21
REMARK    7  A    between atoms: C_20  and  C_22
REMARK                            x       y       z     vdW  Elec       q    Type
REMARK                         _______ _______ _______ _____ _____    ______ ____
ROOT
ATOM      1  C   UNL     1       8.130   8.572  17.438  0.00  0.00    +0.000 C 
ATOM      2  C   UNL     1       7.353   7.393  17.939  0.00  0.00    +0.000 A 
ATOM      3  C   UNL     1       8.041   6.198  18.397  0.00  0.00    +0.000 A 
ATOM      4  C   UNL     1       7.359   5.106  18.804  0.00  0.00    +0.000 A 
ATOM      5  C   UNL     1       5.937   5.089  18.738  0.00  0.00    +0.000 A 
ATOM      6  N   UNL     1       5.079   4.152  19.071  0.00  0.00    +0.000 NA
ATOM      7  C   UNL     1       3.836   4.648  18.745  0.00  0.00    +0.000 A 
ATOM      8  C   UNL     1       3.926   5.935  18.208  0.00  0.00    +0.000 A 
ATOM      9  N   UNL     1       5.296   6.232  18.272  0.00  0.00    +0.000 N 
ATOM     10  C   UNL     1       6.011   7.392  17.950  0.00  0.00    +0.000 A 
ENDROOT
BRANCH   7  11
ATOM     11  C   UNL     1       2.649   3.826  18.933  0.00  0.00    +0.000 A 
ATOM     12  C   UNL     1       1.771   4.141  19.978  0.00  0.00    +0.000 A 
ATOM     13  C   UNL     1       0.652   3.348  20.176  0.00  0.00    +0.000 A 
ATOM     14  N   UNL     1       0.353   2.277  19.415  0.00  0.00    +0.000 NA
ATOM     15  C   UNL     1       1.226   1.973  18.431  0.00  0.00    +0.000 A 
ATOM     16  C   UNL     1       2.374   2.703  18.155  0.00  0.00    +0.000 A 
ENDBRANCH   7  11
BRANCH   8  17
ATOM     17  N   UNL     1       2.968   6.810  17.760  0.00  0.00    +0.000 N 
ATOM     18  H   UNL     1       2.477   6.596  16.895  0.00  0.00    +0.000 HD
BRANCH  17  19
ATOM     19  C   UNL     1       2.415   7.888  18.495  0.00  0.00    +0.000 A 
ATOM     20  C   UNL     1       2.087   7.746  19.852  0.00  0.00    +0.000 A 
ATOM     21  C   UNL     1       1.169   8.600  20.464  0.00  0.00    +0.000 A 
ATOM     22  C   UNL     1       0.592   9.658  19.751  0.00  0.00    +0.000 A 
ATOM     23  C   UNL     1       1.054   9.906  18.449  0.00  0.00    +0.000 A 
ATOM     24  C   UNL     1       1.952   9.026  17.825  0.00  0.00    +0.000 A 
BRANCH  22  25
ATOM     25  C   UNL     1      -0.552  10.438  20.377  0.00  0.00    +0.000 C 
ATOM     26  C   UNL     1      -0.416  10.552  21.894  0.00  0.00    +0.000 C 
ATOM     27  C   UNL     1      -0.724  11.822  19.735  0.00  0.00    +0.000 C 
ENDBRANCH  22  25
ENDBRANCH  17  19
ENDBRANCH   8  17
TORSDOF 4
ENDMDL
MODEL 4
REMARK VINA RESULT:      -7.7      7.415     10.322
REMARK  Name = 
REMARK  7 active torsions:
REMARK  status: ('A' for Active; 'I' for Inactive)
REMARK    1  A    between atoms: C_1  and  C_2
REMARK    2  A    between atoms: C_7  and  C_8
REMARK    3  A    between atoms: C_14  and  N_15
REMARK    4  A    between atoms: N_15  and  C_16
REMARK    5  A    between atoms: C_19  and  C_20
REMARK    6  A    between atoms: C_20  and  C_21
REMARK    7  A    between atoms: C_20  and  C_22
REMARK                            x       y       z     vdW  Elec       q    Type
REMARK                         _______ _______ _______ _____ _____    ______ ____
ROOT
ATOM      1  C   UNL     1      -3.070   9.906  14.267  0.00  0.00    +0.000 C 
ATOM      2  C   UNL     1      -3.145  10.427  15.669  0.00  0.00    +0.000 A 
ATOM      3  C   UNL     1      -4.423  10.800  16.250  0.00  0.00    +0.000 A 
ATOM      4  C   UNL     1      -4.506  11.320  17.494  0.00  0.00    +0.000 A 
ATOM      5  C   UNL     1      -3.322  11.562  18.245  0.00  0.00    +0.000 A 
ATOM      6  N   UNL     1      -3.162  12.054  19.452  0.00  0.00    +0.000 NA
ATOM      7  C   UNL     1      -1.802  12.121  19.655  0.00  0.00    +0.000 A 
ATOM      8  C   UNL     1      -1.098  11.643  18.546  0.00  0.00    +0.000 A 
ATOM      9  N   UNL     1      -2.105  11.222  17.664  0.00  0.00    +0.000 N 
ATOM     10  C   UNL     1      -2.040  10.591  16.415  0.00  0.00    +0.000 A 
ENDROOT
BRANCH   7  11
ATOM     11  C   UNL     1      -1.274  12.685  20.889  0.00  0.00    +0.000 A 
ATOM     12  C   UNL     1      -1.848  12.297  22.107  0.00  0.00    +0.000 A 
ATOM     13  C   UNL     1      -1.364  12.848  23.282  0.00  0.00    +0.000 A 
ATOM     14  N   UNL     1      -0.363  13.749  23.326  0.00  0.00    +0.000 NA
ATOM     15  C   UNL     1       0.158  14.132  22.141  0.00  0.00    +0.000 A 
ATOM     16  C   UNL     1      -0.258  13.640  20.912  0.00  0.00    +0.000 A 
ENDBRANCH   7  11
BRANCH   8  17
ATOM     17  N   UNL     1       0.247  11.510  18.302  0.00  0.00    +0.000 N 
ATOM     18  H   UNL     1       0.757  12.309  17.933  0.00  0.00    +0.000 HD
BRANCH  17  19
ATOM     19  C   UNL     1       1.067  10.435  18.723  0.00  0.00    +0.000 A 
ATOM     20  C   UNL     1       1.913   9.773  17.819  0.00  0.00    +0.000 A 
ATOM     21  C   UNL     1       2.377   8.483  18.081  0.00  0.00    +0.000 A 
ATOM     22  C   UNL     1       2.055   7.837  19.280  0.00  0.00    +0.000 A 
ATOM     23  C   UNL     1       1.358   8.566  20.257  0.00  0.00    +0.000 A 
ATOM     24  C   UNL     1       0.864   9.850  19.978  0.00  0.00    +0.000 A 
BRANCH  22  25
ATOM     25  C   UNL     1       2.397   6.366  19.446  0.00  0.00    +0.000 C 
ATOM     26  C   UNL     1       1.596   5.706  20.567  0.00  0.00    +0.000 C 
ATOM     27  C   UNL     1       2.247   5.588  18.132  0.00  0.00    +0.000 C 
ENDBRANCH  22  25
ENDBRANCH  17  19
ENDBRANCH   8  17
TORSDOF 4
ENDMDL
MODEL 5
REMARK VINA RESULT:      -7.7      0.730      1.040
REMARK  Name = 
REMARK  7 active torsions:
REMARK  status: ('A' for Active; 'I' for Inactive)
REMARK    1  A    between atoms: C_1  and  C_2
REMARK    2  A    between atoms: C_7  and  C_8
REMARK    3  A    between atoms: C_14  and  N_15
REMARK    4  A    between atoms: N_15  and  C_16
REMARK    5  A    between atoms: C_19  and  C_20
REMARK    6  A    between atoms: C_20  and  C_21
REMARK    7  A    between atoms: C_20  and  C_22
REMARK                            x       y       z     vdW  Elec       q    Type
REMARK                         _______ _______ _______ _____ _____    ______ ____
ROOT
ATOM      1  C   UNL     1       5.241   1.934  11.088  0.00  0.00    +0.000 C 
ATOM      2  C   UNL     1       5.871   2.954  11.986  0.00  0.00    +0.000 A 
ATOM      3  C   UNL     1       6.853   3.890  11.464  0.00  0.00    +0.000 A 
ATOM      4  C   UNL     1       7.469   4.783  12.267  0.00  0.00    +0.000 A 
ATOM      5  C   UNL     1       7.203   4.786  13.665  0.00  0.00    +0.000 A 
ATOM      6  N   UNL     1       7.680   5.548  14.623  0.00  0.00    +0.000 NA
ATOM      7  C   UNL     1       7.125   5.077  15.791  0.00  0.00    +0.000 A 
ATOM      8  C   UNL     1       6.268   3.999  15.549  0.00  0.00    +0.000 A 
ATOM      9  N   UNL     1       6.281   3.867  14.152  0.00  0.00    +0.000 N 
ATOM     10  C   UNL     1       5.574   3.015  13.293  0.00  0.00    +0.000 A 
ENDROOT
BRANCH   7  11
ATOM     11  C   UNL     1       7.495   5.670  17.069  0.00  0.00    +0.000 A 
ATOM     12  C   UNL     1       7.605   7.064  17.157  0.00  0.00    +0.000 A 
ATOM     13  C   UNL     1       7.979   7.631  18.364  0.00  0.00    +0.000 A 
ATOM     14  N   UNL     1       8.250   6.915  19.473  0.00  0.00    +0.000 NA
ATOM     15  C   UNL     1       8.166   5.572  19.360  0.00  0.00    +0.000 A 
ATOM     16  C   UNL     1       7.801   4.910  18.196  0.00  0.00    +0.000 A 
ENDBRANCH   7  11
BRANCH   8  17
ATOM     17  N   UNL     1       5.500   3.232  16.389  0.00  0.00    +0.000 N 
ATOM     18  H   UNL     1       5.629   2.223  16.383  0.00  0.00    +0.000 HD
BRANCH  17  19
ATOM     19  C   UNL     1       4.689   3.712  17.447  0.00  0.00    +0.000 A 
ATOM     20  C   UNL     1       4.846   3.230  18.755  0.00  0.00    +0.000 A 
ATOM     21  C   UNL     1       3.817   3.340  19.692  0.00  0.00    +0.000 A 
ATOM     22  C   UNL     1       2.619   3.987  19.363  0.00  0.00    +0.000 A 
ATOM     23  C   UNL     1       2.532   4.623  18.115  0.00  0.00    +0.000 A 
ATOM     24  C   UNL     1       3.555   4.482  17.164  0.00  0.00    +0.000 A 
BRANCH  22  25
ATOM     25  C   UNL     1       1.446   3.910  20.326  0.00  0.00    +0.000 C 
ATOM     26  C   UNL     1       0.311   3.041  19.790  0.00  0.00    +0.000 C 
ATOM     27  C   UNL     1       1.878   3.449  21.725  0.00  0.00    +0.000 C 
ENDBRANCH  22  25
ENDBRANCH  17  19
ENDBRANCH   8  17
TORSDOF 4
ENDMDL
MODEL 6
REMARK VINA RESULT:      -7.7      3.846      6.459
REMARK  Name = 
REMARK  7 active torsions:
REMARK  status: ('A' for Active; 'I' for Inactive)
REMARK    1  A    between atoms: C_1  and  C_2
REMARK    2  A    between atoms: C_7  and  C_8
REMARK    3  A    between atoms: C_14  and  N_15
REMARK    4  A    between atoms: N_15  and  C_16
REMARK    5  A    between atoms: C_19  and  C_20
REMARK    6  A    between atoms: C_20  and  C_21
REMARK    7  A    between atoms: C_20  and  C_22
REMARK                            x       y       z     vdW  Elec       q    Type
REMARK                         _______ _______ _______ _____ _____    ______ ____
ROOT
ATOM      1  C   UNL     1       8.111   8.533  17.315  0.00  0.00    +0.000 C 
ATOM      2  C   UNL     1       7.386   7.379  17.937  0.00  0.00    +0.000 A 
ATOM      3  C   UNL     1       8.126   6.261  18.499  0.00  0.00    +0.000 A 
ATOM      4  C   UNL     1       7.490   5.188  19.018  0.00  0.00    +0.000 A 
ATOM      5  C   UNL     1       6.070   5.111  18.974  0.00  0.00    +0.000 A 
ATOM      6  N   UNL     1       5.252   4.179  19.407  0.00  0.00    +0.000 NA
ATOM      7  C   UNL     1       3.988   4.593  19.053  0.00  0.00    +0.000 A 
ATOM      8  C   UNL     1       4.022   5.825  18.394  0.00  0.00    +0.000 A 
ATOM      9  N   UNL     1       5.380   6.178  18.410  0.00  0.00    +0.000 N 
ATOM     10  C   UNL     1       6.045   7.329  17.968  0.00  0.00    +0.000 A 
ENDROOT
BRANCH   7  11
ATOM     11  C   UNL     1       2.835   3.749  19.336  0.00  0.00    +0.000 A 
ATOM     12  C   UNL     1       2.171   3.137  18.265  0.00  0.00    +0.000 A 
ATOM     13  C   UNL     1       1.060   2.351  18.526  0.00  0.00    +0.000 A 
ATOM     14  N   UNL     1       0.571   2.139  19.764  0.00  0.00    +0.000 NA
ATOM     15  C   UNL     1       1.208   2.760  20.779  0.00  0.00    +0.000 A 
ATOM     16  C   UNL     1       2.327   3.567  20.620  0.00  0.00    +0.000 A 
ENDBRANCH   7  11
BRANCH   8  17
ATOM     17  N   UNL     1       3.025   6.616  17.877  0.00  0.00    +0.000 N 
ATOM     18  H   UNL     1       2.475   6.262  17.099  0.00  0.00    +0.000 HD
BRANCH  17  19
ATOM     19  C   UNL     1       2.518   7.803  18.460  0.00  0.00    +0.000 A 
ATOM     20  C   UNL     1       2.042   7.815  19.781  0.00  0.00    +0.000 A 
ATOM     21  C   UNL     1       1.162   8.805  20.220  0.00  0.00    +0.000 A 
ATOM     22  C   UNL     1       0.774   9.845  19.367  0.00  0.00    +0.000 A 
ATOM     23  C   UNL     1       1.388   9.931  18.107  0.00  0.00    +0.000 A 
ATOM     24  C   UNL     1       2.247   8.916  17.656  0.00  0.00    +0.000 A 
BRANCH  22  25
ATOM     25  C   UNL     1      -0.339  10.785  19.800  0.00  0.00    +0.000 C 
ATOM     26  C   UNL     1      -1.593  10.634  18.943  0.00  0.00    +0.000 C 
ATOM     27  C   UNL     1      -0.671  10.636  21.291  0.00  0.00    +0.000 C 
ENDBRANCH  22  25
ENDBRANCH  17  19
ENDBRANCH   8  17
TORSDOF 4
ENDMDL
MODEL 7
REMARK VINA RESULT:      -7.6      2.920      6.911
REMARK  Name = 
REMARK  7 active torsions:
REMARK  status: ('A' for Active; 'I' for Inactive)
REMARK    1  A    between atoms: C_1  and  C_2
REMARK    2  A    between atoms: C_7  and  C_8
REMARK    3  A    between atoms: C_14  and  N_15
REMARK    4  A    between atoms: N_15  and  C_16
REMARK    5  A    between atoms: C_19  and  C_20
REMARK    6  A    between atoms: C_20  and  C_21
REMARK    7  A    between atoms: C_20  and  C_22
REMARK                            x       y       z     vdW  Elec       q    Type
REMARK                         _______ _______ _______ _____ _____    ______ ____
ROOT
ATOM      1  C   UNL     1       4.290   0.765  18.844  0.00  0.00    +0.000 C 
ATOM      2  C   UNL     1       3.448   1.984  19.063  0.00  0.00    +0.000 A 
ATOM      3  C   UNL     1       2.012   1.864  19.252  0.00  0.00    +0.000 A 
ATOM      4  C   UNL     1       1.229   2.955  19.400  0.00  0.00    +0.000 A 
ATOM      5  C   UNL     1       1.798   4.256  19.317  0.00  0.00    +0.000 A 
ATOM      6  N   UNL     1       1.239   5.440  19.425  0.00  0.00    +0.000 NA
ATOM      7  C   UNL     1       2.245   6.353  19.205  0.00  0.00    +0.000 A 
ATOM      8  C   UNL     1       3.467   5.717  18.967  0.00  0.00    +0.000 A 
ATOM      9  N   UNL     1       3.169   4.353  19.109  0.00  0.00    +0.000 N 
ATOM     10  C   UNL     1       3.984   3.215  19.060  0.00  0.00    +0.000 A 
ENDROOT
BRANCH   7  11
ATOM     11  C   UNL     1       1.950   7.779  19.194  0.00  0.00    +0.000 A 
ATOM     12  C   UNL     1       1.412   8.364  20.347  0.00  0.00    +0.000 A 
ATOM     13  C   UNL     1       1.107   9.716  20.334  0.00  0.00    +0.000 A 
ATOM     14  N   UNL     1       1.298  10.513  19.264  0.00  0.00    +0.000 NA
ATOM     15  C   UNL     1       1.791   9.925  18.153  0.00  0.00    +0.000 A 
ATOM     16  C   UNL     1       2.125   8.580  18.067  0.00  0.00    +0.000 A 
ENDBRANCH   7  11
BRANCH   8  17
ATOM     17  N   UNL     1       4.723   6.210  18.714  0.00  0.00    +0.000 N 
ATOM     18  H   UNL     1       5.255   6.609  19.484  0.00  0.00    +0.000 HD
BRANCH  17  19
ATOM     19  C   UNL     1       5.468   6.021  17.524  0.00  0.00    +0.000 A 
ATOM     20  C   UNL     1       4.937   6.377  16.274  0.00  0.00    +0.000 A 
ATOM     21  C   UNL     1       5.435   5.817  15.096  0.00  0.00    +0.000 A 
ATOM     22  C   UNL     1       6.516   4.929  15.128  0.00  0.00    +0.000 A 
ATOM     23  C   UNL     1       7.158   4.713  16.358  0.00  0.00    +0.000 A 
ATOM     24  C   UNL     1       6.635   5.250  17.545  0.00  0.00    +0.000 A 
BRANCH  22  25
ATOM     25  C   UNL     1       6.900   4.180  13.862  0.00  0.00    +0.000 C 
ATOM     26  C   UNL     1       5.685   3.609  13.134  0.00  0.00    +0.000 C 
ATOM     27  C   UNL     1       7.751   5.042  12.920  0.00  0.00    +0.000 C 
ENDBRANCH  22  25
ENDBRANCH  17  19
ENDBRANCH   8  17
TORSDOF 4
ENDMDL
MODEL 8
REMARK VINA RESULT:      -7.6      3.819      6.434
REMARK  Name = 
REMARK  7 active torsions:
REMARK  status: ('A' for Active; 'I' for Inactive)
REMARK    1  A    between atoms: C_1  and  C_2
REMARK    2  A    between atoms: C_7  and  C_8
REMARK    3  A    between atoms: C_14  and  N_15
REMARK    4  A    between atoms: N_15  and  C_16
REMARK    5  A    between atoms: C_19  and  C_20
REMARK    6  A    between atoms: C_20  and  C_21
REMARK    7  A    between atoms: C_20  and  C_22
REMARK                            x       y       z     vdW  Elec       q    Type
REMARK                         _______ _______ _______ _____ _____    ______ ____
ROOT
ATOM      1  C   UNL     1       8.247   8.669  17.377  0.00  0.00    +0.000 C 
ATOM      2  C   UNL     1       7.509   7.522  17.996  0.00  0.00    +0.000 A 
ATOM      3  C   UNL     1       8.234   6.441  18.641  0.00  0.00    +0.000 A 
ATOM      4  C   UNL     1       7.590   5.373  19.159  0.00  0.00    +0.000 A 
ATOM      5  C   UNL     1       6.177   5.264  19.033  0.00  0.00    +0.000 A 
ATOM      6  N   UNL     1       5.352   4.330  19.450  0.00  0.00    +0.000 NA
ATOM      7  C   UNL     1       4.104   4.704  19.005  0.00  0.00    +0.000 A 
ATOM      8  C   UNL     1       4.154   5.912  18.305  0.00  0.00    +0.000 A 
ATOM      9  N   UNL     1       5.501   6.295  18.390  0.00  0.00    +0.000 N 
ATOM     10  C   UNL     1       6.170   7.444  17.948  0.00  0.00    +0.000 A 
ENDROOT
BRANCH   7  11
ATOM     11  C   UNL     1       2.953   3.845  19.248  0.00  0.00    +0.000 A 
ATOM     12  C   UNL     1       2.454   3.074  18.190  0.00  0.00    +0.000 A 
ATOM     13  C   UNL     1       1.345   2.273  18.410  0.00  0.00    +0.000 A 
ATOM     14  N   UNL     1       0.707   2.190  19.595  0.00  0.00    +0.000 NA
ATOM     15  C   UNL     1       1.187   2.961  20.594  0.00  0.00    +0.000 A 
ATOM     16  C   UNL     1       2.289   3.796  20.473  0.00  0.00    +0.000 A 
ENDBRANCH   7  11
BRANCH   8  17
ATOM     17  N   UNL     1       3.175   6.663  17.702  0.00  0.00    +0.000 N 
ATOM     18  H   UNL     1       2.951   6.479  16.727  0.00  0.00    +0.000 HD
BRANCH  17  19
ATOM     19  C   UNL     1       2.268   7.531  18.357  0.00  0.00    +0.000 A 
ATOM     20  C   UNL     1       1.763   8.671  17.712  0.00  0.00    +0.000 A 
ATOM     21  C   UNL     1       1.246   9.741  18.443  0.00  0.00    +0.000 A 
ATOM     22  C   UNL     1       1.166   9.681  19.839  0.00  0.00    +0.000 A 
ATOM     23  C   UNL     1       1.506   8.473  20.469  0.00  0.00    +0.000 A 
ATOM     24  C   UNL     1       2.057   7.410  19.735  0.00  0.00    +0.000 A 
BRANCH  22  25
ATOM     25  C   UNL     1       0.796  10.933  20.617  0.00  0.00    +0.000 C 
ATOM     26  C   UNL     1       0.984  12.205  19.793  0.00  0.00    +0.000 C 
ATOM     27  C   UNL     1      -0.626  10.855  21.189  0.00  0.00    +0.000 C 
ENDBRANCH  22  25
ENDBRANCH  17  19
ENDBRANCH   8  17
TORSDOF 4
ENDMDL
MODEL 9
REMARK VINA RESULT:      -7.5      3.807      6.373
REMARK  Name = 
REMARK  7 active torsions:
REMARK  status: ('A' for Active; 'I' for Inactive)
REMARK    1  A    between atoms: C_1  and  C_2
REMARK    2  A    between atoms: C_7  and  C_8
REMARK    3  A    between atoms: C_14  and  N_15
REMARK    4  A    between atoms: N_15  and  C_16
REMARK    5  A    between atoms: C_19  and  C_20
REMARK    6  A    between atoms: C_20  and  C_21
REMARK    7  A    between atoms: C_20  and  C_22
REMARK                            x       y       z     vdW  Elec       q    Type
REMARK                         _______ _______ _______ _____ _____    ______ ____
ROOT
ATOM      1  C   UNL     1       8.313   8.809  17.411  0.00  0.00    +0.000 C 
ATOM      2  C   UNL     1       7.555   7.654  17.990  0.00  0.00    +0.000 A 
ATOM      3  C   UNL     1       8.262   6.546  18.611  0.00  0.00    +0.000 A 
ATOM      4  C   UNL     1       7.600   5.472  19.093  0.00  0.00    +0.000 A 
ATOM      5  C   UNL     1       6.187   5.383  18.950  0.00  0.00    +0.000 A 
ATOM      6  N   UNL     1       5.348   4.447  19.331  0.00  0.00    +0.000 NA
ATOM      7  C   UNL     1       4.109   4.848  18.886  0.00  0.00    +0.000 A 
ATOM      8  C   UNL     1       4.179   6.075  18.221  0.00  0.00    +0.000 A 
ATOM      9  N   UNL     1       5.530   6.440  18.330  0.00  0.00    +0.000 N 
ATOM     10  C   UNL     1       6.216   7.592  17.927  0.00  0.00    +0.000 A 
ENDROOT
BRANCH   7  11
ATOM     11  C   UNL     1       2.946   3.996  19.093  0.00  0.00    +0.000 A 
ATOM     12  C   UNL     1       2.324   4.000  20.348  0.00  0.00    +0.000 A 
ATOM     13  C   UNL     1       1.232   3.174  20.558  0.00  0.00    +0.000 A 
ATOM     14  N   UNL     1       0.725   2.353  19.616  0.00  0.00    +0.000 NA
ATOM     15  C   UNL     1       1.356   2.343  18.423  0.00  0.00    +0.000 A 
ATOM     16  C   UNL     1       2.456   3.131  18.116  0.00  0.00    +0.000 A 
ENDBRANCH   7  11
BRANCH   8  17
ATOM     17  N   UNL     1       3.216   6.853  17.629  0.00  0.00    +0.000 N 
ATOM     18  H   UNL     1       3.072   6.773  16.626  0.00  0.00    +0.000 HD
BRANCH  17  19
ATOM     19  C   UNL     1       2.226   7.610  18.304  0.00  0.00    +0.000 A 
ATOM     20  C   UNL     1       1.569   8.674  17.667  0.00  0.00    +0.000 A 
ATOM     21  C   UNL     1       0.943   9.679  18.406  0.00  0.00    +0.000 A 
ATOM     22  C   UNL     1       0.907   9.620  19.804  0.00  0.00    +0.000 A 
ATOM     23  C   UNL     1       1.407   8.467  20.430  0.00  0.00    +0.000 A 
ATOM     24  C   UNL     1       2.065   7.475  19.687  0.00  0.00    +0.000 A 
BRANCH  22  25
ATOM     25  C   UNL     1       0.405  10.824  20.585  0.00  0.00    +0.000 C 
ATOM     26  C   UNL     1       0.068  10.476  22.033  0.00  0.00    +0.000 C 
ATOM     27  C   UNL     1       1.384  12.003  20.517  0.00  0.00    +0.000 C 
ENDBRANCH  22  25
ENDBRANCH  17  19
ENDBRANCH   8  17
TORSDOF 4
ENDMDL
