MODEL 1
REMARK VINA RESULT:      -8.3      0.000      0.000
REMARK  Name = 
REMARK  6 active torsions:
REMARK  status: ('A' for Active; 'I' for Inactive)
REMARK    1  A    between atoms: C_1  and  C_2
REMARK    2  A    between atoms: C_2  and  N_3
REMARK    3  A    between atoms: C_2  and  C_17
REMARK    4  A    between atoms: C_4  and  C_6
REMARK    5  A    between atoms: C_6  and  C_8
REMARK    6  A    between atoms: C_20  and  N_21
REMARK                            x       y       z     vdW  Elec       q    Type
REMARK                         _______ _______ _______ _____ _____    ______ ____
ROOT
ATOM      1  N   UNL     1       5.653   3.636  18.994  0.00  0.00    +0.000 N 
ATOM      2  C   UNL     1       4.495   2.988  19.375  0.00  0.00    +0.000 C 
ATOM      3  O   UNL     1       4.517   1.948  20.018  0.00  0.00    +0.000 OA
ATOM      4  H   UNL     1       6.502   3.222  19.356  0.00  0.00    +0.000 HD
ENDROOT
BRANCH   1   6
ATOM      5  C   UNL     1       6.782   5.818  18.953  0.00  0.00    +0.000 C 
ATOM      6  C   UNL     1       5.732   4.914  18.306  0.00  0.00    +0.000 C 
BRANCH   6   7
ATOM      7  C   UNL     1       5.931   4.685  16.815  0.00  0.00    +0.000 A 
ATOM      8  C   UNL     1       7.216   4.854  16.266  0.00  0.00    +0.000 A 
ATOM      9  C   UNL     1       7.454   4.635  14.906  0.00  0.00    +0.000 A 
ATOM     10  C   UNL     1       6.395   4.248  14.077  0.00  0.00    +0.000 A 
ATOM     11  C   UNL     1       5.105   4.100  14.599  0.00  0.00    +0.000 A 
ATOM     12  C   UNL     1       4.877   4.328  15.960  0.00  0.00    +0.000 A 
BRANCH  10  13
ATOM     13  N   UNL     1       6.636   3.995  12.652  0.00  0.00    +0.000 N 
ATOM     14  O   UNL     1       6.007   3.071  12.117  0.00  0.00    +0.000 OA
ATOM     15  O   UNL     1       7.449   4.724  12.065  0.00  0.00    +0.000 OA
ENDBRANCH  10  13
ENDBRANCH   6   7
ENDBRANCH   1   6
BRANCH   2  16
ATOM     16  C   UNL     1       3.164   3.601  18.936  0.00  0.00    +0.000 C 
ATOM     17  O   UNL     1       2.537   3.007  18.061  0.00  0.00    +0.000 OA
BRANCH  16  18
ATOM     18  C   UNL     1       2.637   4.782  19.617  0.00  0.00    +0.000 A 
ATOM     19  C   UNL     1       2.261   4.792  20.950  0.00  0.00    +0.000 A 
ATOM     20  N   UNL     1       1.855   6.053  21.280  0.00  0.00    +0.000 N 
ATOM     21  C   UNL     1       1.963   6.883  20.189  0.00  0.00    +0.000 A 
ATOM     22  C   UNL     1       1.662   8.246  20.071  0.00  0.00    +0.000 A 
ATOM     23  C   UNL     1       1.862   8.853  18.829  0.00  0.00    +0.000 A 
ATOM     24  C   UNL     1       2.343   8.123  17.749  0.00  0.00    +0.000 A 
ATOM     25  C   UNL     1       2.632   6.760  17.881  0.00  0.00    +0.000 A 
ATOM     26  C   UNL     1       2.443   6.117  19.124  0.00  0.00    +0.000 A 
ATOM     27  H   UNL     1       1.528   6.343  22.192  0.00  0.00    +0.000 HD
ENDBRANCH  16  18
ENDBRANCH   2  16
TORSDOF 5
ENDMDL
MODEL 2
REMARK VINA RESULT:      -8.2      0.791      1.025
REMARK  Name = 
REMARK  6 active torsions:
REMARK  status: ('A' for Active; 'I' for Inactive)
REMARK    1  A    between atoms: C_1  and  C_2
REMARK    2  A    between atoms: C_2  and  N_3
REMARK    3  A    between atoms: C_2  and  C_17
REMARK    4  A    between atoms: C_4  and  C_6
REMARK    5  A    between atoms: C_6  and  C_8
REMARK    6  A    between atoms: C_20  and  N_21
REMARK                            x       y       z     vdW  Elec       q    Type
REMARK                         _______ _______ _______ _____ _____    ______ ____
ROOT
ATOM      1  N   UNL     1       4.938   3.036  18.536  0.00  0.00    +0.000 N 
ATOM      2  C   UNL     1       3.689   2.470  18.696  0.00  0.00    +0.000 C 
ATOM      3  O   UNL     1       3.545   1.298  19.015  0.00  0.00    +0.000 OA
ATOM      4  H   UNL     1       5.707   2.426  18.779  0.00  0.00    +0.000 HD
ENDROOT
BRANCH   1   6
ATOM      5  C   UNL     1       6.100   5.052  19.326  0.00  0.00    +0.000 C 
ATOM      6  C   UNL     1       5.213   4.434  18.244  0.00  0.00    +0.000 C 
BRANCH   6   7
ATOM      7  C   UNL     1       5.757   4.566  16.830  0.00  0.00    +0.000 A 
ATOM      8  C   UNL     1       7.106   4.927  16.652  0.00  0.00    +0.000 A 
ATOM      9  C   UNL     1       7.659   5.041  15.372  0.00  0.00    +0.000 A 
ATOM     10  C   UNL     1       6.855   4.800  14.253  0.00  0.00    +0.000 A 
ATOM     11  C   UNL     1       5.505   4.466  14.408  0.00  0.00    +0.000 A 
ATOM     12  C   UNL     1       4.961   4.361  15.693  0.00  0.00    +0.000 A 
BRANCH  10  13
ATOM     13  N   UNL     1       7.429   4.897  12.906  0.00  0.00    +0.000 N 
ATOM     14  O   UNL     1       8.252   5.799  12.694  0.00  0.00    +0.000 OA
ATOM     15  O   UNL     1       7.065   4.067  12.060  0.00  0.00    +0.000 OA
ENDBRANCH  10  13
ENDBRANCH   6   7
ENDBRANCH   1   6
BRANCH   2  16
ATOM     16  C   UNL     1       2.471   3.356  18.429  0.00  0.00    +0.000 C 
ATOM     17  O   UNL     1       1.712   3.006  17.527  0.00  0.00    +0.000 OA
BRANCH  16  18
ATOM     18  C   UNL     1       2.191   4.503  19.291  0.00  0.00    +0.000 A 
ATOM     19  C   UNL     1       1.940   4.397  20.648  0.00  0.00    +0.000 A 
ATOM     20  N   UNL     1       1.761   5.650  21.160  0.00  0.00    +0.000 N 
ATOM     21  C   UNL     1       1.896   6.589  20.164  0.00  0.00    +0.000 A 
ATOM     22  C   UNL     1       1.797   7.984  20.232  0.00  0.00    +0.000 A 
ATOM     23  C   UNL     1       1.976   8.710  19.052  0.00  0.00    +0.000 A 
ATOM     24  C   UNL     1       2.243   8.062  17.851  0.00  0.00    +0.000 A 
ATOM     25  C   UNL     1       2.333   6.667  17.798  0.00  0.00    +0.000 A 
ATOM     26  C   UNL     1       2.159   5.904  18.974  0.00  0.00    +0.000 A 
ATOM     27  H   UNL     1       1.564   5.865  22.128  0.00  0.00    +0.000 HD
ENDBRANCH  16  18
ENDBRANCH   2  16
TORSDOF 5
ENDMDL
MODEL 3
REMARK VINA RESULT:      -7.8      3.170      7.431
REMARK  Name = 
REMARK  6 active torsions:
REMARK  status: ('A' for Active; 'I' for Inactive)
REMARK    1  A    between atoms: C_1  and  C_2
REMARK    2  A    between atoms: C_2  and  N_3
REMARK    3  A    between atoms: C_2  and  C_17
REMARK    4  A    between atoms: C_4  and  C_6
REMARK    5  A    between atoms: C_6  and  C_8
REMARK    6  A    between atoms: C_20  and  N_21
REMARK                            x       y       z     vdW  Elec       q    Type
REMARK                         _______ _______ _______ _____ _____    ______ ____
ROOT
ATOM      1  N   UNL     1       1.891   5.978  17.969  0.00  0.00    +0.000 N 
ATOM      2  C   UNL     1       2.089   4.614  18.040  0.00  0.00    +0.000 C 
ATOM      3  O   UNL     1       1.348   3.822  17.474  0.00  0.00    +0.000 OA
ATOM      4  H   UNL     1       1.139   6.260  17.353  0.00  0.00    +0.000 HD
ENDROOT
BRANCH   1   6
ATOM      5  C   UNL     1       3.584   7.677  17.437  0.00  0.00    +0.000 C 
ATOM      6  C   UNL     1       2.759   6.999  18.532  0.00  0.00    +0.000 C 
BRANCH   6   7
ATOM      7  C   UNL     1       1.942   7.954  19.388  0.00  0.00    +0.000 A 
ATOM      8  C   UNL     1       1.645   7.594  20.716  0.00  0.00    +0.000 A 
ATOM      9  C   UNL     1       0.915   8.448  21.549  0.00  0.00    +0.000 A 
ATOM     10  C   UNL     1       0.465   9.675  21.050  0.00  0.00    +0.000 A 
ATOM     11  C   UNL     1       0.727  10.040  19.724  0.00  0.00    +0.000 A 
ATOM     12  C   UNL     1       1.453   9.176  18.898  0.00  0.00    +0.000 A 
BRANCH  10  13
ATOM     13  N   UNL     1      -0.285  10.587  21.920  0.00  0.00    +0.000 N 
ATOM     14  O   UNL     1      -1.073  11.378  21.383  0.00  0.00    +0.000 OA
ATOM     15  O   UNL     1      -0.093  10.510  23.143  0.00  0.00    +0.000 OA
ENDBRANCH  10  13
ENDBRANCH   6   7
ENDBRANCH   1   6
BRANCH   2  16
ATOM     16  C   UNL     1       3.260   4.111  18.885  0.00  0.00    +0.000 C 
ATOM     17  O   UNL     1       2.988   3.414  19.860  0.00  0.00    +0.000 OA
BRANCH  16  18
ATOM     18  C   UNL     1       4.636   4.377  18.469  0.00  0.00    +0.000 A 
ATOM     19  C   UNL     1       5.673   4.610  19.357  0.00  0.00    +0.000 A 
ATOM     20  N   UNL     1       6.827   4.779  18.648  0.00  0.00    +0.000 N 
ATOM     21  C   UNL     1       6.575   4.654  17.302  0.00  0.00    +0.000 A 
ATOM     22  C   UNL     1       7.455   4.750  16.216  0.00  0.00    +0.000 A 
ATOM     23  C   UNL     1       6.929   4.584  14.933  0.00  0.00    +0.000 A 
ATOM     24  C   UNL     1       5.574   4.334  14.746  0.00  0.00    +0.000 A 
ATOM     25  C   UNL     1       4.707   4.249  15.841  0.00  0.00    +0.000 A 
ATOM     26  C   UNL     1       5.208   4.409  17.152  0.00  0.00    +0.000 A 
ATOM     27  H   UNL     1       7.738   4.963  19.047  0.00  0.00    +0.000 HD
ENDBRANCH  16  18
ENDBRANCH   2  16
TORSDOF 5
ENDMDL
MODEL 4
REMARK VINA RESULT:      -7.8      3.141      7.392
REMARK  Name = 
REMARK  6 active torsions:
REMARK  status: ('A' for Active; 'I' for Inactive)
REMARK    1  A    between atoms: C_1  and  C_2
REMARK    2  A    between atoms: C_2  and  N_3
REMARK    3  A    between atoms: C_2  and  C_17
REMARK    4  A    between atoms: C_4  and  C_6
REMARK    5  A    between atoms: C_6  and  C_8
REMARK    6  A    between atoms: C_20  and  N_21
REMARK                            x       y       z     vdW  Elec       q    Type
REMARK                         _______ _______ _______ _____ _____    ______ ____
ROOT
ATOM      1  N   UNL     1       1.913   5.874  18.014  0.00  0.00    +0.000 N 
ATOM      2  C   UNL     1       2.104   4.507  18.054  0.00  0.00    +0.000 C 
ATOM      3  O   UNL     1       1.344   3.730  17.494  0.00  0.00    +0.000 OA
ATOM      4  H   UNL     1       1.146   6.171  17.424  0.00  0.00    +0.000 HD
ENDROOT
BRANCH   1   6
ATOM      5  C   UNL     1       3.611   7.564  17.469  0.00  0.00    +0.000 C 
ATOM      6  C   UNL     1       2.802   6.880  18.573  0.00  0.00    +0.000 C 
BRANCH   6   7
ATOM      7  C   UNL     1       2.011   7.831  19.457  0.00  0.00    +0.000 A 
ATOM      8  C   UNL     1       1.592   9.065  18.924  0.00  0.00    +0.000 A 
ATOM      9  C   UNL     1       0.845   9.965  19.690  0.00  0.00    +0.000 A 
ATOM     10  C   UNL     1       0.517   9.636  21.010  0.00  0.00    +0.000 A 
ATOM     11  C   UNL     1       0.947   8.426  21.566  0.00  0.00    +0.000 A 
ATOM     12  C   UNL     1       1.699   7.536  20.793  0.00  0.00    +0.000 A 
BRANCH  10  13
ATOM     13  N   UNL     1      -0.284  10.564  21.817  0.00  0.00    +0.000 N 
ATOM     14  O   UNL     1      -0.092  10.574  23.041  0.00  0.00    +0.000 OA
ATOM     15  O   UNL     1      -1.100  11.287  21.228  0.00  0.00    +0.000 OA
ENDBRANCH  10  13
ENDBRANCH   6   7
ENDBRANCH   1   6
BRANCH   2  16
ATOM     16  C   UNL     1       3.295   3.983  18.858  0.00  0.00    +0.000 C 
ATOM     17  O   UNL     1       3.047   3.231  19.799  0.00  0.00    +0.000 OA
BRANCH  16  18
ATOM     18  C   UNL     1       4.661   4.295  18.440  0.00  0.00    +0.000 A 
ATOM     19  C   UNL     1       5.691   4.559  19.327  0.00  0.00    +0.000 A 
ATOM     20  N   UNL     1       6.838   4.768  18.616  0.00  0.00    +0.000 N 
ATOM     21  C   UNL     1       6.587   4.639  17.270  0.00  0.00    +0.000 A 
ATOM     22  C   UNL     1       7.462   4.765  16.183  0.00  0.00    +0.000 A 
ATOM     23  C   UNL     1       6.938   4.586  14.901  0.00  0.00    +0.000 A 
ATOM     24  C   UNL     1       5.592   4.292  14.715  0.00  0.00    +0.000 A 
ATOM     25  C   UNL     1       4.730   4.176  15.812  0.00  0.00    +0.000 A 
ATOM     26  C   UNL     1       5.228   4.349  17.122  0.00  0.00    +0.000 A 
ATOM     27  H   UNL     1       7.743   4.981  19.014  0.00  0.00    +0.000 HD
ENDBRANCH  16  18
ENDBRANCH   2  16
TORSDOF 5
ENDMDL
MODEL 5
REMARK VINA RESULT:      -7.8      3.057      7.351
REMARK  Name = 
REMARK  6 active torsions:
REMARK  status: ('A' for Active; 'I' for Inactive)
REMARK    1  A    between atoms: C_1  and  C_2
REMARK    2  A    between atoms: C_2  and  N_3
REMARK    3  A    between atoms: C_2  and  C_17
REMARK    4  A    between atoms: C_4  and  C_6
REMARK    5  A    between atoms: C_6  and  C_8
REMARK    6  A    between atoms: C_20  and  N_21
REMARK                            x       y       z     vdW  Elec       q    Type
REMARK                         _______ _______ _______ _____ _____    ______ ____
ROOT
ATOM      1  N   UNL     1       3.923   5.255  18.975  0.00  0.00    +0.000 N 
ATOM      2  C   UNL     1       4.931   4.391  18.597  0.00  0.00    +0.000 C 
ATOM      3  O   UNL     1       5.784   4.008  19.385  0.00  0.00    +0.000 OA
ATOM      4  H   UNL     1       3.909   5.475  19.963  0.00  0.00    +0.000 HD
ENDROOT
BRANCH   1   6
ATOM      5  C   UNL     1       1.755   4.608  18.017  0.00  0.00    +0.000 C 
ATOM      6  C   UNL     1       2.819   5.700  18.140  0.00  0.00    +0.000 C 
BRANCH   6   7
ATOM      7  C   UNL     1       2.296   7.035  18.646  0.00  0.00    +0.000 A 
ATOM      8  C   UNL     1       1.974   7.167  20.010  0.00  0.00    +0.000 A 
ATOM      9  C   UNL     1       1.509   8.380  20.528  0.00  0.00    +0.000 A 
ATOM     10  C   UNL     1       1.355   9.477  19.674  0.00  0.00    +0.000 A 
ATOM     11  C   UNL     1       1.645   9.359  18.310  0.00  0.00    +0.000 A 
ATOM     12  C   UNL     1       2.104   8.139  17.801  0.00  0.00    +0.000 A 
BRANCH  10  13
ATOM     13  N   UNL     1       0.888  10.761  20.209  0.00  0.00    +0.000 N 
ATOM     14  O   UNL     1       1.146  11.019  21.393  0.00  0.00    +0.000 OA
ATOM     15  O   UNL     1       0.270  11.516  19.445  0.00  0.00    +0.000 OA
ENDBRANCH  10  13
ENDBRANCH   6   7
ENDBRANCH   1   6
BRANCH   2  16
ATOM     16  C   UNL     1       4.970   3.945  17.135  0.00  0.00    +0.000 C 
ATOM     17  O   UNL     1       4.123   3.130  16.776  0.00  0.00    +0.000 OA
BRANCH  16  18
ATOM     18  C   UNL     1       5.917   4.556  16.203  0.00  0.00    +0.000 A 
ATOM     19  C   UNL     1       6.850   5.509  16.577  0.00  0.00    +0.000 A 
ATOM     20  N   UNL     1       7.602   5.836  15.485  0.00  0.00    +0.000 N 
ATOM     21  C   UNL     1       7.187   5.110  14.393  0.00  0.00    +0.000 A 
ATOM     22  C   UNL     1       7.669   5.121  13.078  0.00  0.00    +0.000 A 
ATOM     23  C   UNL     1       7.056   4.275  12.151  0.00  0.00    +0.000 A 
ATOM     24  C   UNL     1       6.000   3.453  12.527  0.00  0.00    +0.000 A 
ATOM     25  C   UNL     1       5.525   3.459  13.843  0.00  0.00    +0.000 A 
ATOM     26  C   UNL     1       6.125   4.301  14.805  0.00  0.00    +0.000 A 
ATOM     27  H   UNL     1       8.357   6.509  15.474  0.00  0.00    +0.000 HD
ENDBRANCH  16  18
ENDBRANCH   2  16
TORSDOF 5
ENDMDL
MODEL 6
REMARK VINA RESULT:      -7.7      3.082      7.400
REMARK  Name = 
REMARK  6 active torsions:
REMARK  status: ('A' for Active; 'I' for Inactive)
REMARK    1  A    between atoms: C_1  and  C_2
REMARK    2  A    between atoms: C_2  and  N_3
REMARK    3  A    between atoms: C_2  and  C_17
REMARK    4  A    between atoms: C_4  and  C_6
REMARK    5  A    between atoms: C_6  and  C_8
REMARK    6  A    between atoms: C_20  and  N_21
REMARK                            x       y       z     vdW  Elec       q    Type
REMARK                         _______ _______ _______ _____ _____    ______ ____
ROOT
ATOM      1  N   UNL     1       3.937   5.341  19.013  0.00  0.00    +0.000 N 
ATOM      2  C   UNL     1       4.916   4.454  18.609  0.00  0.00    +0.000 C 
ATOM      3  O   UNL     1       5.773   4.042  19.378  0.00  0.00    +0.000 OA
ATOM      4  H   UNL     1       3.947   5.552  20.002  0.00  0.00    +0.000 HD
ENDROOT
BRANCH   1   6
ATOM      5  C   UNL     1       1.783   4.723  18.006  0.00  0.00    +0.000 C 
ATOM      6  C   UNL     1       2.830   5.821  18.202  0.00  0.00    +0.000 C 
BRANCH   6   7
ATOM      7  C   UNL     1       2.286   7.114  18.788  0.00  0.00    +0.000 A 
ATOM      8  C   UNL     1       2.199   8.251  17.963  0.00  0.00    +0.000 A 
ATOM      9  C   UNL     1       1.686   9.458  18.450  0.00  0.00    +0.000 A 
ATOM     10  C   UNL     1       1.262   9.537  19.780  0.00  0.00    +0.000 A 
ATOM     11  C   UNL     1       1.365   8.425  20.624  0.00  0.00    +0.000 A 
ATOM     12  C   UNL     1       1.885   7.225  20.129  0.00  0.00    +0.000 A 
BRANCH  10  13
ATOM     13  N   UNL     1       0.704  10.792  20.297  0.00  0.00    +0.000 N 
ATOM     14  O   UNL     1      -0.086  11.413  19.570  0.00  0.00    +0.000 OA
ATOM     15  O   UNL     1       1.047  11.155  21.431  0.00  0.00    +0.000 OA
ENDBRANCH  10  13
ENDBRANCH   6   7
ENDBRANCH   1   6
BRANCH   2  16
ATOM     16  C   UNL     1       4.916   4.020  17.143  0.00  0.00    +0.000 C 
ATOM     17  O   UNL     1       4.028   3.249  16.787  0.00  0.00    +0.000 OA
BRANCH  16  18
ATOM     18  C   UNL     1       5.880   4.594  16.205  0.00  0.00    +0.000 A 
ATOM     19  C   UNL     1       6.838   5.527  16.568  0.00  0.00    +0.000 A 
ATOM     20  N   UNL     1       7.598   5.821  15.472  0.00  0.00    +0.000 N 
ATOM     21  C   UNL     1       7.165   5.093  14.389  0.00  0.00    +0.000 A 
ATOM     22  C   UNL     1       7.648   5.075  13.074  0.00  0.00    +0.000 A 
ATOM     23  C   UNL     1       7.013   4.235  12.157  0.00  0.00    +0.000 A 
ATOM     24  C   UNL     1       5.936   3.445  12.542  0.00  0.00    +0.000 A 
ATOM     25  C   UNL     1       5.460   3.480  13.858  0.00  0.00    +0.000 A 
ATOM     26  C   UNL     1       6.082   4.317  14.810  0.00  0.00    +0.000 A 
ATOM     27  H   UNL     1       8.371   6.473  15.454  0.00  0.00    +0.000 HD
ENDBRANCH  16  18
ENDBRANCH   2  16
TORSDOF 5
ENDMDL
MODEL 7
REMARK VINA RESULT:      -7.5      2.658      6.044
REMARK  Name = 
REMARK  6 active torsions:
REMARK  status: ('A' for Active; 'I' for Inactive)
REMARK    1  A    between atoms: C_1  and  C_2
REMARK    2  A    between atoms: C_2  and  N_3
REMARK    3  A    between atoms: C_2  and  C_17
REMARK    4  A    between atoms: C_4  and  C_6
REMARK    5  A    between atoms: C_6  and  C_8
REMARK    6  A    between atoms: C_20  and  N_21
REMARK                            x       y       z     vdW  Elec       q    Type
REMARK                         _______ _______ _______ _____ _____    ______ ____
ROOT
ATOM      1  N   UNL     1       3.093   3.382  20.255  0.00  0.00    +0.000 N 
ATOM      2  C   UNL     1       4.244   2.837  19.721  0.00  0.00    +0.000 C 
ATOM      3  O   UNL     1       5.155   2.428  20.428  0.00  0.00    +0.000 OA
ATOM      4  H   UNL     1       3.040   3.341  21.264  0.00  0.00    +0.000 HD
ENDROOT
BRANCH   1   6
ATOM      5  C   UNL     1       0.649   3.203  20.084  0.00  0.00    +0.000 C 
ATOM      6  C   UNL     1       1.925   3.816  19.506  0.00  0.00    +0.000 C 
BRANCH   6   7
ATOM      7  C   UNL     1       1.909   5.334  19.413  0.00  0.00    +0.000 A 
ATOM      8  C   UNL     1       2.148   5.942  18.165  0.00  0.00    +0.000 A 
ATOM      9  C   UNL     1       2.123   7.333  18.024  0.00  0.00    +0.000 A 
ATOM     10  C   UNL     1       1.864   8.132  19.143  0.00  0.00    +0.000 A 
ATOM     11  C   UNL     1       1.650   7.548  20.397  0.00  0.00    +0.000 A 
ATOM     12  C   UNL     1       1.683   6.156  20.528  0.00  0.00    +0.000 A 
BRANCH  10  13
ATOM     13  N   UNL     1       1.815   9.592  19.003  0.00  0.00    +0.000 N 
ATOM     14  O   UNL     1       1.203  10.233  19.869  0.00  0.00    +0.000 OA
ATOM     15  O   UNL     1       2.394  10.100  18.032  0.00  0.00    +0.000 OA
ENDBRANCH  10  13
ENDBRANCH   6   7
ENDBRANCH   1   6
BRANCH   2  16
ATOM     16  C   UNL     1       4.363   2.787  18.197  0.00  0.00    +0.000 C 
ATOM     17  O   UNL     1       3.862   1.819  17.629  0.00  0.00    +0.000 OA
BRANCH  16  18
ATOM     18  C   UNL     1       4.960   3.904  17.468  0.00  0.00    +0.000 A 
ATOM     19  C   UNL     1       4.578   4.274  16.189  0.00  0.00    +0.000 A 
ATOM     20  N   UNL     1       5.296   5.374  15.819  0.00  0.00    +0.000 N 
ATOM     21  C   UNL     1       6.145   5.746  16.835  0.00  0.00    +0.000 A 
ATOM     22  C   UNL     1       7.057   6.808  16.893  0.00  0.00    +0.000 A 
ATOM     23  C   UNL     1       7.810   6.958  18.060  0.00  0.00    +0.000 A 
ATOM     24  C   UNL     1       7.655   6.078  19.126  0.00  0.00    +0.000 A 
ATOM     25  C   UNL     1       6.744   5.019  19.049  0.00  0.00    +0.000 A 
ATOM     26  C   UNL     1       5.966   4.840  17.884  0.00  0.00    +0.000 A 
ATOM     27  H   UNL     1       5.218   5.854  14.932  0.00  0.00    +0.000 HD
ENDBRANCH  16  18
ENDBRANCH   2  16
TORSDOF 5
ENDMDL
MODEL 8
REMARK VINA RESULT:      -7.3      4.122      6.786
REMARK  Name = 
REMARK  6 active torsions:
REMARK  status: ('A' for Active; 'I' for Inactive)
REMARK    1  A    between atoms: C_1  and  C_2
REMARK    2  A    between atoms: C_2  and  N_3
REMARK    3  A    between atoms: C_2  and  C_17
REMARK    4  A    between atoms: C_4  and  C_6
REMARK    5  A    between atoms: C_6  and  C_8
REMARK    6  A    between atoms: C_20  and  N_21
REMARK                            x       y       z     vdW  Elec       q    Type
REMARK                         _______ _______ _______ _____ _____    ______ ____
ROOT
ATOM      1  N   UNL     1       2.151   8.122  21.069  0.00  0.00    +0.000 N 
ATOM      2  C   UNL     1       1.342   8.916  21.857  0.00  0.00    +0.000 C 
ATOM      3  O   UNL     1       1.764   9.481  22.856  0.00  0.00    +0.000 OA
ATOM      4  H   UNL     1       3.125   8.114  21.345  0.00  0.00    +0.000 HD
ENDROOT
BRANCH   1   6
ATOM      5  C   UNL     1       2.134   8.358  18.624  0.00  0.00    +0.000 C 
ATOM      6  C   UNL     1       1.768   7.481  19.822  0.00  0.00    +0.000 C 
BRANCH   6   7
ATOM      7  C   UNL     1       2.340   6.072  19.771  0.00  0.00    +0.000 A 
ATOM      8  C   UNL     1       3.294   5.761  18.784  0.00  0.00    +0.000 A 
ATOM      9  C   UNL     1       3.865   4.487  18.708  0.00  0.00    +0.000 A 
ATOM     10  C   UNL     1       3.474   3.504  19.624  0.00  0.00    +0.000 A 
ATOM     11  C   UNL     1       2.507   3.786  20.596  0.00  0.00    +0.000 A 
ATOM     12  C   UNL     1       1.938   5.062  20.659  0.00  0.00    +0.000 A 
BRANCH  10  13
ATOM     13  N   UNL     1       4.081   2.170  19.568  0.00  0.00    +0.000 N 
ATOM     14  O   UNL     1       4.970   1.906  20.390  0.00  0.00    +0.000 OA
ATOM     15  O   UNL     1       3.664   1.380  18.708  0.00  0.00    +0.000 OA
ENDBRANCH  10  13
ENDBRANCH   6   7
ENDBRANCH   1   6
BRANCH   2  16
ATOM     16  C   UNL     1      -0.129   9.046  21.455  0.00  0.00    +0.000 C 
ATOM     17  O   UNL     1      -0.867   8.100  21.722  0.00  0.00    +0.000 OA
BRANCH  16  18
ATOM     18  C   UNL     1      -0.626  10.293  20.876  0.00  0.00    +0.000 A 
ATOM     19  C   UNL     1      -0.814  10.483  19.517  0.00  0.00    +0.000 A 
ATOM     20  N   UNL     1      -1.326  11.733  19.318  0.00  0.00    +0.000 N 
ATOM     21  C   UNL     1      -1.487  12.374  20.523  0.00  0.00    +0.000 A 
ATOM     22  C   UNL     1      -1.978  13.658  20.793  0.00  0.00    +0.000 A 
ATOM     23  C   UNL     1      -2.032  14.068  22.128  0.00  0.00    +0.000 A 
ATOM     24  C   UNL     1      -1.611  13.225  23.150  0.00  0.00    +0.000 A 
ATOM     25  C   UNL     1      -1.117  11.948  22.863  0.00  0.00    +0.000 A 
ATOM     26  C   UNL     1      -1.051  11.502  21.524  0.00  0.00    +0.000 A 
ATOM     27  H   UNL     1      -1.559  12.133  18.419  0.00  0.00    +0.000 HD
ENDBRANCH  16  18
ENDBRANCH   2  16
TORSDOF 5
ENDMDL
MODEL 9
REMARK VINA RESULT:      -7.3      1.859      2.984
REMARK  Name = 
REMARK  6 active torsions:
REMARK  status: ('A' for Active; 'I' for Inactive)
REMARK    1  A    between atoms: C_1  and  C_2
REMARK    2  A    between atoms: C_2  and  N_3
REMARK    3  A    between atoms: C_2  and  C_17
REMARK    4  A    between atoms: C_4  and  C_6
REMARK    5  A    between atoms: C_6  and  C_8
REMARK    6  A    between atoms: C_20  and  N_21
REMARK                            x       y       z     vdW  Elec       q    Type
REMARK                         _______ _______ _______ _____ _____    ______ ____
ROOT
ATOM      1  N   UNL     1       2.788   3.179  19.155  0.00  0.00    +0.000 N 
ATOM      2  C   UNL     1       1.737   3.978  19.559  0.00  0.00    +0.000 C 
ATOM      3  O   UNL     1       0.574   3.694  19.308  0.00  0.00    +0.000 OA
ATOM      4  H   UNL     1       2.508   2.315  18.709  0.00  0.00    +0.000 HD
ENDROOT
BRANCH   1   6
ATOM      5  C   UNL     1       4.760   2.180  20.226  0.00  0.00    +0.000 C 
ATOM      6  C   UNL     1       4.191   3.385  19.474  0.00  0.00    +0.000 C 
BRANCH   6   7
ATOM      7  C   UNL     1       4.956   3.761  18.215  0.00  0.00    +0.000 A 
ATOM      8  C   UNL     1       4.378   3.488  16.961  0.00  0.00    +0.000 A 
ATOM      9  C   UNL     1       5.032   3.834  15.774  0.00  0.00    +0.000 A 
ATOM     10  C   UNL     1       6.286   4.452  15.836  0.00  0.00    +0.000 A 
ATOM     11  C   UNL     1       6.889   4.707  17.073  0.00  0.00    +0.000 A 
ATOM     12  C   UNL     1       6.229   4.352  18.253  0.00  0.00    +0.000 A 
BRANCH  10  13
ATOM     13  N   UNL     1       6.973   4.838  14.599  0.00  0.00    +0.000 N 
ATOM     14  O   UNL     1       6.590   4.317  13.541  0.00  0.00    +0.000 OA
ATOM     15  O   UNL     1       7.891   5.667  14.680  0.00  0.00    +0.000 OA
ENDBRANCH  10  13
ENDBRANCH   6   7
ENDBRANCH   1   6
BRANCH   2  16
ATOM     16  C   UNL     1       2.076   5.264  20.315  0.00  0.00    +0.000 C 
ATOM     17  O   UNL     1       2.380   5.153  21.500  0.00  0.00    +0.000 OA
BRANCH  16  18
ATOM     18  C   UNL     1       2.128   6.542  19.607  0.00  0.00    +0.000 A 
ATOM     19  C   UNL     1       2.741   6.710  18.376  0.00  0.00    +0.000 A 
ATOM     20  N   UNL     1       2.573   8.005  17.977  0.00  0.00    +0.000 N 
ATOM     21  C   UNL     1       1.852   8.699  18.921  0.00  0.00    +0.000 A 
ATOM     22  C   UNL     1       1.449  10.040  18.927  0.00  0.00    +0.000 A 
ATOM     23  C   UNL     1       0.719  10.496  20.028  0.00  0.00    +0.000 A 
ATOM     24  C   UNL     1       0.408   9.642  21.080  0.00  0.00    +0.000 A 
ATOM     25  C   UNL     1       0.825   8.306  21.061  0.00  0.00    +0.000 A 
ATOM     26  C   UNL     1       1.562   7.813  19.962  0.00  0.00    +0.000 A 
ATOM     27  H   UNL     1       2.920   8.402  17.115  0.00  0.00    +0.000 HD
ENDBRANCH  16  18
ENDBRANCH   2  16
TORSDOF 5
ENDMDL
