MODEL 1
REMARK VINA RESULT:      -6.6      0.000      0.000
REMARK  Name = 
REMARK  12 active torsions:
REMARK  status: ('A' for Active; 'I' for Inactive)
REMARK    1  A    between atoms: C_1  and  C_2
REMARK    2  A    between atoms: C_3  and  C_4
REMARK    3  A    between atoms: C_5  and  C_6
REMARK    4  A    between atoms: N_8  and  C_9
REMARK    5  A    between atoms: C_14  and  O_15
REMARK    6  A    between atoms: O_15  and  C_16
REMARK    7  A    between atoms: C_17  and  O_18
REMARK    8  A    between atoms: O_18  and  C_19
REMARK    9  A    between atoms: C_20  and  O_21
REMARK   10  A    between atoms: O_21  and  C_22
REMARK   11  A    between atoms: C_27  and  S_28
REMARK   12  A    between atoms: S_28  and  C_29
REMARK                            x       y       z     vdW  Elec       q    Type
REMARK                         _______ _______ _______ _____ _____    ______ ____
ROOT
ATOM      1  C   UNL     1      -0.045  12.180  19.170  0.00  0.00    +0.000 C 
ATOM      2  C   UNL     1       0.513  13.447  18.480  0.00  0.00    +0.000 C 
ATOM      3  C   UNL     1      -0.251  14.736  18.819  0.00  0.00    +0.000 C 
ATOM      4  C   UNL     1      -0.482  14.851  20.309  0.00  0.00    +0.000 A 
ATOM      5  C   UNL     1       0.321  15.753  21.020  0.00  0.00    +0.000 A 
ATOM      6  C   UNL     1       0.292  15.822  22.413  0.00  0.00    +0.000 A 
ATOM      7  C   UNL     1      -0.592  14.991  23.134  0.00  0.00    +0.000 A 
ATOM      8  C   UNL     1      -1.459  14.106  22.419  0.00  0.00    +0.000 A 
ATOM      9  C   UNL     1      -1.399  14.018  20.991  0.00  0.00    +0.000 A 
ATOM     10  C   UNL     1      -2.231  13.040  20.154  0.00  0.00    +0.000 A 
ATOM     11  C   UNL     1      -3.563  13.110  20.336  0.00  0.00    +0.000 A 
ATOM     12  C   UNL     1      -4.641  12.329  19.768  0.00  0.00    +0.000 A 
ATOM     13  C   UNL     1      -4.724  11.621  18.634  0.00  0.00    +0.000 A 
ATOM     14  C   UNL     1      -3.621  11.481  17.647  0.00  0.00    +0.000 A 
ATOM     15  O   UNL     1      -3.817  11.135  16.482  0.00  0.00    +0.000 OA
ATOM     16  C   UNL     1      -2.209  11.645  18.053  0.00  0.00    +0.000 A 
ATOM     17  C   UNL     1      -1.587  12.200  19.113  0.00  0.00    +0.000 A 
ENDROOT
BRANCH   1  20
ATOM     18  C   UNL     1       0.950   9.887  19.293  0.00  0.00    +0.000 C 
ATOM     19  O   UNL     1       0.987   9.831  20.515  0.00  0.00    +0.000 OA
ATOM     20  N   UNL     1       0.477  10.951  18.569  0.00  0.00    +0.000 N 
ATOM     21  H   UNL     1       0.338  10.801  17.582  0.00  0.00    +0.000 HD
BRANCH  18  23
ATOM     22  C   UNL     1       2.248   7.827  18.884  0.00  0.00    +0.000 C 
ATOM     23  C   UNL     1       1.461   8.804  18.409  0.00  0.00    +0.000 C 
BRANCH  22  26
ATOM     24  C   UNL     1       3.309   4.514  17.263  0.00  0.00    +0.000 C 
ATOM     25  C   UNL     1       2.603   5.536  18.095  0.00  0.00    +0.000 C 
ATOM     26  C   UNL     1       2.861   6.850  18.015  0.00  0.00    +0.000 C 
ENDBRANCH  22  26
ENDBRANCH  18  23
ENDBRANCH   1  20
BRANCH   6  27
ATOM     27  O   UNL     1       1.086  16.725  23.075  0.00  0.00    +0.000 OA
ATOM     28  C   UNL     1       0.673  18.089  23.029  0.00  0.00    +0.000 C 
ENDBRANCH   6  27
BRANCH   7  29
ATOM     29  O   UNL     1      -0.656  14.922  24.505  0.00  0.00    +0.000 OA
ATOM     30  C   UNL     1      -1.524  15.773  25.243  0.00  0.00    +0.000 C 
ENDBRANCH   7  29
BRANCH   8  31
ATOM     31  O   UNL     1      -2.345  13.223  23.008  0.00  0.00    +0.000 OA
ATOM     32  C   UNL     1      -1.902  11.905  23.311  0.00  0.00    +0.000 C 
ENDBRANCH   8  31
BRANCH  13  33
ATOM     33  S   UNL     1      -6.268  10.876  18.246  0.00  0.00    +0.000 S 
ATOM     34  C   UNL     1      -7.129  10.822  19.838  0.00  0.00    +0.000 C 
ENDBRANCH  13  33
TORSDOF 7
ENDMDL
MODEL 2
REMARK VINA RESULT:      -6.5      1.908      2.313
REMARK  Name = 
REMARK  12 active torsions:
REMARK  status: ('A' for Active; 'I' for Inactive)
REMARK    1  A    between atoms: C_1  and  C_2
REMARK    2  A    between atoms: C_3  and  C_4
REMARK    3  A    between atoms: C_5  and  C_6
REMARK    4  A    between atoms: N_8  and  C_9
REMARK    5  A    between atoms: C_14  and  O_15
REMARK    6  A    between atoms: O_15  and  C_16
REMARK    7  A    between atoms: C_17  and  O_18
REMARK    8  A    between atoms: O_18  and  C_19
REMARK    9  A    between atoms: C_20  and  O_21
REMARK   10  A    between atoms: O_21  and  C_22
REMARK   11  A    between atoms: C_27  and  S_28
REMARK   12  A    between atoms: S_28  and  C_29
REMARK                            x       y       z     vdW  Elec       q    Type
REMARK                         _______ _______ _______ _____ _____    ______ ____
ROOT
ATOM      1  C   UNL     1       0.823  10.688  19.897  0.00  0.00    +0.000 C 
ATOM      2  C   UNL     1       1.863  11.246  18.897  0.00  0.00    +0.000 C 
ATOM      3  C   UNL     1       1.596  12.693  18.456  0.00  0.00    +0.000 C 
ATOM      4  C   UNL     1       1.296  13.574  19.646  0.00  0.00    +0.000 A 
ATOM      5  C   UNL     1       2.308  14.440  20.083  0.00  0.00    +0.000 A 
ATOM      6  C   UNL     1       2.186  15.179  21.260  0.00  0.00    +0.000 A 
ATOM      7  C   UNL     1       1.001  15.089  22.020  0.00  0.00    +0.000 A 
ATOM      8  C   UNL     1      -0.065  14.254  21.557  0.00  0.00    +0.000 A 
ATOM      9  C   UNL     1       0.082  13.473  20.367  0.00  0.00    +0.000 A 
ATOM     10  C   UNL     1      -0.974  12.492  19.846  0.00  0.00    +0.000 A 
ATOM     11  C   UNL     1      -2.199  13.013  19.643  0.00  0.00    +0.000 A 
ATOM     12  C   UNL     1      -3.434  12.395  19.212  0.00  0.00    +0.000 A 
ATOM     13  C   UNL     1      -3.672  11.282  18.505  0.00  0.00    +0.000 A 
ATOM     14  C   UNL     1      -2.615  10.378  17.979  0.00  0.00    +0.000 A 
ATOM     15  O   UNL     1      -2.823   9.582  17.061  0.00  0.00    +0.000 OA
ATOM     16  C   UNL     1      -1.282  10.313  18.613  0.00  0.00    +0.000 A 
ATOM     17  C   UNL     1      -0.595  11.110  19.455  0.00  0.00    +0.000 A 
ENDROOT
BRANCH   1  20
ATOM     18  C   UNL     1       1.230   8.584  21.190  0.00  0.00    +0.000 C 
ATOM     19  O   UNL     1       1.473   9.135  22.255  0.00  0.00    +0.000 OA
ATOM     20  N   UNL     1       0.909   9.232  20.025  0.00  0.00    +0.000 N 
ATOM     21  H   UNL     1       0.561   8.660  19.270  0.00  0.00    +0.000 HD
BRANCH  18  23
ATOM     22  C   UNL     1       2.059   6.557  20.050  0.00  0.00    +0.000 C 
ATOM     23  C   UNL     1       1.290   7.108  21.001  0.00  0.00    +0.000 C 
BRANCH  22  26
ATOM     24  C   UNL     1       1.173   2.823  20.119  0.00  0.00    +0.000 C 
ATOM     25  C   UNL     1       1.148   4.302  20.338  0.00  0.00    +0.000 C 
ATOM     26  C   UNL     1       2.024   5.141  19.766  0.00  0.00    +0.000 C 
ENDBRANCH  22  26
ENDBRANCH  18  23
ENDBRANCH   1  20
BRANCH   6  27
ATOM     27  O   UNL     1       3.194  16.025  21.650  0.00  0.00    +0.000 OA
ATOM     28  C   UNL     1       4.229  15.457  22.449  0.00  0.00    +0.000 C 
ENDBRANCH   6  27
BRANCH   7  29
ATOM     29  O   UNL     1       0.797  15.714  23.227  0.00  0.00    +0.000 OA
ATOM     30  C   UNL     1       0.269  17.032  23.292  0.00  0.00    +0.000 C 
ENDBRANCH   7  29
BRANCH   8  31
ATOM     31  O   UNL     1      -1.259  14.057  22.224  0.00  0.00    +0.000 OA
ATOM     32  C   UNL     1      -1.317  13.079  23.257  0.00  0.00    +0.000 C 
ENDBRANCH   8  31
BRANCH  13  33
ATOM     33  S   UNL     1      -5.341  10.912  18.099  0.00  0.00    +0.000 S 
ATOM     34  C   UNL     1      -5.934  12.426  17.302  0.00  0.00    +0.000 C 
ENDBRANCH  13  33
TORSDOF 7
ENDMDL
MODEL 3
REMARK VINA RESULT:      -6.4      1.706      1.869
REMARK  Name = 
REMARK  12 active torsions:
REMARK  status: ('A' for Active; 'I' for Inactive)
REMARK    1  A    between atoms: C_1  and  C_2
REMARK    2  A    between atoms: C_3  and  C_4
REMARK    3  A    between atoms: C_5  and  C_6
REMARK    4  A    between atoms: N_8  and  C_9
REMARK    5  A    between atoms: C_14  and  O_15
REMARK    6  A    between atoms: O_15  and  C_16
REMARK    7  A    between atoms: C_17  and  O_18
REMARK    8  A    between atoms: O_18  and  C_19
REMARK    9  A    between atoms: C_20  and  O_21
REMARK   10  A    between atoms: O_21  and  C_22
REMARK   11  A    between atoms: C_27  and  S_28
REMARK   12  A    between atoms: S_28  and  C_29
REMARK                            x       y       z     vdW  Elec       q    Type
REMARK                         _______ _______ _______ _____ _____    ______ ____
ROOT
ATOM      1  C   UNL     1       0.128  11.622  21.154  0.00  0.00    +0.000 C 
ATOM      2  C   UNL     1       1.180  12.672  20.725  0.00  0.00    +0.000 C 
ATOM      3  C   UNL     1       0.610  14.083  20.516  0.00  0.00    +0.000 C 
ATOM      4  C   UNL     1      -0.280  14.483  21.671  0.00  0.00    +0.000 A 
ATOM      5  C   UNL     1       0.240  15.391  22.603  0.00  0.00    +0.000 A 
ATOM      6  C   UNL     1      -0.439  15.704  23.781  0.00  0.00    +0.000 A 
ATOM      7  C   UNL     1      -1.701  15.125  24.033  0.00  0.00    +0.000 A 
ATOM      8  C   UNL     1      -2.271  14.240  23.063  0.00  0.00    +0.000 A 
ATOM      9  C   UNL     1      -1.552  13.899  21.874  0.00  0.00    +0.000 A 
ATOM     10  C   UNL     1      -2.051  12.898  20.825  0.00  0.00    +0.000 A 
ATOM     11  C   UNL     1      -3.265  13.160  20.307  0.00  0.00    +0.000 A 
ATOM     12  C   UNL     1      -4.065  12.428  19.349  0.00  0.00    +0.000 A 
ATOM     13  C   UNL     1      -3.730  11.548  18.396  0.00  0.00    +0.000 A 
ATOM     14  C   UNL     1      -2.338  11.106  18.114  0.00  0.00    +0.000 A 
ATOM     15  O   UNL     1      -2.014  10.589  17.044  0.00  0.00    +0.000 OA
ATOM     16  C   UNL     1      -1.292  11.167  19.156  0.00  0.00    +0.000 A 
ATOM     17  C   UNL     1      -1.161  11.817  20.329  0.00  0.00    +0.000 A 
ENDROOT
BRANCH   1  20
ATOM     18  C   UNL     1       0.900   9.423  22.068  0.00  0.00    +0.000 C 
ATOM     19  O   UNL     1       0.753   9.718  23.247  0.00  0.00    +0.000 OA
ATOM     20  N   UNL     1       0.628  10.253  21.011  0.00  0.00    +0.000 N 
ATOM     21  H   UNL     1       0.623   9.832  20.095  0.00  0.00    +0.000 HD
BRANCH  18  23
ATOM     22  C   UNL     1       1.755   7.893  20.330  0.00  0.00    +0.000 C 
ATOM     23  C   UNL     1       1.442   8.113  21.615  0.00  0.00    +0.000 C 
BRANCH  22  26
ATOM     24  C   UNL     1       2.370   4.114  20.070  0.00  0.00    +0.000 C 
ATOM     25  C   UNL     1       1.876   5.454  20.511  0.00  0.00    +0.000 C 
ATOM     26  C   UNL     1       2.152   6.590  19.853  0.00  0.00    +0.000 C 
ENDBRANCH  22  26
ENDBRANCH  18  23
ENDBRANCH   1  20
BRANCH   6  27
ATOM     27  O   UNL     1       0.096  16.606  24.666  0.00  0.00    +0.000 OA
ATOM     28  C   UNL     1      -0.093  17.987  24.362  0.00  0.00    +0.000 C 
ENDBRANCH   6  27
BRANCH   7  29
ATOM     29  O   UNL     1      -2.427  15.305  25.187  0.00  0.00    +0.000 OA
ATOM     30  C   UNL     1      -3.396  16.339  25.291  0.00  0.00    +0.000 C 
ENDBRANCH   7  29
BRANCH   8  31
ATOM     31  O   UNL     1      -3.481  13.588  23.206  0.00  0.00    +0.000 OA
ATOM     32  C   UNL     1      -3.530  12.390  23.974  0.00  0.00    +0.000 C 
ENDBRANCH   8  31
BRANCH  13  33
ATOM     33  S   UNL     1      -5.008  10.940  17.356  0.00  0.00    +0.000 S 
ATOM     34  C   UNL     1      -6.506  11.151  18.350  0.00  0.00    +0.000 C 
ENDBRANCH  13  33
TORSDOF 7
ENDMDL
MODEL 4
REMARK VINA RESULT:      -6.3      1.333      1.434
REMARK  Name = 
REMARK  12 active torsions:
REMARK  status: ('A' for Active; 'I' for Inactive)
REMARK    1  A    between atoms: C_1  and  C_2
REMARK    2  A    between atoms: C_3  and  C_4
REMARK    3  A    between atoms: C_5  and  C_6
REMARK    4  A    between atoms: N_8  and  C_9
REMARK    5  A    between atoms: C_14  and  O_15
REMARK    6  A    between atoms: O_15  and  C_16
REMARK    7  A    between atoms: C_17  and  O_18
REMARK    8  A    between atoms: O_18  and  C_19
REMARK    9  A    between atoms: C_20  and  O_21
REMARK   10  A    between atoms: O_21  and  C_22
REMARK   11  A    between atoms: C_27  and  S_28
REMARK   12  A    between atoms: S_28  and  C_29
REMARK                            x       y       z     vdW  Elec       q    Type
REMARK                         _______ _______ _______ _____ _____    ______ ____
ROOT
ATOM      1  C   UNL     1       0.311  11.059  20.300  0.00  0.00    +0.000 C 
ATOM      2  C   UNL     1       1.362  11.881  19.517  0.00  0.00    +0.000 C 
ATOM      3  C   UNL     1       0.963  13.344  19.277  0.00  0.00    +0.000 C 
ATOM      4  C   UNL     1       0.451  13.981  20.549  0.00  0.00    +0.000 A 
ATOM      5  C   UNL     1       1.307  14.865  21.220  0.00  0.00    +0.000 A 
ATOM      6  C   UNL     1       0.991  15.383  22.476  0.00  0.00    +0.000 A 
ATOM      7  C   UNL     1      -0.239  15.045  23.079  0.00  0.00    +0.000 A 
ATOM      8  C   UNL     1      -1.149  14.190  22.381  0.00  0.00    +0.000 A 
ATOM      9  C   UNL     1      -0.801  13.636  21.108  0.00  0.00    +0.000 A 
ATOM     10  C   UNL     1      -1.679  12.648  20.331  0.00  0.00    +0.000 A 
ATOM     11  C   UNL     1      -2.934  13.064  20.079  0.00  0.00    +0.000 A 
ATOM     12  C   UNL     1      -4.041  12.398  19.426  0.00  0.00    +0.000 A 
ATOM     13  C   UNL     1      -4.078  11.399  18.535  0.00  0.00    +0.000 A 
ATOM     14  C   UNL     1      -2.876  10.710  17.995  0.00  0.00    +0.000 A 
ATOM     15  O   UNL     1      -2.902  10.059  16.950  0.00  0.00    +0.000 OA
ATOM     16  C   UNL     1      -1.608  10.682  18.753  0.00  0.00    +0.000 A 
ATOM     17  C   UNL     1      -1.101  11.397  19.777  0.00  0.00    +0.000 A 
ENDROOT
BRANCH   1  20
ATOM     18  C   UNL     1       1.160   8.885  21.203  0.00  0.00    +0.000 C 
ATOM     19  O   UNL     1       1.549   9.335  22.273  0.00  0.00    +0.000 OA
ATOM     20  N   UNL     1       0.561   9.619  20.212  0.00  0.00    +0.000 N 
ATOM     21  H   UNL     1       0.132   9.101  19.461  0.00  0.00    +0.000 HD
BRANCH  18  23
ATOM     22  C   UNL     1       2.248   7.087  19.908  0.00  0.00    +0.000 C 
ATOM     23  C   UNL     1       1.327   7.459  20.808  0.00  0.00    +0.000 C 
BRANCH  22  26
ATOM     24  C   UNL     1       2.080   3.989  17.647  0.00  0.00    +0.000 C 
ATOM     25  C   UNL     1       2.092   5.402  18.137  0.00  0.00    +0.000 C 
ATOM     26  C   UNL     1       2.330   5.732  19.415  0.00  0.00    +0.000 C 
ENDBRANCH  22  26
ENDBRANCH  18  23
ENDBRANCH   1  20
BRANCH   6  27
ATOM     27  O   UNL     1       1.849  16.254  23.098  0.00  0.00    +0.000 OA
ATOM     28  C   UNL     1       1.934  17.567  22.549  0.00  0.00    +0.000 C 
ENDBRANCH   6  27
BRANCH   7  29
ATOM     29  O   UNL     1      -0.625  15.438  24.339  0.00  0.00    +0.000 OA
ATOM     30  C   UNL     1      -1.316  16.662  24.546  0.00  0.00    +0.000 C 
ENDBRANCH   7  29
BRANCH   8  31
ATOM     31  O   UNL     1      -2.366  13.761  22.876  0.00  0.00    +0.000 OA
ATOM     32  C   UNL     1      -2.411  12.568  23.652  0.00  0.00    +0.000 C 
ENDBRANCH   8  31
BRANCH  13  33
ATOM     33  S   UNL     1      -5.646  10.927  17.898  0.00  0.00    +0.000 S 
ATOM     34  C   UNL     1      -6.333  12.476  17.260  0.00  0.00    +0.000 C 
ENDBRANCH  13  33
TORSDOF 7
ENDMDL
MODEL 5
REMARK VINA RESULT:      -6.2      3.742      6.096
REMARK  Name = 
REMARK  12 active torsions:
REMARK  status: ('A' for Active; 'I' for Inactive)
REMARK    1  A    between atoms: C_1  and  C_2
REMARK    2  A    between atoms: C_3  and  C_4
REMARK    3  A    between atoms: C_5  and  C_6
REMARK    4  A    between atoms: N_8  and  C_9
REMARK    5  A    between atoms: C_14  and  O_15
REMARK    6  A    between atoms: O_15  and  C_16
REMARK    7  A    between atoms: C_17  and  O_18
REMARK    8  A    between atoms: O_18  and  C_19
REMARK    9  A    between atoms: C_20  and  O_21
REMARK   10  A    between atoms: O_21  and  C_22
REMARK   11  A    between atoms: C_27  and  S_28
REMARK   12  A    between atoms: S_28  and  C_29
REMARK                            x       y       z     vdW  Elec       q    Type
REMARK                         _______ _______ _______ _____ _____    ______ ____
ROOT
ATOM      1  C   UNL     1      -1.329  12.084  19.282  0.00  0.00    +0.000 C 
ATOM      2  C   UNL     1      -1.186  10.804  20.138  0.00  0.00    +0.000 C 
ATOM      3  C   UNL     1      -0.626  11.050  21.547  0.00  0.00    +0.000 C 
ATOM      4  C   UNL     1      -1.334  12.206  22.215  0.00  0.00    +0.000 A 
ATOM      5  C   UNL     1      -2.279  11.902  23.204  0.00  0.00    +0.000 A 
ATOM      6  C   UNL     1      -3.093  12.884  23.770  0.00  0.00    +0.000 A 
ATOM      7  C   UNL     1      -2.943  14.229  23.369  0.00  0.00    +0.000 A 
ATOM      8  C   UNL     1      -1.943  14.564  22.402  0.00  0.00    +0.000 A 
ATOM      9  C   UNL     1      -1.135  13.545  21.803  0.00  0.00    +0.000 A 
ATOM     10  C   UNL     1      -0.101  13.804  20.702  0.00  0.00    +0.000 A 
ATOM     11  C   UNL     1       0.843  14.717  20.998  0.00  0.00    +0.000 A 
ATOM     12  C   UNL     1       1.932  15.247  20.207  0.00  0.00    +0.000 A 
ATOM     13  C   UNL     1       2.595  14.746  19.156  0.00  0.00    +0.000 A 
ATOM     14  C   UNL     1       2.309  13.424  18.536  0.00  0.00    +0.000 A 
ATOM     15  O   UNL     1       3.126  12.839  17.823  0.00  0.00    +0.000 OA
ATOM     16  C   UNL     1       0.977  12.796  18.657  0.00  0.00    +0.000 A 
ATOM     17  C   UNL     1      -0.082  12.974  19.471  0.00  0.00    +0.000 A 
ENDROOT
BRANCH   1  20
ATOM     18  C   UNL     1      -2.722  11.346  17.338  0.00  0.00    +0.000 C 
ATOM     19  O   UNL     1      -3.751  11.172  17.978  0.00  0.00    +0.000 OA
ATOM     20  N   UNL     1      -1.532  11.779  17.864  0.00  0.00    +0.000 N 
ATOM     21  H   UNL     1      -0.818  12.049  17.206  0.00  0.00    +0.000 HD
BRANCH  18  23
ATOM     22  C   UNL     1      -3.563  10.389  15.223  0.00  0.00    +0.000 C 
ATOM     23  C   UNL     1      -2.611  11.068  15.880  0.00  0.00    +0.000 C 
BRANCH  22  26
ATOM     24  C   UNL     1      -4.265   9.561  11.542  0.00  0.00    +0.000 C 
ATOM     25  C   UNL     1      -4.399  10.059  12.945  0.00  0.00    +0.000 C 
ATOM     26  C   UNL     1      -3.405   9.995  13.843  0.00  0.00    +0.000 C 
ENDBRANCH  22  26
ENDBRANCH  18  23
ENDBRANCH   1  20
BRANCH   6  27
ATOM     27  O   UNL     1      -4.000  12.551  24.744  0.00  0.00    +0.000 OA
ATOM     28  C   UNL     1      -5.361  12.432  24.334  0.00  0.00    +0.000 C 
ENDBRANCH   6  27
BRANCH   7  29
ATOM     29  O   UNL     1      -3.733  15.267  23.804  0.00  0.00    +0.000 OA
ATOM     30  C   UNL     1      -3.418  15.982  24.991  0.00  0.00    +0.000 C 
ENDBRANCH   7  29
BRANCH   8  31
ATOM     31  O   UNL     1      -1.719  15.834  21.906  0.00  0.00    +0.000 OA
ATOM     32  C   UNL     1      -2.586  16.341  20.898  0.00  0.00    +0.000 C 
ENDBRANCH   8  31
BRANCH  13  33
ATOM     33  S   UNL     1       3.945  15.672  18.521  0.00  0.00    +0.000 S 
ATOM     34  C   UNL     1       4.181  16.982  19.748  0.00  0.00    +0.000 C 
ENDBRANCH  13  33
TORSDOF 7
ENDMDL
MODEL 6
REMARK VINA RESULT:      -6.2      2.292      2.995
REMARK  Name = 
REMARK  12 active torsions:
REMARK  status: ('A' for Active; 'I' for Inactive)
REMARK    1  A    between atoms: C_1  and  C_2
REMARK    2  A    between atoms: C_3  and  C_4
REMARK    3  A    between atoms: C_5  and  C_6
REMARK    4  A    between atoms: N_8  and  C_9
REMARK    5  A    between atoms: C_14  and  O_15
REMARK    6  A    between atoms: O_15  and  C_16
REMARK    7  A    between atoms: C_17  and  O_18
REMARK    8  A    between atoms: O_18  and  C_19
REMARK    9  A    between atoms: C_20  and  O_21
REMARK   10  A    between atoms: O_21  and  C_22
REMARK   11  A    between atoms: C_27  and  S_28
REMARK   12  A    between atoms: S_28  and  C_29
REMARK                            x       y       z     vdW  Elec       q    Type
REMARK                         _______ _______ _______ _____ _____    ______ ____
ROOT
ATOM      1  C   UNL     1       1.191  11.006  19.795  0.00  0.00    +0.000 C 
ATOM      2  C   UNL     1       2.015  11.466  18.569  0.00  0.00    +0.000 C 
ATOM      3  C   UNL     1       1.874  12.960  18.242  0.00  0.00    +0.000 C 
ATOM      4  C   UNL     1       2.031  13.803  19.487  0.00  0.00    +0.000 A 
ATOM      5  C   UNL     1       3.244  14.483  19.659  0.00  0.00    +0.000 A 
ATOM      6  C   UNL     1       3.545  15.160  20.842  0.00  0.00    +0.000 A 
ATOM      7  C   UNL     1       2.594  15.199  21.884  0.00  0.00    +0.000 A 
ATOM      8  C   UNL     1       1.329  14.557  21.701  0.00  0.00    +0.000 A 
ATOM      9  C   UNL     1       1.041  13.837  20.498  0.00  0.00    +0.000 A 
ATOM     10  C   UNL     1      -0.253  13.053  20.253  0.00  0.00    +0.000 A 
ATOM     11  C   UNL     1      -1.391  13.759  20.388  0.00  0.00    +0.000 A 
ATOM     12  C   UNL     1      -2.777  13.355  20.284  0.00  0.00    +0.000 A 
ATOM     13  C   UNL     1      -3.360  12.334  19.643  0.00  0.00    +0.000 A 
ATOM     14  C   UNL     1      -2.628  11.318  18.840  0.00  0.00    +0.000 A 
ATOM     15  O   UNL     1      -3.186  10.618  17.994  0.00  0.00    +0.000 OA
ATOM     16  C   UNL     1      -1.204  11.021  19.101  0.00  0.00    +0.000 A 
ATOM     17  C   UNL     1      -0.208  11.657  19.749  0.00  0.00    +0.000 A 
ENDROOT
BRANCH   1  20
ATOM     18  C   UNL     1       1.218   8.826  21.024  0.00  0.00    +0.000 C 
ATOM     19  O   UNL     1       1.446   9.305  22.127  0.00  0.00    +0.000 OA
ATOM     20  N   UNL     1       1.078   9.548  19.867  0.00  0.00    +0.000 N 
ATOM     21  H   UNL     1       0.720   9.053  19.065  0.00  0.00    +0.000 HD
BRANCH  18  23
ATOM     22  C   UNL     1       2.113   6.662  20.241  0.00  0.00    +0.000 C 
ATOM     23  C   UNL     1       1.102   7.362  20.777  0.00  0.00    +0.000 C 
BRANCH  22  26
ATOM     24  C   UNL     1       1.071   2.968  20.195  0.00  0.00    +0.000 C 
ATOM     25  C   UNL     1       1.150   4.427  20.515  0.00  0.00    +0.000 C 
ATOM     26  C   UNL     1       1.967   5.274  19.872  0.00  0.00    +0.000 C 
ENDBRANCH  22  26
ENDBRANCH  18  23
ENDBRANCH   1  20
BRANCH   6  27
ATOM     27  O   UNL     1       4.739  15.824  20.971  0.00  0.00    +0.000 OA
ATOM     28  C   UNL     1       5.885  15.025  21.253  0.00  0.00    +0.000 C 
ENDBRANCH   6  27
BRANCH   7  29
ATOM     29  O   UNL     1       2.808  15.773  23.115  0.00  0.00    +0.000 OA
ATOM     30  C   UNL     1       2.790  17.184  23.279  0.00  0.00    +0.000 C 
ENDBRANCH   7  29
BRANCH   8  31
ATOM     31  O   UNL     1       0.330  14.497  22.654  0.00  0.00    +0.000 OA
ATOM     32  C   UNL     1      -0.430  15.669  22.928  0.00  0.00    +0.000 C 
ENDBRANCH   8  31
BRANCH  13  33
ATOM     33  S   UNL     1      -5.113  12.237  19.681  0.00  0.00    +0.000 S 
ATOM     34  C   UNL     1      -5.529  12.672  21.389  0.00  0.00    +0.000 C 
ENDBRANCH  13  33
TORSDOF 7
ENDMDL
MODEL 7
REMARK VINA RESULT:      -6.0      1.509      1.742
REMARK  Name = 
REMARK  12 active torsions:
REMARK  status: ('A' for Active; 'I' for Inactive)
REMARK    1  A    between atoms: C_1  and  C_2
REMARK    2  A    between atoms: C_3  and  C_4
REMARK    3  A    between atoms: C_5  and  C_6
REMARK    4  A    between atoms: N_8  and  C_9
REMARK    5  A    between atoms: C_14  and  O_15
REMARK    6  A    between atoms: O_15  and  C_16
REMARK    7  A    between atoms: C_17  and  O_18
REMARK    8  A    between atoms: O_18  and  C_19
REMARK    9  A    between atoms: C_20  and  O_21
REMARK   10  A    between atoms: O_21  and  C_22
REMARK   11  A    between atoms: C_27  and  S_28
REMARK   12  A    between atoms: S_28  and  C_29
REMARK                            x       y       z     vdW  Elec       q    Type
REMARK                         _______ _______ _______ _____ _____    ______ ____
ROOT
ATOM      1  C   UNL     1       0.943  11.023  19.507  0.00  0.00    +0.000 C 
ATOM      2  C   UNL     1       1.856  11.859  18.579  0.00  0.00    +0.000 C 
ATOM      3  C   UNL     1       1.375  13.301  18.358  0.00  0.00    +0.000 C 
ATOM      4  C   UNL     1       1.004  13.954  19.669  0.00  0.00    +0.000 A 
ATOM      5  C   UNL     1       1.904  14.885  20.207  0.00  0.00    +0.000 A 
ATOM      6  C   UNL     1       1.728  15.425  21.481  0.00  0.00    +0.000 A 
ATOM      7  C   UNL     1       0.597  15.062  22.243  0.00  0.00    +0.000 A 
ATOM      8  C   UNL     1      -0.361  14.157  21.684  0.00  0.00    +0.000 A 
ATOM      9  C   UNL     1      -0.155  13.581  20.391  0.00  0.00    +0.000 A 
ATOM     10  C   UNL     1      -1.085  12.543  19.753  0.00  0.00    +0.000 A 
ATOM     11  C   UNL     1      -2.377  12.909  19.652  0.00  0.00    +0.000 A 
ATOM     12  C   UNL     1      -3.531  12.188  19.160  0.00  0.00    +0.000 A 
ATOM     13  C   UNL     1      -3.643  11.165  18.303  0.00  0.00    +0.000 A 
ATOM     14  C   UNL     1      -2.492  10.503  17.631  0.00  0.00    +0.000 A 
ATOM     15  O   UNL     1      -2.625   9.823  16.613  0.00  0.00    +0.000 OA
ATOM     16  C   UNL     1      -1.139  10.539  18.224  0.00  0.00    +0.000 A 
ATOM     17  C   UNL     1      -0.536  11.299  19.159  0.00  0.00    +0.000 A 
ENDROOT
BRANCH   1  20
ATOM     18  C   UNL     1       1.835   8.997  18.341  0.00  0.00    +0.000 C 
ATOM     19  O   UNL     1       2.205   9.583  17.332  0.00  0.00    +0.000 OA
ATOM     20  N   UNL     1       1.234   9.591  19.420  0.00  0.00    +0.000 N 
ATOM     21  H   UNL     1       1.140   9.029  20.252  0.00  0.00    +0.000 HD
BRANCH  18  23
ATOM     22  C   UNL     1       2.961   6.831  17.967  0.00  0.00    +0.000 C 
ATOM     23  C   UNL     1       1.953   7.523  18.519  0.00  0.00    +0.000 C 
BRANCH  22  26
ATOM     24  C   UNL     1       1.970   3.123  17.969  0.00  0.00    +0.000 C 
ATOM     25  C   UNL     1       1.938   4.611  17.821  0.00  0.00    +0.000 C 
ATOM     26  C   UNL     1       3.013   5.389  18.016  0.00  0.00    +0.000 C 
ENDBRANCH  22  26
ENDBRANCH  18  23
ENDBRANCH   1  20
BRANCH   6  27
ATOM     27  O   UNL     1       2.625  16.342  21.970  0.00  0.00    +0.000 OA
ATOM     28  C   UNL     1       3.223  17.220  21.019  0.00  0.00    +0.000 C 
ENDBRANCH   6  27
BRANCH   7  29
ATOM     29  O   UNL     1       0.358  15.475  23.532  0.00  0.00    +0.000 OA
ATOM     30  C   UNL     1      -0.356  16.675  23.797  0.00  0.00    +0.000 C 
ENDBRANCH   7  29
BRANCH   8  31
ATOM     31  O   UNL     1      -1.489  13.701  22.339  0.00  0.00    +0.000 OA
ATOM     32  C   UNL     1      -1.380  12.561  23.184  0.00  0.00    +0.000 C 
ENDBRANCH   8  31
BRANCH  13  33
ATOM     33  S   UNL     1      -5.259  10.623  17.881  0.00  0.00    +0.000 S 
ATOM     34  C   UNL     1      -6.294  11.283  19.211  0.00  0.00    +0.000 C 
ENDBRANCH  13  33
TORSDOF 7
ENDMDL
MODEL 8
REMARK VINA RESULT:      -6.0      3.505      5.945
REMARK  Name = 
REMARK  12 active torsions:
REMARK  status: ('A' for Active; 'I' for Inactive)
REMARK    1  A    between atoms: C_1  and  C_2
REMARK    2  A    between atoms: C_3  and  C_4
REMARK    3  A    between atoms: C_5  and  C_6
REMARK    4  A    between atoms: N_8  and  C_9
REMARK    5  A    between atoms: C_14  and  O_15
REMARK    6  A    between atoms: O_15  and  C_16
REMARK    7  A    between atoms: C_17  and  O_18
REMARK    8  A    between atoms: O_18  and  C_19
REMARK    9  A    between atoms: C_20  and  O_21
REMARK   10  A    between atoms: O_21  and  C_22
REMARK   11  A    between atoms: C_27  and  S_28
REMARK   12  A    between atoms: S_28  and  C_29
REMARK                            x       y       z     vdW  Elec       q    Type
REMARK                         _______ _______ _______ _____ _____    ______ ____
ROOT
ATOM      1  C   UNL     1       0.851  12.739  18.850  0.00  0.00    +0.000 C 
ATOM      2  C   UNL     1      -0.348  12.994  17.907  0.00  0.00    +0.000 C 
ATOM      3  C   UNL     1      -1.598  12.167  18.242  0.00  0.00    +0.000 C 
ATOM      4  C   UNL     1      -1.906  12.228  19.721  0.00  0.00    +0.000 A 
ATOM      5  C   UNL     1      -2.970  13.045  20.128  0.00  0.00    +0.000 A 
ATOM      6  C   UNL     1      -3.235  13.288  21.476  0.00  0.00    +0.000 A 
ATOM      7  C   UNL     1      -2.441  12.670  22.465  0.00  0.00    +0.000 A 
ATOM      8  C   UNL     1      -1.388  11.788  22.066  0.00  0.00    +0.000 A 
ATOM      9  C   UNL     1      -1.101  11.570  20.681  0.00  0.00    +0.000 A 
ATOM     10  C   UNL     1       0.058  10.709  20.168  0.00  0.00    +0.000 A 
ATOM     11  C   UNL     1       0.082   9.441  20.621  0.00  0.00    +0.000 A 
ATOM     12  C   UNL     1       1.030   8.372  20.397  0.00  0.00    +0.000 A 
ATOM     13  C   UNL     1       1.899   8.146  19.403  0.00  0.00    +0.000 A 
ATOM     14  C   UNL     1       2.080   9.039  18.227  0.00  0.00    +0.000 A 
ATOM     15  O   UNL     1       2.607   8.655  17.182  0.00  0.00    +0.000 OA
ATOM     16  C   UNL     1       1.733  10.474  18.297  0.00  0.00    +0.000 A 
ATOM     17  C   UNL     1       0.979  11.225  19.123  0.00  0.00    +0.000 A 
ENDROOT
BRANCH   1  20
ATOM     18  C   UNL     1       2.544  14.551  18.518  0.00  0.00    +0.000 C 
ATOM     19  O   UNL     1       1.960  15.395  19.184  0.00  0.00    +0.000 OA
ATOM     20  N   UNL     1       2.102  13.271  18.306  0.00  0.00    +0.000 N 
ATOM     21  H   UNL     1       2.757  12.629  17.890  0.00  0.00    +0.000 HD
BRANCH  18  23
ATOM     22  C   UNL     1       5.009  14.624  18.386  0.00  0.00    +0.000 C 
ATOM     23  C   UNL     1       3.820  14.819  17.797  0.00  0.00    +0.000 C 
BRANCH  22  26
ATOM     24  C   UNL     1       8.592  15.860  17.779  0.00  0.00    +0.000 C 
ATOM     25  C   UNL     1       7.341  15.370  18.436  0.00  0.00    +0.000 C 
ATOM     26  C   UNL     1       6.247  15.007  17.750  0.00  0.00    +0.000 C 
ENDBRANCH  22  26
ENDBRANCH  18  23
ENDBRANCH   1  20
BRANCH   6  27
ATOM     27  O   UNL     1      -4.292  14.086  21.837  0.00  0.00    +0.000 OA
ATOM     28  C   UNL     1      -4.026  15.481  21.956  0.00  0.00    +0.000 C 
ENDBRANCH   6  27
BRANCH   7  29
ATOM     29  O   UNL     1      -2.566  12.891  23.817  0.00  0.00    +0.000 OA
ATOM     30  C   UNL     1      -3.740  12.506  24.518  0.00  0.00    +0.000 C 
ENDBRANCH   7  29
BRANCH   8  31
ATOM     31  O   UNL     1      -0.524  11.148  22.935  0.00  0.00    +0.000 OA
ATOM     32  C   UNL     1      -0.873   9.860  23.429  0.00  0.00    +0.000 C 
ENDBRANCH   8  31
BRANCH  13  33
ATOM     33  S   UNL     1       2.827   6.655  19.449  0.00  0.00    +0.000 S 
ATOM     34  C   UNL     1       1.866   5.586  20.549  0.00  0.00    +0.000 C 
ENDBRANCH  13  33
TORSDOF 7
ENDMDL
MODEL 9
REMARK VINA RESULT:      -6.0      0.947      1.003
REMARK  Name = 
REMARK  12 active torsions:
REMARK  status: ('A' for Active; 'I' for Inactive)
REMARK    1  A    between atoms: C_1  and  C_2
REMARK    2  A    between atoms: C_3  and  C_4
REMARK    3  A    between atoms: C_5  and  C_6
REMARK    4  A    between atoms: N_8  and  C_9
REMARK    5  A    between atoms: C_14  and  O_15
REMARK    6  A    between atoms: O_15  and  C_16
REMARK    7  A    between atoms: C_17  and  O_18
REMARK    8  A    between atoms: O_18  and  C_19
REMARK    9  A    between atoms: C_20  and  O_21
REMARK   10  A    between atoms: O_21  and  C_22
REMARK   11  A    between atoms: C_27  and  S_28
REMARK   12  A    between atoms: S_28  and  C_29
REMARK                            x       y       z     vdW  Elec       q    Type
REMARK                         _______ _______ _______ _____ _____    ______ ____
ROOT
ATOM      1  C   UNL     1       0.008  12.171  20.140  0.00  0.00    +0.000 C 
ATOM      2  C   UNL     1       0.746  13.361  19.482  0.00  0.00    +0.000 C 
ATOM      3  C   UNL     1       0.008  14.702  19.603  0.00  0.00    +0.000 C 
ATOM      4  C   UNL     1      -0.468  14.932  21.019  0.00  0.00    +0.000 A 
ATOM      5  C   UNL     1       0.250  15.845  21.804  0.00  0.00    +0.000 A 
ATOM      6  C   UNL     1      -0.013  16.012  23.163  0.00  0.00    +0.000 A 
ATOM      7  C   UNL     1      -1.053  15.274  23.768  0.00  0.00    +0.000 A 
ATOM      8  C   UNL     1      -1.833  14.380  22.968  0.00  0.00    +0.000 A 
ATOM      9  C   UNL     1      -1.534  14.190  21.581  0.00  0.00    +0.000 A 
ATOM     10  C   UNL     1      -2.263  13.193  20.673  0.00  0.00    +0.000 A 
ATOM     11  C   UNL     1      -3.601  13.335  20.614  0.00  0.00    +0.000 A 
ATOM     12  C   UNL     1      -4.606  12.565  19.915  0.00  0.00    +0.000 A 
ATOM     13  C   UNL     1      -4.534  11.783  18.830  0.00  0.00    +0.000 A 
ATOM     14  C   UNL     1      -3.287  11.526  18.061  0.00  0.00    +0.000 A 
ATOM     15  O   UNL     1      -3.300  11.109  16.902  0.00  0.00    +0.000 OA
ATOM     16  C   UNL     1      -1.959  11.656  18.697  0.00  0.00    +0.000 A 
ATOM     17  C   UNL     1      -1.498  12.255  19.813  0.00  0.00    +0.000 A 
ENDROOT
BRANCH   1  20
ATOM     18  C   UNL     1       0.786   9.831  20.567  0.00  0.00    +0.000 C 
ATOM     19  O   UNL     1       0.559   9.839  21.770  0.00  0.00    +0.000 OA
ATOM     20  N   UNL     1       0.555  10.881  19.716  0.00  0.00    +0.000 N 
ATOM     21  H   UNL     1       0.619  10.686  18.729  0.00  0.00    +0.000 HD
BRANCH  18  23
ATOM     22  C   UNL     1       1.849   8.781  18.601  0.00  0.00    +0.000 C 
ATOM     23  C   UNL     1       1.394   8.671  19.858  0.00  0.00    +0.000 C 
BRANCH  22  26
ATOM     24  C   UNL     1       3.263   5.335  17.676  0.00  0.00    +0.000 C 
ATOM     25  C   UNL     1       2.688   6.486  18.438  0.00  0.00    +0.000 C 
ATOM     26  C   UNL     1       2.315   7.636  17.856  0.00  0.00    +0.000 C 
ENDBRANCH  22  26
ENDBRANCH  18  23
ENDBRANCH   1  20
BRANCH   6  27
ATOM     27  O   UNL     1       0.704  16.923  23.897  0.00  0.00    +0.000 OA
ATOM     28  C   UNL     1       0.595  18.288  23.501  0.00  0.00    +0.000 C 
ENDBRANCH   6  27
BRANCH   7  29
ATOM     29  O   UNL     1      -1.355  15.304  25.109  0.00  0.00    +0.000 OA
ATOM     30  C   UNL     1      -1.958  16.447  25.699  0.00  0.00    +0.000 C 
ENDBRANCH   7  29
BRANCH   8  31
ATOM     31  O   UNL     1      -2.854  13.580  23.446  0.00  0.00    +0.000 OA
ATOM     32  C   UNL     1      -4.081  14.190  23.831  0.00  0.00    +0.000 C 
ENDBRANCH   8  31
BRANCH  13  33
ATOM     33  S   UNL     1      -6.027  11.083  18.224  0.00  0.00    +0.000 S 
ATOM     34  C   UNL     1      -7.008  10.806  19.720  0.00  0.00    +0.000 C 
ENDBRANCH  13  33
TORSDOF 7
ENDMDL
