MODEL 1
REMARK VINA RESULT:      -8.2      0.000      0.000
REMARK  Name = 
REMARK  11 active torsions:
REMARK  status: ('A' for Active; 'I' for Inactive)
REMARK    1  A    between atoms: C_1  and  C_2
REMARK    2  A    between atoms: C_2  and  O_3
REMARK    3  A    between atoms: O_3  and  C_4
REMARK    4  A    between atoms: N_6  and  C_7
REMARK    5  A    between atoms: C_10  and  O_11
REMARK    6  A    between atoms: O_11  and  C_12
REMARK    7  A    between atoms: C_18  and  O_19
REMARK    8  A    between atoms: O_19  and  C_20
REMARK    9  A    between atoms: C_21  and  O_22
REMARK   10  A    between atoms: O_22  and  C_23
REMARK   11  A    between atoms: C_27  and  C_28
REMARK                            x       y       z     vdW  Elec       q    Type
REMARK                         _______ _______ _______ _____ _____    ______ ____
ROOT
ATOM      1  O   UNL     1       3.244   6.729  19.521  0.00  0.00    +0.000 OA
ENDROOT
BRANCH   1   2
ATOM      2  C   UNL     1       3.194   5.582  18.736  0.00  0.00    +0.000 A 
ATOM      3  N   UNL     1       2.135   4.764  18.879  0.00  0.00    +0.000 NA
ATOM      4  C   UNL     1       2.112   3.726  18.046  0.00  0.00    +0.000 A 
ATOM      5  N   UNL     1       3.023   3.442  17.104  0.00  0.00    +0.000 NA
ATOM      6  C   UNL     1       4.083   4.261  17.005  0.00  0.00    +0.000 A 
ATOM      7  C   UNL     1       5.036   4.063  16.003  0.00  0.00    +0.000 A 
ATOM      8  C   UNL     1       6.161   4.902  15.813  0.00  0.00    +0.000 A 
ATOM      9  C   UNL     1       6.374   5.947  16.713  0.00  0.00    +0.000 A 
ATOM     10  C   UNL     1       5.406   6.156  17.716  0.00  0.00    +0.000 A 
ATOM     11  C   UNL     1       4.251   5.357  17.844  0.00  0.00    +0.000 A 
BRANCH   8  12
ATOM     12  O   UNL     1       6.758   4.717  14.593  0.00  0.00    +0.000 OA
ATOM     13  C   UNL     1       6.119   3.889  13.634  0.00  0.00    +0.000 C 
ENDBRANCH   8  12
BRANCH   9  14
ATOM     14  O   UNL     1       7.326   6.912  16.816  0.00  0.00    +0.000 OA
ATOM     15  C   UNL     1       7.847   7.360  18.044  0.00  0.00    +0.000 C 
ENDBRANCH   9  14
ENDBRANCH   1   2
BRANCH   1  19
ATOM     16  C   UNL     1       0.472   9.706  18.484  0.00  0.00    +0.000 A 
ATOM     17  C   UNL     1       1.298   9.075  17.545  0.00  0.00    +0.000 A 
ATOM     18  C   UNL     1       2.214   8.092  17.920  0.00  0.00    +0.000 A 
ATOM     19  C   UNL     1       2.354   7.746  19.255  0.00  0.00    +0.000 A 
ATOM     20  C   UNL     1       1.536   8.365  20.207  0.00  0.00    +0.000 A 
ATOM     21  C   UNL     1       0.590   9.348  19.838  0.00  0.00    +0.000 A 
ATOM     22  C   UNL     1      -0.271   9.947  20.919  0.00  0.00    +0.000 C 
BRANCH  16  25
ATOM     23  C   UNL     1      -1.784  10.533  17.835  0.00  0.00    +0.000 C 
ATOM     24  O   UNL     1      -2.444   9.528  18.092  0.00  0.00    +0.000 OA
ATOM     25  N   UNL     1      -0.446  10.712  18.087  0.00  0.00    +0.000 N 
ATOM     26  H   UNL     1      -0.114  11.652  17.940  0.00  0.00    +0.000 HD
BRANCH  23  27
ATOM     27  O   UNL     1      -2.295  11.617  17.210  0.00  0.00    +0.000 OA
BRANCH  27  29
ATOM     28  C   UNL     1      -2.994  10.635  15.131  0.00  0.00    +0.000 C 
ATOM     29  C   UNL     1      -3.457  11.318  16.409  0.00  0.00    +0.000 C 
ENDBRANCH  27  29
ENDBRANCH  23  27
ENDBRANCH  16  25
ENDBRANCH   1  19
TORSDOF 7
ENDMDL
MODEL 2
REMARK VINA RESULT:      -8.0      1.293      1.620
REMARK  Name = 
REMARK  11 active torsions:
REMARK  status: ('A' for Active; 'I' for Inactive)
REMARK    1  A    between atoms: C_1  and  C_2
REMARK    2  A    between atoms: C_2  and  O_3
REMARK    3  A    between atoms: O_3  and  C_4
REMARK    4  A    between atoms: N_6  and  C_7
REMARK    5  A    between atoms: C_10  and  O_11
REMARK    6  A    between atoms: O_11  and  C_12
REMARK    7  A    between atoms: C_18  and  O_19
REMARK    8  A    between atoms: O_19  and  C_20
REMARK    9  A    between atoms: C_21  and  O_22
REMARK   10  A    between atoms: O_22  and  C_23
REMARK   11  A    between atoms: C_27  and  C_28
REMARK                            x       y       z     vdW  Elec       q    Type
REMARK                         _______ _______ _______ _____ _____    ______ ____
ROOT
ATOM      1  O   UNL     1       3.408   6.461  19.511  0.00  0.00    +0.000 OA
ENDROOT
BRANCH   1   2
ATOM      2  C   UNL     1       3.302   5.375  18.649  0.00  0.00    +0.000 A 
ATOM      3  N   UNL     1       2.201   4.607  18.731  0.00  0.00    +0.000 NA
ATOM      4  C   UNL     1       2.128   3.631  17.828  0.00  0.00    +0.000 A 
ATOM      5  N   UNL     1       3.031   3.365  16.872  0.00  0.00    +0.000 NA
ATOM      6  C   UNL     1       4.133   4.131  16.834  0.00  0.00    +0.000 A 
ATOM      7  C   UNL     1       5.081   3.952  15.824  0.00  0.00    +0.000 A 
ATOM      8  C   UNL     1       6.251   4.741  15.696  0.00  0.00    +0.000 A 
ATOM      9  C   UNL     1       6.512   5.709  16.667  0.00  0.00    +0.000 A 
ATOM     10  C   UNL     1       5.549   5.900  17.678  0.00  0.00    +0.000 A 
ATOM     11  C   UNL     1       4.352   5.156  17.747  0.00  0.00    +0.000 A 
BRANCH   8  12
ATOM     12  O   UNL     1       6.845   4.608  14.468  0.00  0.00    +0.000 OA
ATOM     13  C   UNL     1       6.197   3.836  13.470  0.00  0.00    +0.000 C 
ENDBRANCH   8  12
BRANCH   9  14
ATOM     14  O   UNL     1       7.513   6.612  16.840  0.00  0.00    +0.000 OA
ATOM     15  C   UNL     1       7.820   7.202  18.080  0.00  0.00    +0.000 C 
ENDBRANCH   9  14
ENDBRANCH   1   2
BRANCH   1  19
ATOM     16  C   UNL     1       0.800   9.646  18.686  0.00  0.00    +0.000 A 
ATOM     17  C   UNL     1       1.694   9.130  17.739  0.00  0.00    +0.000 A 
ATOM     18  C   UNL     1       2.554   8.074  18.045  0.00  0.00    +0.000 A 
ATOM     19  C   UNL     1       2.566   7.535  19.321  0.00  0.00    +0.000 A 
ATOM     20  C   UNL     1       1.678   8.037  20.280  0.00  0.00    +0.000 A 
ATOM     21  C   UNL     1       0.789   9.093  19.978  0.00  0.00    +0.000 A 
ATOM     22  C   UNL     1      -0.154   9.559  21.057  0.00  0.00    +0.000 C 
BRANCH  16  25
ATOM     23  C   UNL     1       0.163  12.052  18.659  0.00  0.00    +0.000 C 
ATOM     24  O   UNL     1       1.212  12.539  19.074  0.00  0.00    +0.000 OA
ATOM     25  N   UNL     1      -0.058  10.728  18.364  0.00  0.00    +0.000 N 
ATOM     26  H   UNL     1      -0.933  10.543  17.900  0.00  0.00    +0.000 HD
BRANCH  23  27
ATOM     27  O   UNL     1      -0.967  12.770  18.472  0.00  0.00    +0.000 OA
BRANCH  27  29
ATOM     28  C   UNL     1      -2.687  12.516  20.132  0.00  0.00    +0.000 C 
ATOM     29  C   UNL     1      -2.168  12.034  18.785  0.00  0.00    +0.000 C 
ENDBRANCH  27  29
ENDBRANCH  23  27
ENDBRANCH  16  25
ENDBRANCH   1  19
TORSDOF 7
ENDMDL
MODEL 3
REMARK VINA RESULT:      -8.0      1.396      1.710
REMARK  Name = 
REMARK  11 active torsions:
REMARK  status: ('A' for Active; 'I' for Inactive)
REMARK    1  A    between atoms: C_1  and  C_2
REMARK    2  A    between atoms: C_2  and  O_3
REMARK    3  A    between atoms: O_3  and  C_4
REMARK    4  A    between atoms: N_6  and  C_7
REMARK    5  A    between atoms: C_10  and  O_11
REMARK    6  A    between atoms: O_11  and  C_12
REMARK    7  A    between atoms: C_18  and  O_19
REMARK    8  A    between atoms: O_19  and  C_20
REMARK    9  A    between atoms: C_21  and  O_22
REMARK   10  A    between atoms: O_22  and  C_23
REMARK   11  A    between atoms: C_27  and  C_28
REMARK                            x       y       z     vdW  Elec       q    Type
REMARK                         _______ _______ _______ _____ _____    ______ ____
ROOT
ATOM      1  O   UNL     1       2.900   6.040  20.070  0.00  0.00    +0.000 OA
ENDROOT
BRANCH   1   2
ATOM      2  C   UNL     1       2.779   5.105  19.046  0.00  0.00    +0.000 A 
ATOM      3  N   UNL     1       1.584   4.515  18.867  0.00  0.00    +0.000 NA
ATOM      4  C   UNL     1       1.517   3.689  17.825  0.00  0.00    +0.000 A 
ATOM      5  N   UNL     1       2.508   3.413  16.965  0.00  0.00    +0.000 NA
ATOM      6  C   UNL     1       3.698   3.996  17.188  0.00  0.00    +0.000 A 
ATOM      7  C   UNL     1       4.754   3.805  16.295  0.00  0.00    +0.000 A 
ATOM      8  C   UNL     1       6.026   4.411  16.442  0.00  0.00    +0.000 A 
ATOM      9  C   UNL     1       6.267   5.190  17.574  0.00  0.00    +0.000 A 
ATOM     10  C   UNL     1       5.197   5.395  18.468  0.00  0.00    +0.000 A 
ATOM     11  C   UNL     1       3.914   4.845  18.266  0.00  0.00    +0.000 A 
BRANCH   8  12
ATOM     12  O   UNL     1       6.776   4.349  15.296  0.00  0.00    +0.000 OA
ATOM     13  C   UNL     1       6.149   3.959  14.084  0.00  0.00    +0.000 C 
ENDBRANCH   8  12
BRANCH   9  14
ATOM     14  O   UNL     1       7.343   5.896  18.011  0.00  0.00    +0.000 OA
ATOM     15  C   UNL     1       7.877   5.773  19.306  0.00  0.00    +0.000 C 
ENDBRANCH   9  14
ENDBRANCH   1   2
BRANCH   1  19
ATOM     16  C   UNL     1       0.851   9.646  19.423  0.00  0.00    +0.000 A 
ATOM     17  C   UNL     1       1.674   9.055  18.457  0.00  0.00    +0.000 A 
ATOM     18  C   UNL     1       2.347   7.858  18.703  0.00  0.00    +0.000 A 
ATOM     19  C   UNL     1       2.243   7.244  19.941  0.00  0.00    +0.000 A 
ATOM     20  C   UNL     1       1.424   7.820  20.919  0.00  0.00    +0.000 A 
ATOM     21  C   UNL     1       0.721   9.021  20.676  0.00  0.00    +0.000 A 
ATOM     22  C   UNL     1      -0.161   9.562  21.771  0.00  0.00    +0.000 C 
BRANCH  16  25
ATOM     23  C   UNL     1      -0.937  11.031  18.383  0.00  0.00    +0.000 C 
ATOM     24  O   UNL     1      -1.652  10.132  17.945  0.00  0.00    +0.000 OA
ATOM     25  N   UNL     1       0.183  10.870  19.162  0.00  0.00    +0.000 N 
ATOM     26  H   UNL     1       0.554  11.726  19.544  0.00  0.00    +0.000 HD
BRANCH  23  27
ATOM     27  O   UNL     1      -1.138  12.340  18.114  0.00  0.00    +0.000 OA
BRANCH  27  29
ATOM     28  C   UNL     1      -0.442  14.474  18.972  0.00  0.00    +0.000 C 
ATOM     29  C   UNL     1       0.023  13.159  18.365  0.00  0.00    +0.000 C 
ENDBRANCH  27  29
ENDBRANCH  23  27
ENDBRANCH  16  25
ENDBRANCH   1  19
TORSDOF 7
ENDMDL
MODEL 4
REMARK VINA RESULT:      -7.9      0.946      1.060
REMARK  Name = 
REMARK  11 active torsions:
REMARK  status: ('A' for Active; 'I' for Inactive)
REMARK    1  A    between atoms: C_1  and  C_2
REMARK    2  A    between atoms: C_2  and  O_3
REMARK    3  A    between atoms: O_3  and  C_4
REMARK    4  A    between atoms: N_6  and  C_7
REMARK    5  A    between atoms: C_10  and  O_11
REMARK    6  A    between atoms: O_11  and  C_12
REMARK    7  A    between atoms: C_18  and  O_19
REMARK    8  A    between atoms: O_19  and  C_20
REMARK    9  A    between atoms: C_21  and  O_22
REMARK   10  A    between atoms: O_22  and  C_23
REMARK   11  A    between atoms: C_27  and  C_28
REMARK                            x       y       z     vdW  Elec       q    Type
REMARK                         _______ _______ _______ _____ _____    ______ ____
ROOT
ATOM      1  O   UNL     1       3.387   6.470  19.594  0.00  0.00    +0.000 OA
ENDROOT
BRANCH   1   2
ATOM      2  C   UNL     1       3.235   5.400  18.718  0.00  0.00    +0.000 A 
ATOM      3  N   UNL     1       2.068   4.731  18.733  0.00  0.00    +0.000 NA
ATOM      4  C   UNL     1       1.962   3.768  17.820  0.00  0.00    +0.000 A 
ATOM      5  N   UNL     1       2.889   3.427  16.913  0.00  0.00    +0.000 NA
ATOM      6  C   UNL     1       4.055   4.094  16.943  0.00  0.00    +0.000 A 
ATOM      7  C   UNL     1       5.038   3.836  15.986  0.00  0.00    +0.000 A 
ATOM      8  C   UNL     1       6.278   4.520  15.929  0.00  0.00    +0.000 A 
ATOM      9  C   UNL     1       6.567   5.458  16.921  0.00  0.00    +0.000 A 
ATOM     10  C   UNL     1       5.570   5.729  17.878  0.00  0.00    +0.000 A 
ATOM     11  C   UNL     1       4.311   5.093  17.874  0.00  0.00    +0.000 A 
BRANCH   8  12
ATOM     12  O   UNL     1       6.926   4.340  14.735  0.00  0.00    +0.000 OA
ATOM     13  C   UNL     1       6.192   3.861  13.619  0.00  0.00    +0.000 C 
ENDBRANCH   8  12
BRANCH   9  14
ATOM     14  O   UNL     1       7.632   6.270  17.156  0.00  0.00    +0.000 OA
ATOM     15  C   UNL     1       7.511   7.619  17.537  0.00  0.00    +0.000 C 
ENDBRANCH   9  14
ENDBRANCH   1   2
BRANCH   1  19
ATOM     16  C   UNL     1       0.563   9.545  19.159  0.00  0.00    +0.000 A 
ATOM     17  C   UNL     1       1.425   9.153  18.127  0.00  0.00    +0.000 A 
ATOM     18  C   UNL     1       2.358   8.131  18.304  0.00  0.00    +0.000 A 
ATOM     19  C   UNL     1       2.477   7.502  19.533  0.00  0.00    +0.000 A 
ATOM     20  C   UNL     1       1.622   7.880  20.575  0.00  0.00    +0.000 A 
ATOM     21  C   UNL     1       0.659   8.901  20.404  0.00  0.00    +0.000 A 
ATOM     22  C   UNL     1      -0.241   9.230  21.566  0.00  0.00    +0.000 C 
BRANCH  16  25
ATOM     23  C   UNL     1      -1.339  10.650  17.993  0.00  0.00    +0.000 C 
ATOM     24  O   UNL     1      -1.680   9.729  17.255  0.00  0.00    +0.000 OA
ATOM     25  N   UNL     1      -0.372  10.595  18.967  0.00  0.00    +0.000 N 
ATOM     26  H   UNL     1      -0.334  11.405  19.566  0.00  0.00    +0.000 HD
BRANCH  23  27
ATOM     27  O   UNL     1      -1.857  11.896  17.915  0.00  0.00    +0.000 OA
BRANCH  27  29
ATOM     28  C   UNL     1      -4.148  11.758  18.628  0.00  0.00    +0.000 C 
ATOM     29  C   UNL     1      -2.746  12.213  19.006  0.00  0.00    +0.000 C 
ENDBRANCH  27  29
ENDBRANCH  23  27
ENDBRANCH  16  25
ENDBRANCH   1  19
TORSDOF 7
ENDMDL
MODEL 5
REMARK VINA RESULT:      -7.8      2.045      2.520
REMARK  Name = 
REMARK  11 active torsions:
REMARK  status: ('A' for Active; 'I' for Inactive)
REMARK    1  A    between atoms: C_1  and  C_2
REMARK    2  A    between atoms: C_2  and  O_3
REMARK    3  A    between atoms: O_3  and  C_4
REMARK    4  A    between atoms: N_6  and  C_7
REMARK    5  A    between atoms: C_10  and  O_11
REMARK    6  A    between atoms: O_11  and  C_12
REMARK    7  A    between atoms: C_18  and  O_19
REMARK    8  A    between atoms: O_19  and  C_20
REMARK    9  A    between atoms: C_21  and  O_22
REMARK   10  A    between atoms: O_22  and  C_23
REMARK   11  A    between atoms: C_27  and  C_28
REMARK                            x       y       z     vdW  Elec       q    Type
REMARK                         _______ _______ _______ _____ _____    ______ ____
ROOT
ATOM      1  O   UNL     1       2.679   5.773  20.244  0.00  0.00    +0.000 OA
ENDROOT
BRANCH   1   2
ATOM      2  C   UNL     1       2.655   4.881  19.177  0.00  0.00    +0.000 A 
ATOM      3  N   UNL     1       1.521   4.193  18.954  0.00  0.00    +0.000 NA
ATOM      4  C   UNL     1       1.540   3.413  17.874  0.00  0.00    +0.000 A 
ATOM      5  N   UNL     1       2.562   3.269  17.018  0.00  0.00    +0.000 NA
ATOM      6  C   UNL     1       3.691   3.947  17.284  0.00  0.00    +0.000 A 
ATOM      7  C   UNL     1       4.769   3.894  16.399  0.00  0.00    +0.000 A 
ATOM      8  C   UNL     1       5.979   4.606  16.591  0.00  0.00    +0.000 A 
ATOM      9  C   UNL     1       6.135   5.351  17.761  0.00  0.00    +0.000 A 
ATOM     10  C   UNL     1       5.042   5.416  18.648  0.00  0.00    +0.000 A 
ATOM     11  C   UNL     1       3.817   4.761  18.403  0.00  0.00    +0.000 A 
BRANCH   8  12
ATOM     12  O   UNL     1       6.743   4.666  15.455  0.00  0.00    +0.000 OA
ATOM     13  C   UNL     1       6.301   3.985  14.292  0.00  0.00    +0.000 C 
ENDBRANCH   8  12
BRANCH   9  14
ATOM     14  O   UNL     1       7.138   6.130  18.246  0.00  0.00    +0.000 OA
ATOM     15  C   UNL     1       7.566   7.318  17.626  0.00  0.00    +0.000 C 
ENDBRANCH   9  14
ENDBRANCH   1   2
BRANCH   1  19
ATOM     16  C   UNL     1       0.730   9.488  20.082  0.00  0.00    +0.000 A 
ATOM     17  C   UNL     1       0.600   8.607  21.162  0.00  0.00    +0.000 A 
ATOM     18  C   UNL     1       1.255   7.376  21.185  0.00  0.00    +0.000 A 
ATOM     19  C   UNL     1       2.028   6.979  20.105  0.00  0.00    +0.000 A 
ATOM     20  C   UNL     1       2.171   7.848  19.017  0.00  0.00    +0.000 A 
ATOM     21  C   UNL     1       1.528   9.106  18.989  0.00  0.00    +0.000 A 
ATOM     22  C   UNL     1       1.753   9.993  17.793  0.00  0.00    +0.000 C 
BRANCH  16  25
ATOM     23  C   UNL     1       0.447  11.881  20.701  0.00  0.00    +0.000 C 
ATOM     24  O   UNL     1       1.544  12.082  21.219  0.00  0.00    +0.000 OA
ATOM     25  N   UNL     1       0.046  10.730  20.068  0.00  0.00    +0.000 N 
ATOM     26  H   UNL     1      -0.833  10.805  19.581  0.00  0.00    +0.000 HD
BRANCH  23  27
ATOM     27  O   UNL     1      -0.562  12.781  20.724  0.00  0.00    +0.000 OA
BRANCH  27  29
ATOM     28  C   UNL     1      -0.239  13.975  18.663  0.00  0.00    +0.000 C 
ATOM     29  C   UNL     1      -1.144  13.018  19.425  0.00  0.00    +0.000 C 
ENDBRANCH  27  29
ENDBRANCH  23  27
ENDBRANCH  16  25
ENDBRANCH   1  19
TORSDOF 7
ENDMDL
MODEL 6
REMARK VINA RESULT:      -7.8      2.224      2.927
REMARK  Name = 
REMARK  11 active torsions:
REMARK  status: ('A' for Active; 'I' for Inactive)
REMARK    1  A    between atoms: C_1  and  C_2
REMARK    2  A    between atoms: C_2  and  O_3
REMARK    3  A    between atoms: O_3  and  C_4
REMARK    4  A    between atoms: N_6  and  C_7
REMARK    5  A    between atoms: C_10  and  O_11
REMARK    6  A    between atoms: O_11  and  C_12
REMARK    7  A    between atoms: C_18  and  O_19
REMARK    8  A    between atoms: O_19  and  C_20
REMARK    9  A    between atoms: C_21  and  O_22
REMARK   10  A    between atoms: O_22  and  C_23
REMARK   11  A    between atoms: C_27  and  C_28
REMARK                            x       y       z     vdW  Elec       q    Type
REMARK                         _______ _______ _______ _____ _____    ______ ____
ROOT
ATOM      1  O   UNL     1       2.917   5.807  20.140  0.00  0.00    +0.000 OA
ENDROOT
BRANCH   1   2
ATOM      2  C   UNL     1       2.795   4.872  19.117  0.00  0.00    +0.000 A 
ATOM      3  N   UNL     1       1.607   4.262  18.958  0.00  0.00    +0.000 NA
ATOM      4  C   UNL     1       1.535   3.436  17.916  0.00  0.00    +0.000 A 
ATOM      5  N   UNL     1       2.516   3.178  17.038  0.00  0.00    +0.000 NA
ATOM      6  C   UNL     1       3.699   3.781  17.242  0.00  0.00    +0.000 A 
ATOM      7  C   UNL     1       4.743   3.609  16.330  0.00  0.00    +0.000 A 
ATOM      8  C   UNL     1       6.007   4.236  16.455  0.00  0.00    +0.000 A 
ATOM      9  C   UNL     1       6.254   5.018  17.584  0.00  0.00    +0.000 A 
ATOM     10  C   UNL     1       5.197   5.204  18.497  0.00  0.00    +0.000 A 
ATOM     11  C   UNL     1       3.920   4.632  18.317  0.00  0.00    +0.000 A 
BRANCH   8  12
ATOM     12  O   UNL     1       6.737   4.188  15.296  0.00  0.00    +0.000 OA
ATOM     13  C   UNL     1       6.055   4.076  14.057  0.00  0.00    +0.000 C 
ENDBRANCH   8  12
BRANCH   9  14
ATOM     14  O   UNL     1       7.326   5.741  18.003  0.00  0.00    +0.000 OA
ATOM     15  C   UNL     1       7.750   5.794  19.344  0.00  0.00    +0.000 C 
ENDBRANCH   9  14
ENDBRANCH   1   2
BRANCH   1  19
ATOM     16  C   UNL     1       0.757   9.406  20.128  0.00  0.00    +0.000 A 
ATOM     17  C   UNL     1       0.715   8.497  21.192  0.00  0.00    +0.000 A 
ATOM     18  C   UNL     1       1.439   7.305  21.165  0.00  0.00    +0.000 A 
ATOM     19  C   UNL     1       2.195   6.976  20.051  0.00  0.00    +0.000 A 
ATOM     20  C   UNL     1       2.250   7.874  18.978  0.00  0.00    +0.000 A 
ATOM     21  C   UNL     1       1.537   9.094  19.001  0.00  0.00    +0.000 A 
ATOM     22  C   UNL     1       1.670  10.017  17.818  0.00  0.00    +0.000 C 
BRANCH  16  25
ATOM     23  C   UNL     1       0.382  11.781  20.772  0.00  0.00    +0.000 C 
ATOM     24  O   UNL     1       1.499  12.045  21.212  0.00  0.00    +0.000 OA
ATOM     25  N   UNL     1       0.004  10.608  20.165  0.00  0.00    +0.000 N 
ATOM     26  H   UNL     1      -0.910  10.631  19.742  0.00  0.00    +0.000 HD
BRANCH  23  27
ATOM     27  O   UNL     1      -0.672  12.622  20.868  0.00  0.00    +0.000 OA
BRANCH  27  29
ATOM     28  C   UNL     1      -1.326  13.143  23.121  0.00  0.00    +0.000 C 
ATOM     29  C   UNL     1      -1.597  12.258  21.914  0.00  0.00    +0.000 C 
ENDBRANCH  27  29
ENDBRANCH  23  27
ENDBRANCH  16  25
ENDBRANCH   1  19
TORSDOF 7
ENDMDL
MODEL 7
REMARK VINA RESULT:      -7.8      1.568      2.101
REMARK  Name = 
REMARK  11 active torsions:
REMARK  status: ('A' for Active; 'I' for Inactive)
REMARK    1  A    between atoms: C_1  and  C_2
REMARK    2  A    between atoms: C_2  and  O_3
REMARK    3  A    between atoms: O_3  and  C_4
REMARK    4  A    between atoms: N_6  and  C_7
REMARK    5  A    between atoms: C_10  and  O_11
REMARK    6  A    between atoms: O_11  and  C_12
REMARK    7  A    between atoms: C_18  and  O_19
REMARK    8  A    between atoms: O_19  and  C_20
REMARK    9  A    between atoms: C_21  and  O_22
REMARK   10  A    between atoms: O_22  and  C_23
REMARK   11  A    between atoms: C_27  and  C_28
REMARK                            x       y       z     vdW  Elec       q    Type
REMARK                         _______ _______ _______ _____ _____    ______ ____
ROOT
ATOM      1  O   UNL     1       2.907   5.828  20.159  0.00  0.00    +0.000 OA
ENDROOT
BRANCH   1   2
ATOM      2  C   UNL     1       2.953   4.954  19.078  0.00  0.00    +0.000 A 
ATOM      3  N   UNL     1       1.827   4.298  18.747  0.00  0.00    +0.000 NA
ATOM      4  C   UNL     1       1.920   3.535  17.659  0.00  0.00    +0.000 A 
ATOM      5  N   UNL     1       3.008   3.380  16.890  0.00  0.00    +0.000 NA
ATOM      6  C   UNL     1       4.125   4.026  17.263  0.00  0.00    +0.000 A 
ATOM      7  C   UNL     1       5.273   3.961  16.472  0.00  0.00    +0.000 A 
ATOM      8  C   UNL     1       6.478   4.640  16.779  0.00  0.00    +0.000 A 
ATOM      9  C   UNL     1       6.551   5.362  17.971  0.00  0.00    +0.000 A 
ATOM     10  C   UNL     1       5.388   5.439  18.763  0.00  0.00    +0.000 A 
ATOM     11  C   UNL     1       4.174   4.819  18.403  0.00  0.00    +0.000 A 
BRANCH   8  12
ATOM     12  O   UNL     1       7.337   4.700  15.713  0.00  0.00    +0.000 OA
ATOM     13  C   UNL     1       6.840   4.425  14.413  0.00  0.00    +0.000 C 
ENDBRANCH   8  12
BRANCH   9  14
ATOM     14  O   UNL     1       7.527   6.109  18.553  0.00  0.00    +0.000 OA
ATOM     15  C   UNL     1       7.900   7.387  18.099  0.00  0.00    +0.000 C 
ENDBRANCH   9  14
ENDBRANCH   1   2
BRANCH   1  19
ATOM     16  C   UNL     1       0.788   9.449  20.003  0.00  0.00    +0.000 A 
ATOM     17  C   UNL     1       0.683   8.551  21.073  0.00  0.00    +0.000 A 
ATOM     18  C   UNL     1       1.395   7.352  21.094  0.00  0.00    +0.000 A 
ATOM     19  C   UNL     1       2.202   7.004  20.022  0.00  0.00    +0.000 A 
ATOM     20  C   UNL     1       2.321   7.890  18.945  0.00  0.00    +0.000 A 
ATOM     21  C   UNL     1       1.621   9.117  18.920  0.00  0.00    +0.000 A 
ATOM     22  C   UNL     1       1.823  10.027  17.737  0.00  0.00    +0.000 C 
BRANCH  16  25
ATOM     23  C   UNL     1      -1.091  10.903  19.261  0.00  0.00    +0.000 C 
ATOM     24  O   UNL     1      -1.758  10.068  18.654  0.00  0.00    +0.000 OA
ATOM     25  N   UNL     1       0.047  10.659  19.991  0.00  0.00    +0.000 N 
ATOM     26  H   UNL     1       0.372  11.442  20.534  0.00  0.00    +0.000 HD
BRANCH  23  27
ATOM     27  O   UNL     1      -1.371  12.225  19.257  0.00  0.00    +0.000 OA
BRANCH  27  29
ATOM     28  C   UNL     1       0.057  14.114  18.845  0.00  0.00    +0.000 C 
ATOM     29  C   UNL     1      -0.689  12.949  18.211  0.00  0.00    +0.000 C 
ENDBRANCH  27  29
ENDBRANCH  23  27
ENDBRANCH  16  25
ENDBRANCH   1  19
TORSDOF 7
ENDMDL
MODEL 8
REMARK VINA RESULT:      -7.6      1.543      2.156
REMARK  Name = 
REMARK  11 active torsions:
REMARK  status: ('A' for Active; 'I' for Inactive)
REMARK    1  A    between atoms: C_1  and  C_2
REMARK    2  A    between atoms: C_2  and  O_3
REMARK    3  A    between atoms: O_3  and  C_4
REMARK    4  A    between atoms: N_6  and  C_7
REMARK    5  A    between atoms: C_10  and  O_11
REMARK    6  A    between atoms: O_11  and  C_12
REMARK    7  A    between atoms: C_18  and  O_19
REMARK    8  A    between atoms: O_19  and  C_20
REMARK    9  A    between atoms: C_21  and  O_22
REMARK   10  A    between atoms: O_22  and  C_23
REMARK   11  A    between atoms: C_27  and  C_28
REMARK                            x       y       z     vdW  Elec       q    Type
REMARK                         _______ _______ _______ _____ _____    ______ ____
ROOT
ATOM      1  O   UNL     1       2.880   5.941  20.089  0.00  0.00    +0.000 OA
ENDROOT
BRANCH   1   2
ATOM      2  C   UNL     1       2.789   4.983  19.085  0.00  0.00    +0.000 A 
ATOM      3  N   UNL     1       1.615   4.347  18.923  0.00  0.00    +0.000 NA
ATOM      4  C   UNL     1       1.573   3.498  17.898  0.00  0.00    +0.000 A 
ATOM      5  N   UNL     1       2.571   3.240  17.040  0.00  0.00    +0.000 NA
ATOM      6  C   UNL     1       3.740   3.868  17.246  0.00  0.00    +0.000 A 
ATOM      7  C   UNL     1       4.799   3.696  16.352  0.00  0.00    +0.000 A 
ATOM      8  C   UNL     1       6.049   4.350  16.481  0.00  0.00    +0.000 A 
ATOM      9  C   UNL     1       6.266   5.160  17.596  0.00  0.00    +0.000 A 
ATOM     10  C   UNL     1       5.193   5.346  18.491  0.00  0.00    +0.000 A 
ATOM     11  C   UNL     1       3.929   4.747  18.306  0.00  0.00    +0.000 A 
BRANCH   8  12
ATOM     12  O   UNL     1       6.796   4.291  15.334  0.00  0.00    +0.000 OA
ATOM     13  C   UNL     1       6.140   4.070  14.096  0.00  0.00    +0.000 C 
ENDBRANCH   8  12
BRANCH   9  14
ATOM     14  O   UNL     1       7.319   5.912  18.015  0.00  0.00    +0.000 OA
ATOM     15  C   UNL     1       7.834   5.866  19.323  0.00  0.00    +0.000 C 
ENDBRANCH   9  14
ENDBRANCH   1   2
BRANCH   1  19
ATOM     16  C   UNL     1       0.745   9.551  19.909  0.00  0.00    +0.000 A 
ATOM     17  C   UNL     1       0.638   8.656  20.981  0.00  0.00    +0.000 A 
ATOM     18  C   UNL     1       1.356   7.461  21.010  0.00  0.00    +0.000 A 
ATOM     19  C   UNL     1       2.171   7.113  19.945  0.00  0.00    +0.000 A 
ATOM     20  C   UNL     1       2.292   7.996  18.865  0.00  0.00    +0.000 A 
ATOM     21  C   UNL     1       1.585   9.220  18.832  0.00  0.00    +0.000 A 
ATOM     22  C   UNL     1       1.790  10.126  17.647  0.00  0.00    +0.000 C 
BRANCH  16  25
ATOM     23  C   UNL     1      -1.145  10.988  19.164  0.00  0.00    +0.000 C 
ATOM     24  O   UNL     1      -1.813  10.144  18.571  0.00  0.00    +0.000 OA
ATOM     25  N   UNL     1      -0.001  10.757  19.889  0.00  0.00    +0.000 N 
ATOM     26  H   UNL     1       0.323  11.548  20.421  0.00  0.00    +0.000 HD
BRANCH  23  27
ATOM     27  O   UNL     1      -1.432  12.309  19.147  0.00  0.00    +0.000 OA
BRANCH  27  29
ATOM     28  C   UNL     1      -3.184  12.755  20.732  0.00  0.00    +0.000 C 
ATOM     29  C   UNL     1      -1.690  12.853  20.459  0.00  0.00    +0.000 C 
ENDBRANCH  27  29
ENDBRANCH  23  27
ENDBRANCH  16  25
ENDBRANCH   1  19
TORSDOF 7
ENDMDL
MODEL 9
REMARK VINA RESULT:      -7.5      2.258      2.498
REMARK  Name = 
REMARK  11 active torsions:
REMARK  status: ('A' for Active; 'I' for Inactive)
REMARK    1  A    between atoms: C_1  and  C_2
REMARK    2  A    between atoms: C_2  and  O_3
REMARK    3  A    between atoms: O_3  and  C_4
REMARK    4  A    between atoms: N_6  and  C_7
REMARK    5  A    between atoms: C_10  and  O_11
REMARK    6  A    between atoms: O_11  and  C_12
REMARK    7  A    between atoms: C_18  and  O_19
REMARK    8  A    between atoms: O_19  and  C_20
REMARK    9  A    between atoms: C_21  and  O_22
REMARK   10  A    between atoms: O_22  and  C_23
REMARK   11  A    between atoms: C_27  and  C_28
REMARK                            x       y       z     vdW  Elec       q    Type
REMARK                         _______ _______ _______ _____ _____    ______ ____
ROOT
ATOM      1  O   UNL     1       2.803   5.751  20.266  0.00  0.00    +0.000 OA
ENDROOT
BRANCH   1   2
ATOM      2  C   UNL     1       2.718   4.921  19.154  0.00  0.00    +0.000 A 
ATOM      3  N   UNL     1       1.522   4.382  18.857  0.00  0.00    +0.000 NA
ATOM      4  C   UNL     1       1.494   3.659  17.739  0.00  0.00    +0.000 A 
ATOM      5  N   UNL     1       2.524   3.438  16.910  0.00  0.00    +0.000 NA
ATOM      6  C   UNL     1       3.712   3.966  17.249  0.00  0.00    +0.000 A 
ATOM      7  C   UNL     1       4.811   3.831  16.397  0.00  0.00    +0.000 A 
ATOM      8  C   UNL     1       6.086   4.387  16.667  0.00  0.00    +0.000 A 
ATOM      9  C   UNL     1       6.281   5.050  17.879  0.00  0.00    +0.000 A 
ATOM     10  C   UNL     1       5.170   5.199  18.732  0.00  0.00    +0.000 A 
ATOM     11  C   UNL     1       3.888   4.704  18.412  0.00  0.00    +0.000 A 
BRANCH   8  12
ATOM     12  O   UNL     1       6.895   4.413  15.560  0.00  0.00    +0.000 OA
ATOM     13  C   UNL     1       6.335   4.116  14.291  0.00  0.00    +0.000 C 
ENDBRANCH   8  12
BRANCH   9  14
ATOM     14  O   UNL     1       7.348   5.683  18.436  0.00  0.00    +0.000 OA
ATOM     15  C   UNL     1       7.759   6.978  18.072  0.00  0.00    +0.000 C 
ENDBRANCH   9  14
ENDBRANCH   1   2
BRANCH   1  19
ATOM     16  C   UNL     1       0.766   9.404  19.908  0.00  0.00    +0.000 A 
ATOM     17  C   UNL     1       1.651   8.928  18.933  0.00  0.00    +0.000 A 
ATOM     18  C   UNL     1       2.319   7.712  19.082  0.00  0.00    +0.000 A 
ATOM     19  C   UNL     1       2.145   6.961  20.234  0.00  0.00    +0.000 A 
ATOM     20  C   UNL     1       1.263   7.421  21.219  0.00  0.00    +0.000 A 
ATOM     21  C   UNL     1       0.566   8.641  21.071  0.00  0.00    +0.000 A 
ATOM     22  C   UNL     1      -0.386   9.053  22.164  0.00  0.00    +0.000 C 
BRANCH  16  25
ATOM     23  C   UNL     1       0.463  11.838  20.335  0.00  0.00    +0.000 C 
ATOM     24  O   UNL     1       1.510  12.064  20.938  0.00  0.00    +0.000 OA
ATOM     25  N   UNL     1       0.105  10.649  19.746  0.00  0.00    +0.000 N 
ATOM     26  H   UNL     1      -0.724  10.697  19.177  0.00  0.00    +0.000 HD
BRANCH  23  27
ATOM     27  O   UNL     1      -0.530  12.745  20.204  0.00  0.00    +0.000 OA
BRANCH  27  29
ATOM     28  C   UNL     1      -2.215  12.457  21.894  0.00  0.00    +0.000 C 
ATOM     29  C   UNL     1      -0.998  13.265  21.466  0.00  0.00    +0.000 C 
ENDBRANCH  27  29
ENDBRANCH  23  27
ENDBRANCH  16  25
ENDBRANCH   1  19
TORSDOF 7
ENDMDL
