MODEL 1
REMARK VINA RESULT:      -8.9      0.000      0.000
REMARK  Name = 
REMARK  7 active torsions:
REMARK  status: ('A' for Active; 'I' for Inactive)
REMARK    1  A    between atoms: C_1  and  O_2
REMARK    2  A    between atoms: O_2  and  C_3
REMARK    3  A    between atoms: C_5  and  C_6
REMARK    4  A    between atoms: C_9  and  C_10
REMARK    5  A    between atoms: C_13  and  C_14
REMARK    6  A    between atoms: C_27  and  N_28
REMARK    7  A    between atoms: C_29  and  C_31
REMARK                            x       y       z     vdW  Elec       q    Type
REMARK                         _______ _______ _______ _____ _____    ______ ____
ROOT
ATOM      1  C   UNL     1       0.635   9.678  20.375  0.00  0.00    +0.000 A 
ATOM      2  C   UNL     1       1.146   8.505  20.950  0.00  0.00    +0.000 A 
ATOM      3  C   UNL     1       1.889   7.598  20.185  0.00  0.00    +0.000 A 
ATOM      4  C   UNL     1       2.129   7.823  18.823  0.00  0.00    +0.000 A 
ATOM      5  C   UNL     1       1.597   8.969  18.238  0.00  0.00    +0.000 A 
ATOM      6  C   UNL     1       0.875   9.881  19.006  0.00  0.00    +0.000 A 
ENDROOT
BRANCH   4   7
ATOM      7  C   UNL     1       2.976   6.901  18.069  0.00  0.00    +0.000 A 
ATOM      8  N   UNL     1       2.935   5.589  18.166  0.00  0.00    +0.000 NA
ATOM      9  C   UNL     1       4.008   5.115  17.442  0.00  0.00    +0.000 A 
ATOM     10  C   UNL     1       4.459   3.794  17.259  0.00  0.00    +0.000 A 
ATOM     11  C   UNL     1       5.631   3.590  16.525  0.00  0.00    +0.000 A 
ATOM     12  C   UNL     1       6.318   4.671  15.976  0.00  0.00    +0.000 A 
ATOM     13  F   UNL     1       7.447   4.447  15.291  0.00  0.00    +0.000 F 
ATOM     14  C   UNL     1       5.862   5.988  16.105  0.00  0.00    +0.000 A 
ATOM     15  C   UNL     1       4.698   6.163  16.854  0.00  0.00    +0.000 A 
ATOM     16  N   UNL     1       3.979   7.277  17.200  0.00  0.00    +0.000 N 
ATOM     17  H   UNL     1       4.188   8.220  16.917  0.00  0.00    +0.000 HD
BRANCH  10  18
ATOM     18  C   UNL     1       3.704   2.652  17.819  0.00  0.00    +0.000 C 
ATOM     19  N   UNL     1       4.281   1.956  18.841  0.00  0.00    +0.000 N 
ATOM     20  O   UNL     1       2.597   2.349  17.391  0.00  0.00    +0.000 OA
ATOM     21  H   UNL     1       5.210   2.206  19.183  0.00  0.00    +0.000 HD
ATOM     22  H   UNL     1       3.793   1.183  19.260  0.00  0.00    +0.000 HD
ENDBRANCH  10  18
ENDBRANCH   4   7
BRANCH   1  25
ATOM     23  C   UNL     1      -1.237  12.877  21.325  0.00  0.00    +0.000 A 
ATOM     24  C   UNL     1      -0.444  11.955  20.613  0.00  0.00    +0.000 A 
ATOM     25  C   UNL     1      -0.089  10.709  21.153  0.00  0.00    +0.000 A 
ATOM     26  C   UNL     1      -0.528  10.430  22.451  0.00  0.00    +0.000 A 
ATOM     27  C   UNL     1      -1.365  11.303  23.139  0.00  0.00    +0.000 A 
ATOM     28  C   UNL     1      -1.746  12.528  22.595  0.00  0.00    +0.000 A 
BRANCH  28  29
ATOM     29  N   UNL     1      -2.653  13.385  23.275  0.00  0.00    +0.000 N 
ATOM     30  C   UNL     1      -4.035  13.309  23.196  0.00  0.00    +0.000 C 
ATOM     31  O   UNL     1      -4.678  12.405  22.675  0.00  0.00    +0.000 OA
ATOM     32  H   UNL     1      -2.226  14.084  23.869  0.00  0.00    +0.000 HD
BRANCH  30  33
ATOM     33  C   UNL     1      -4.837  14.407  23.806  0.00  0.00    +0.000 C 
ATOM     34  C   UNL     1      -4.263  15.674  24.374  0.00  0.00    +0.000 C 
ATOM     35  C   UNL     1      -5.071  15.721  23.106  0.00  0.00    +0.000 C 
ENDBRANCH  30  33
ENDBRANCH  28  29
BRANCH  23  37
ATOM     36  C   UNL     1      -0.669  14.610  19.819  0.00  0.00    +0.000 C 
ATOM     37  O   UNL     1      -1.563  14.119  20.824  0.00  0.00    +0.000 OA
ENDBRANCH  23  37
ENDBRANCH   1  25
TORSDOF 6
ENDMDL
MODEL 2
REMARK VINA RESULT:      -8.9      1.002      1.143
REMARK  Name = 
REMARK  7 active torsions:
REMARK  status: ('A' for Active; 'I' for Inactive)
REMARK    1  A    between atoms: C_1  and  O_2
REMARK    2  A    between atoms: O_2  and  C_3
REMARK    3  A    between atoms: C_5  and  C_6
REMARK    4  A    between atoms: C_9  and  C_10
REMARK    5  A    between atoms: C_13  and  C_14
REMARK    6  A    between atoms: C_27  and  N_28
REMARK    7  A    between atoms: C_29  and  C_31
REMARK                            x       y       z     vdW  Elec       q    Type
REMARK                         _______ _______ _______ _____ _____    ______ ____
ROOT
ATOM      1  C   UNL     1       0.731   9.727  20.424  0.00  0.00    +0.000 A 
ATOM      2  C   UNL     1       1.196   8.522  20.971  0.00  0.00    +0.000 A 
ATOM      3  C   UNL     1       1.911   7.608  20.188  0.00  0.00    +0.000 A 
ATOM      4  C   UNL     1       2.170   7.860  18.833  0.00  0.00    +0.000 A 
ATOM      5  C   UNL     1       1.683   9.039  18.276  0.00  0.00    +0.000 A 
ATOM      6  C   UNL     1       0.989   9.956  19.062  0.00  0.00    +0.000 A 
ENDROOT
BRANCH   4   7
ATOM      7  C   UNL     1       2.988   6.927  18.062  0.00  0.00    +0.000 A 
ATOM      8  N   UNL     1       2.932   5.615  18.158  0.00  0.00    +0.000 NA
ATOM      9  C   UNL     1       3.983   5.128  17.412  0.00  0.00    +0.000 A 
ATOM     10  C   UNL     1       4.413   3.802  17.218  0.00  0.00    +0.000 A 
ATOM     11  C   UNL     1       5.567   3.583  16.460  0.00  0.00    +0.000 A 
ATOM     12  C   UNL     1       6.257   4.655  15.898  0.00  0.00    +0.000 A 
ATOM     13  F   UNL     1       7.368   4.417  15.189  0.00  0.00    +0.000 F 
ATOM     14  C   UNL     1       5.821   5.978  16.038  0.00  0.00    +0.000 A 
ATOM     15  C   UNL     1       4.674   6.168  16.810  0.00  0.00    +0.000 A 
ATOM     16  N   UNL     1       3.978   7.291  17.172  0.00  0.00    +0.000 N 
ATOM     17  H   UNL     1       4.193   8.231  16.886  0.00  0.00    +0.000 HD
BRANCH  10  18
ATOM     18  C   UNL     1       3.655   2.669  17.793  0.00  0.00    +0.000 C 
ATOM     19  N   UNL     1       4.222   1.996  18.835  0.00  0.00    +0.000 N 
ATOM     20  O   UNL     1       2.553   2.354  17.359  0.00  0.00    +0.000 OA
ATOM     21  H   UNL     1       5.147   2.256  19.182  0.00  0.00    +0.000 HD
ATOM     22  H   UNL     1       3.731   1.230  19.265  0.00  0.00    +0.000 HD
ENDBRANCH  10  18
ENDBRANCH   4   7
BRANCH   1  25
ATOM     23  C   UNL     1      -0.982  12.987  21.459  0.00  0.00    +0.000 A 
ATOM     24  C   UNL     1      -0.218  12.052  20.732  0.00  0.00    +0.000 A 
ATOM     25  C   UNL     1       0.040  10.762  21.224  0.00  0.00    +0.000 A 
ATOM     26  C   UNL     1      -0.468  10.450  22.489  0.00  0.00    +0.000 A 
ATOM     27  C   UNL     1      -1.279  11.340  23.187  0.00  0.00    +0.000 A 
ATOM     28  C   UNL     1      -1.564  12.611  22.690  0.00  0.00    +0.000 A 
BRANCH  28  29
ATOM     29  N   UNL     1      -2.445  13.489  23.376  0.00  0.00    +0.000 N 
ATOM     30  C   UNL     1      -2.055  14.457  24.290  0.00  0.00    +0.000 C 
ATOM     31  O   UNL     1      -0.905  14.813  24.515  0.00  0.00    +0.000 OA
ATOM     32  H   UNL     1      -3.425  13.388  23.146  0.00  0.00    +0.000 HD
BRANCH  30  33
ATOM     33  C   UNL     1      -3.115  15.154  25.072  0.00  0.00    +0.000 C 
ATOM     34  C   UNL     1      -3.186  16.639  25.287  0.00  0.00    +0.000 C 
ATOM     35  C   UNL     1      -4.206  15.960  24.414  0.00  0.00    +0.000 C 
ENDBRANCH  30  33
ENDBRANCH  28  29
BRANCH  23  37
ATOM     36  C   UNL     1      -0.058  15.116  21.004  0.00  0.00    +0.000 C 
ATOM     37  O   UNL     1      -1.213  14.269  21.008  0.00  0.00    +0.000 OA
ENDBRANCH  23  37
ENDBRANCH   1  25
TORSDOF 6
ENDMDL
MODEL 3
REMARK VINA RESULT:      -8.8      4.099     11.955
REMARK  Name = 
REMARK  7 active torsions:
REMARK  status: ('A' for Active; 'I' for Inactive)
REMARK    1  A    between atoms: C_1  and  O_2
REMARK    2  A    between atoms: O_2  and  C_3
REMARK    3  A    between atoms: C_5  and  C_6
REMARK    4  A    between atoms: C_9  and  C_10
REMARK    5  A    between atoms: C_13  and  C_14
REMARK    6  A    between atoms: C_27  and  N_28
REMARK    7  A    between atoms: C_29  and  C_31
REMARK                            x       y       z     vdW  Elec       q    Type
REMARK                         _______ _______ _______ _____ _____    ______ ____
ROOT
ATOM      1  C   UNL     1       0.323   9.999  20.654  0.00  0.00    +0.000 A 
ATOM      2  C   UNL     1       0.114   9.923  22.039  0.00  0.00    +0.000 A 
ATOM      3  C   UNL     1      -0.799  10.773  22.675  0.00  0.00    +0.000 A 
ATOM      4  C   UNL     1      -1.518  11.735  21.952  0.00  0.00    +0.000 A 
ATOM      5  C   UNL     1      -1.292  11.839  20.583  0.00  0.00    +0.000 A 
ATOM      6  C   UNL     1      -0.397  10.978  19.949  0.00  0.00    +0.000 A 
ENDROOT
BRANCH   4   7
ATOM      7  C   UNL     1      -2.523  12.552  22.627  0.00  0.00    +0.000 A 
ATOM      8  N   UNL     1      -3.812  12.285  22.664  0.00  0.00    +0.000 NA
ATOM      9  C   UNL     1      -4.418  13.388  23.228  0.00  0.00    +0.000 A 
ATOM     10  C   UNL     1      -5.783  13.650  23.452  0.00  0.00    +0.000 A 
ATOM     11  C   UNL     1      -6.141  14.893  23.983  0.00  0.00    +0.000 A 
ATOM     12  C   UNL     1      -5.163  15.835  24.297  0.00  0.00    +0.000 A 
ATOM     13  F   UNL     1      -5.536  17.023  24.789  0.00  0.00    +0.000 F 
ATOM     14  C   UNL     1      -3.798  15.577  24.126  0.00  0.00    +0.000 A 
ATOM     15  C   UNL     1      -3.470  14.335  23.583  0.00  0.00    +0.000 A 
ATOM     16  N   UNL     1      -2.273  13.749  23.266  0.00  0.00    +0.000 N 
ATOM     17  H   UNL     1      -1.364  14.155  23.417  0.00  0.00    +0.000 HD
BRANCH  10  18
ATOM     18  C   UNL     1      -6.810  12.630  23.145  0.00  0.00    +0.000 C 
ATOM     19  N   UNL     1      -6.760  12.037  21.917  0.00  0.00    +0.000 N 
ATOM     20  O   UNL     1      -7.666  12.321  23.964  0.00  0.00    +0.000 OA
ATOM     21  H   UNL     1      -6.052  12.311  21.234  0.00  0.00    +0.000 HD
ATOM     22  H   UNL     1      -7.431  11.327  21.675  0.00  0.00    +0.000 HD
ENDBRANCH  10  18
ENDBRANCH   4   7
BRANCH   1  25
ATOM     23  C   UNL     1       2.381   6.921  19.692  0.00  0.00    +0.000 A 
ATOM     24  C   UNL     1       1.631   7.843  20.450  0.00  0.00    +0.000 A 
ATOM     25  C   UNL     1       1.216   9.075  19.920  0.00  0.00    +0.000 A 
ATOM     26  C   UNL     1       1.608   9.370  18.610  0.00  0.00    +0.000 A 
ATOM     27  C   UNL     1       2.291   8.442  17.830  0.00  0.00    +0.000 A 
ATOM     28  C   UNL     1       2.679   7.205  18.341  0.00  0.00    +0.000 A 
BRANCH  28  29
ATOM     29  N   UNL     1       3.319   6.237  17.519  0.00  0.00    +0.000 N 
ATOM     30  C   UNL     1       4.615   6.331  17.037  0.00  0.00    +0.000 C 
ATOM     31  O   UNL     1       5.451   7.161  17.376  0.00  0.00    +0.000 OA
ATOM     32  H   UNL     1       2.765   5.419  17.301  0.00  0.00    +0.000 HD
BRANCH  30  33
ATOM     33  C   UNL     1       5.064   5.334  16.024  0.00  0.00    +0.000 C 
ATOM     34  C   UNL     1       6.494   4.952  15.772  0.00  0.00    +0.000 C 
ATOM     35  C   UNL     1       5.555   3.962  16.404  0.00  0.00    +0.000 C 
ENDBRANCH  30  33
ENDBRANCH  28  29
BRANCH  23  37
ATOM     36  C   UNL     1       1.797   4.884  20.742  0.00  0.00    +0.000 C 
ATOM     37  O   UNL     1       2.828   5.724  20.208  0.00  0.00    +0.000 OA
ENDBRANCH  23  37
ENDBRANCH   1  25
TORSDOF 6
ENDMDL
MODEL 4
REMARK VINA RESULT:      -8.8      0.857      1.206
REMARK  Name = 
REMARK  7 active torsions:
REMARK  status: ('A' for Active; 'I' for Inactive)
REMARK    1  A    between atoms: C_1  and  O_2
REMARK    2  A    between atoms: O_2  and  C_3
REMARK    3  A    between atoms: C_5  and  C_6
REMARK    4  A    between atoms: C_9  and  C_10
REMARK    5  A    between atoms: C_13  and  C_14
REMARK    6  A    between atoms: C_27  and  N_28
REMARK    7  A    between atoms: C_29  and  C_31
REMARK                            x       y       z     vdW  Elec       q    Type
REMARK                         _______ _______ _______ _____ _____    ______ ____
ROOT
ATOM      1  C   UNL     1       0.462  10.096  20.379  0.00  0.00    +0.000 A 
ATOM      2  C   UNL     1       0.804  10.274  19.030  0.00  0.00    +0.000 A 
ATOM      3  C   UNL     1       1.571   9.320  18.352  0.00  0.00    +0.000 A 
ATOM      4  C   UNL     1       2.035   8.167  19.002  0.00  0.00    +0.000 A 
ATOM      5  C   UNL     1       1.727   7.999  20.349  0.00  0.00    +0.000 A 
ATOM      6  C   UNL     1       0.946   8.941  21.017  0.00  0.00    +0.000 A 
ENDROOT
BRANCH   4   7
ATOM      7  C   UNL     1       2.763   7.149  18.249  0.00  0.00    +0.000 A 
ATOM      8  N   UNL     1       2.546   5.853  18.329  0.00  0.00    +0.000 NA
ATOM      9  C   UNL     1       3.557   5.248  17.614  0.00  0.00    +0.000 A 
ATOM     10  C   UNL     1       3.832   3.881  17.420  0.00  0.00    +0.000 A 
ATOM     11  C   UNL     1       4.978   3.530  16.700  0.00  0.00    +0.000 A 
ATOM     12  C   UNL     1       5.811   4.516  16.175  0.00  0.00    +0.000 A 
ATOM     13  F   UNL     1       6.910   4.151  15.503  0.00  0.00    +0.000 F 
ATOM     14  C   UNL     1       5.532   5.880  16.314  0.00  0.00    +0.000 A 
ATOM     15  C   UNL     1       4.389   6.201  17.048  0.00  0.00    +0.000 A 
ATOM     16  N   UNL     1       3.820   7.397  17.399  0.00  0.00    +0.000 N 
ATOM     17  H   UNL     1       4.157   8.307  17.131  0.00  0.00    +0.000 HD
BRANCH  10  18
ATOM     18  C   UNL     1       2.923   2.844  17.955  0.00  0.00    +0.000 C 
ATOM     19  N   UNL     1       1.591   3.136  18.000  0.00  0.00    +0.000 N 
ATOM     20  O   UNL     1       3.347   1.758  18.334  0.00  0.00    +0.000 OA
ATOM     21  H   UNL     1       1.247   4.048  17.697  0.00  0.00    +0.000 HD
ATOM     22  H   UNL     1       0.938   2.451  18.343  0.00  0.00    +0.000 HD
ENDBRANCH  10  18
ENDBRANCH   4   7
BRANCH   1  25
ATOM     23  C   UNL     1      -1.914  12.976  21.211  0.00  0.00    +0.000 A 
ATOM     24  C   UNL     1      -0.990  12.162  20.525  0.00  0.00    +0.000 A 
ATOM     25  C   UNL     1      -0.410  11.032  21.122  0.00  0.00    +0.000 A 
ATOM     26  C   UNL     1      -0.763  10.761  22.449  0.00  0.00    +0.000 A 
ATOM     27  C   UNL     1      -1.722  11.517  23.115  0.00  0.00    +0.000 A 
ATOM     28  C   UNL     1      -2.324  12.623  22.515  0.00  0.00    +0.000 A 
BRANCH  28  29
ATOM     29  N   UNL     1      -3.350  13.351  23.177  0.00  0.00    +0.000 N 
ATOM     30  C   UNL     1      -4.710  13.143  23.011  0.00  0.00    +0.000 C 
ATOM     31  O   UNL     1      -5.228  12.207  22.412  0.00  0.00    +0.000 OA
ATOM     32  H   UNL     1      -3.030  14.057  23.827  0.00  0.00    +0.000 HD
BRANCH  30  33
ATOM     33  C   UNL     1      -5.652  14.124  23.619  0.00  0.00    +0.000 C 
ATOM     34  C   UNL     1      -5.303  15.541  23.975  0.00  0.00    +0.000 C 
ATOM     35  C   UNL     1      -6.246  15.267  22.836  0.00  0.00    +0.000 C 
ENDBRANCH  30  33
ENDBRANCH  28  29
BRANCH  23  37
ATOM     36  C   UNL     1      -1.581  15.236  20.598  0.00  0.00    +0.000 C 
ATOM     37  O   UNL     1      -2.464  14.110  20.652  0.00  0.00    +0.000 OA
ENDBRANCH  23  37
ENDBRANCH   1  25
TORSDOF 6
ENDMDL
MODEL 5
REMARK VINA RESULT:      -8.8      3.909     11.890
REMARK  Name = 
REMARK  7 active torsions:
REMARK  status: ('A' for Active; 'I' for Inactive)
REMARK    1  A    between atoms: C_1  and  O_2
REMARK    2  A    between atoms: O_2  and  C_3
REMARK    3  A    between atoms: C_5  and  C_6
REMARK    4  A    between atoms: C_9  and  C_10
REMARK    5  A    between atoms: C_13  and  C_14
REMARK    6  A    between atoms: C_27  and  N_28
REMARK    7  A    between atoms: C_29  and  C_31
REMARK                            x       y       z     vdW  Elec       q    Type
REMARK                         _______ _______ _______ _____ _____    ______ ____
ROOT
ATOM      1  C   UNL     1       0.691   9.214  20.561  0.00  0.00    +0.000 A 
ATOM      2  C   UNL     1      -0.020  10.226  19.899  0.00  0.00    +0.000 A 
ATOM      3  C   UNL     1      -0.821  11.124  20.613  0.00  0.00    +0.000 A 
ATOM      4  C   UNL     1      -0.951  11.031  22.006  0.00  0.00    +0.000 A 
ATOM      5  C   UNL     1      -0.274  10.010  22.666  0.00  0.00    +0.000 A 
ATOM      6  C   UNL     1       0.539   9.129  21.955  0.00  0.00    +0.000 A 
ENDROOT
BRANCH   4   7
ATOM      7  C   UNL     1      -1.728  12.032  22.734  0.00  0.00    +0.000 A 
ATOM      8  N   UNL     1      -3.041  12.040  22.836  0.00  0.00    +0.000 NA
ATOM      9  C   UNL     1      -3.374  13.237  23.434  0.00  0.00    +0.000 A 
ATOM     10  C   UNL     1      -4.640  13.776  23.729  0.00  0.00    +0.000 A 
ATOM     11  C   UNL     1      -4.702  15.059  24.281  0.00  0.00    +0.000 A 
ATOM     12  C   UNL     1      -3.535  15.771  24.546  0.00  0.00    +0.000 A 
ATOM     13  F   UNL     1      -3.625  17.004  25.060  0.00  0.00    +0.000 F 
ATOM     14  C   UNL     1      -2.264  15.236  24.305  0.00  0.00    +0.000 A 
ATOM     15  C   UNL     1      -2.232  13.959  23.742  0.00  0.00    +0.000 A 
ATOM     16  N   UNL     1      -1.201  13.141  23.362  0.00  0.00    +0.000 N 
ATOM     17  H   UNL     1      -0.221  13.346  23.467  0.00  0.00    +0.000 HD
BRANCH  10  18
ATOM     18  C   UNL     1      -5.872  12.998  23.471  0.00  0.00    +0.000 C 
ATOM     19  N   UNL     1      -5.984  12.378  22.261  0.00  0.00    +0.000 N 
ATOM     20  O   UNL     1      -6.754  12.903  24.316  0.00  0.00    +0.000 OA
ATOM     21  H   UNL     1      -5.251  12.473  21.557  0.00  0.00    +0.000 HD
ATOM     22  H   UNL     1      -6.799  11.826  22.054  0.00  0.00    +0.000 HD
ENDBRANCH  10  18
ENDBRANCH   4   7
BRANCH   1  25
ATOM     23  C   UNL     1       2.748   6.116  19.664  0.00  0.00    +0.000 A 
ATOM     24  C   UNL     1       1.966   7.035  20.392  0.00  0.00    +0.000 A 
ATOM     25  C   UNL     1       1.613   8.288  19.867  0.00  0.00    +0.000 A 
ATOM     26  C   UNL     1       2.100   8.605  18.594  0.00  0.00    +0.000 A 
ATOM     27  C   UNL     1       2.817   7.682  17.839  0.00  0.00    +0.000 A 
ATOM     28  C   UNL     1       3.144   6.424  18.344  0.00  0.00    +0.000 A 
BRANCH  28  29
ATOM     29  N   UNL     1       3.819   5.463  17.544  0.00  0.00    +0.000 N 
ATOM     30  C   UNL     1       5.190   5.266  17.520  0.00  0.00    +0.000 C 
ATOM     31  O   UNL     1       6.003   5.761  18.293  0.00  0.00    +0.000 OA
ATOM     32  H   UNL     1       3.222   4.880  16.972  0.00  0.00    +0.000 HD
BRANCH  30  33
ATOM     33  C   UNL     1       5.754   4.361  16.479  0.00  0.00    +0.000 C 
ATOM     34  C   UNL     1       5.390   4.399  15.022  0.00  0.00    +0.000 C 
ATOM     35  C   UNL     1       6.762   4.831  15.461  0.00  0.00    +0.000 C 
ENDBRANCH  30  33
ENDBRANCH  28  29
BRANCH  23  37
ATOM     36  C   UNL     1       2.130   4.234  20.957  0.00  0.00    +0.000 C 
ATOM     37  O   UNL     1       3.134   4.897  20.180  0.00  0.00    +0.000 OA
ENDBRANCH  23  37
ENDBRANCH   1  25
TORSDOF 6
ENDMDL
MODEL 6
REMARK VINA RESULT:      -8.8      1.920      2.751
REMARK  Name = 
REMARK  7 active torsions:
REMARK  status: ('A' for Active; 'I' for Inactive)
REMARK    1  A    between atoms: C_1  and  O_2
REMARK    2  A    between atoms: O_2  and  C_3
REMARK    3  A    between atoms: C_5  and  C_6
REMARK    4  A    between atoms: C_9  and  C_10
REMARK    5  A    between atoms: C_13  and  C_14
REMARK    6  A    between atoms: C_27  and  N_28
REMARK    7  A    between atoms: C_29  and  C_31
REMARK                            x       y       z     vdW  Elec       q    Type
REMARK                         _______ _______ _______ _____ _____    ______ ____
ROOT
ATOM      1  C   UNL     1      -0.049  10.327  20.832  0.00  0.00    +0.000 A 
ATOM      2  C   UNL     1       0.456  10.346  19.523  0.00  0.00    +0.000 A 
ATOM      3  C   UNL     1       1.261   9.303  19.050  0.00  0.00    +0.000 A 
ATOM      4  C   UNL     1       1.600   8.219  19.872  0.00  0.00    +0.000 A 
ATOM      5  C   UNL     1       1.130   8.209  21.181  0.00  0.00    +0.000 A 
ATOM      6  C   UNL     1       0.312   9.239  21.644  0.00  0.00    +0.000 A 
ENDROOT
BRANCH   4   7
ATOM      7  C   UNL     1       2.373   7.105  19.327  0.00  0.00    +0.000 A 
ATOM      8  N   UNL     1       3.300   7.213  18.397  0.00  0.00    +0.000 NA
ATOM      9  C   UNL     1       3.640   5.925  18.041  0.00  0.00    +0.000 A 
ATOM     10  C   UNL     1       4.539   5.470  17.059  0.00  0.00    +0.000 A 
ATOM     11  C   UNL     1       4.649   4.092  16.848  0.00  0.00    +0.000 A 
ATOM     12  C   UNL     1       3.897   3.199  17.609  0.00  0.00    +0.000 A 
ATOM     13  F   UNL     1       4.011   1.886  17.375  0.00  0.00    +0.000 F 
ATOM     14  C   UNL     1       3.033   3.628  18.623  0.00  0.00    +0.000 A 
ATOM     15  C   UNL     1       2.933   5.008  18.802  0.00  0.00    +0.000 A 
ATOM     16  N   UNL     1       2.197   5.779  19.663  0.00  0.00    +0.000 N 
ATOM     17  H   UNL     1       1.582   5.432  20.380  0.00  0.00    +0.000 HD
BRANCH  10  18
ATOM     18  C   UNL     1       5.356   6.426  16.279  0.00  0.00    +0.000 C 
ATOM     19  N   UNL     1       6.349   7.090  16.938  0.00  0.00    +0.000 N 
ATOM     20  O   UNL     1       5.156   6.607  15.084  0.00  0.00    +0.000 OA
ATOM     21  H   UNL     1       6.499   6.944  17.937  0.00  0.00    +0.000 HD
ATOM     22  H   UNL     1       6.936   7.737  16.439  0.00  0.00    +0.000 HD
ENDBRANCH  10  18
ENDBRANCH   4   7
BRANCH   1  25
ATOM     23  C   UNL     1      -2.872  12.895  21.098  0.00  0.00    +0.000 A 
ATOM     24  C   UNL     1      -1.926  12.001  20.556  0.00  0.00    +0.000 A 
ATOM     25  C   UNL     1      -0.967  11.361  21.358  0.00  0.00    +0.000 A 
ATOM     26  C   UNL     1      -0.965  11.674  22.721  0.00  0.00    +0.000 A 
ATOM     27  C   UNL     1      -1.935  12.503  23.278  0.00  0.00    +0.000 A 
ATOM     28  C   UNL     1      -2.908  13.117  22.492  0.00  0.00    +0.000 A 
BRANCH  28  29
ATOM     29  N   UNL     1      -3.934  13.909  23.075  0.00  0.00    +0.000 N 
ATOM     30  C   UNL     1      -5.191  13.449  23.435  0.00  0.00    +0.000 C 
ATOM     31  O   UNL     1      -5.548  12.276  23.464  0.00  0.00    +0.000 OA
ATOM     32  H   UNL     1      -3.690  14.876  23.244  0.00  0.00    +0.000 HD
BRANCH  30  33
ATOM     33  C   UNL     1      -6.217  14.449  23.844  0.00  0.00    +0.000 C 
ATOM     34  C   UNL     1      -6.078  15.936  23.679  0.00  0.00    +0.000 C 
ATOM     35  C   UNL     1      -7.075  15.180  22.843  0.00  0.00    +0.000 C 
ENDBRANCH  30  33
ENDBRANCH  28  29
BRANCH  23  37
ATOM     36  C   UNL     1      -4.811  12.721  19.754  0.00  0.00    +0.000 C 
ATOM     37  O   UNL     1      -3.797  13.559  20.320  0.00  0.00    +0.000 OA
ENDBRANCH  23  37
ENDBRANCH   1  25
TORSDOF 6
ENDMDL
MODEL 7
REMARK VINA RESULT:      -8.7      1.265      1.641
REMARK  Name = 
REMARK  7 active torsions:
REMARK  status: ('A' for Active; 'I' for Inactive)
REMARK    1  A    between atoms: C_1  and  O_2
REMARK    2  A    between atoms: O_2  and  C_3
REMARK    3  A    between atoms: C_5  and  C_6
REMARK    4  A    between atoms: C_9  and  C_10
REMARK    5  A    between atoms: C_13  and  C_14
REMARK    6  A    between atoms: C_27  and  N_28
REMARK    7  A    between atoms: C_29  and  C_31
REMARK                            x       y       z     vdW  Elec       q    Type
REMARK                         _______ _______ _______ _____ _____    ______ ____
ROOT
ATOM      1  C   UNL     1       0.231  10.305  20.089  0.00  0.00    +0.000 A 
ATOM      2  C   UNL     1       0.578  10.400  18.734  0.00  0.00    +0.000 A 
ATOM      3  C   UNL     1       1.387   9.428  18.131  0.00  0.00    +0.000 A 
ATOM      4  C   UNL     1       1.886   8.343  18.866  0.00  0.00    +0.000 A 
ATOM      5  C   UNL     1       1.572   8.261  20.219  0.00  0.00    +0.000 A 
ATOM      6  C   UNL     1       0.751   9.218  20.812  0.00  0.00    +0.000 A 
ENDROOT
BRANCH   4   7
ATOM      7  C   UNL     1       2.659   7.302  18.193  0.00  0.00    +0.000 A 
ATOM      8  N   UNL     1       2.431   6.009  18.295  0.00  0.00    +0.000 NA
ATOM      9  C   UNL     1       3.486   5.381  17.667  0.00  0.00    +0.000 A 
ATOM     10  C   UNL     1       3.767   4.009  17.532  0.00  0.00    +0.000 A 
ATOM     11  C   UNL     1       4.957   3.634  16.900  0.00  0.00    +0.000 A 
ATOM     12  C   UNL     1       5.828   4.602  16.404  0.00  0.00    +0.000 A 
ATOM     13  F   UNL     1       6.968   4.215  15.818  0.00  0.00    +0.000 F 
ATOM     14  C   UNL     1       5.546   5.971  16.485  0.00  0.00    +0.000 A 
ATOM     15  C   UNL     1       4.358   6.316  17.131  0.00  0.00    +0.000 A 
ATOM     16  N   UNL     1       3.772   7.523  17.408  0.00  0.00    +0.000 N 
ATOM     17  H   UNL     1       4.130   8.424  17.137  0.00  0.00    +0.000 HD
BRANCH  10  18
ATOM     18  C   UNL     1       2.820   2.989  18.035  0.00  0.00    +0.000 C 
ATOM     19  N   UNL     1       2.553   2.985  19.373  0.00  0.00    +0.000 N 
ATOM     20  O   UNL     1       2.286   2.187  17.279  0.00  0.00    +0.000 OA
ATOM     21  H   UNL     1       3.013   3.647  19.999  0.00  0.00    +0.000 HD
ATOM     22  H   UNL     1       1.902   2.317  19.752  0.00  0.00    +0.000 HD
ENDBRANCH  10  18
ENDBRANCH   4   7
BRANCH   1  25
ATOM     23  C   UNL     1      -2.704  12.660  20.780  0.00  0.00    +0.000 A 
ATOM     24  C   UNL     1      -1.774  11.849  20.099  0.00  0.00    +0.000 A 
ATOM     25  C   UNL     1      -0.683  11.259  20.757  0.00  0.00    +0.000 A 
ATOM     26  C   UNL     1      -0.535  11.536  22.120  0.00  0.00    +0.000 A 
ATOM     27  C   UNL     1      -1.482  12.281  22.817  0.00  0.00    +0.000 A 
ATOM     28  C   UNL     1      -2.583  12.844  22.175  0.00  0.00    +0.000 A 
BRANCH  28  29
ATOM     29  N   UNL     1      -3.580  13.547  22.904  0.00  0.00    +0.000 N 
ATOM     30  C   UNL     1      -4.460  12.974  23.809  0.00  0.00    +0.000 C 
ATOM     31  O   UNL     1      -4.406  11.828  24.240  0.00  0.00    +0.000 OA
ATOM     32  H   UNL     1      -3.613  14.545  22.742  0.00  0.00    +0.000 HD
BRANCH  30  33
ATOM     33  C   UNL     1      -5.575  13.812  24.334  0.00  0.00    +0.000 C 
ATOM     34  C   UNL     1      -6.133  15.026  23.647  0.00  0.00    +0.000 C 
ATOM     35  C   UNL     1      -6.961  13.774  23.743  0.00  0.00    +0.000 C 
ENDBRANCH  30  33
ENDBRANCH  28  29
BRANCH  23  37
ATOM     36  C   UNL     1      -4.673  12.380  19.500  0.00  0.00    +0.000 C 
ATOM     37  O   UNL     1      -3.759  13.277  20.142  0.00  0.00    +0.000 OA
ENDBRANCH  23  37
ENDBRANCH   1  25
TORSDOF 6
ENDMDL
MODEL 8
REMARK VINA RESULT:      -8.7      0.985      1.085
REMARK  Name = 
REMARK  7 active torsions:
REMARK  status: ('A' for Active; 'I' for Inactive)
REMARK    1  A    between atoms: C_1  and  O_2
REMARK    2  A    between atoms: O_2  and  C_3
REMARK    3  A    between atoms: C_5  and  C_6
REMARK    4  A    between atoms: C_9  and  C_10
REMARK    5  A    between atoms: C_13  and  C_14
REMARK    6  A    between atoms: C_27  and  N_28
REMARK    7  A    between atoms: C_29  and  C_31
REMARK                            x       y       z     vdW  Elec       q    Type
REMARK                         _______ _______ _______ _____ _____    ______ ____
ROOT
ATOM      1  C   UNL     1       0.354   9.917  20.027  0.00  0.00    +0.000 A 
ATOM      2  C   UNL     1       0.955   8.852  20.713  0.00  0.00    +0.000 A 
ATOM      3  C   UNL     1       1.753   7.922  20.036  0.00  0.00    +0.000 A 
ATOM      4  C   UNL     1       1.963   8.017  18.653  0.00  0.00    +0.000 A 
ATOM      5  C   UNL     1       1.344   9.054  17.960  0.00  0.00    +0.000 A 
ATOM      6  C   UNL     1       0.566   9.990  18.640  0.00  0.00    +0.000 A 
ENDROOT
BRANCH   4   7
ATOM      7  C   UNL     1       2.866   7.082  17.987  0.00  0.00    +0.000 A 
ATOM      8  N   UNL     1       2.731   5.772  17.988  0.00  0.00    +0.000 NA
ATOM      9  C   UNL     1       3.879   5.266  17.417  0.00  0.00    +0.000 A 
ATOM     10  C   UNL     1       4.275   3.930  17.221  0.00  0.00    +0.000 A 
ATOM     11  C   UNL     1       5.539   3.685  16.674  0.00  0.00    +0.000 A 
ATOM     12  C   UNL     1       6.370   4.745  16.317  0.00  0.00    +0.000 A 
ATOM     13  F   UNL     1       7.581   4.481  15.811  0.00  0.00    +0.000 F 
ATOM     14  C   UNL     1       5.978   6.081  16.459  0.00  0.00    +0.000 A 
ATOM     15  C   UNL     1       4.718   6.295  17.019  0.00  0.00    +0.000 A 
ATOM     16  N   UNL     1       4.020   7.435  17.318  0.00  0.00    +0.000 N 
ATOM     17  H   UNL     1       4.329   8.376  17.137  0.00  0.00    +0.000 HD
BRANCH  10  18
ATOM     18  C   UNL     1       3.371   2.813  17.574  0.00  0.00    +0.000 C 
ATOM     19  N   UNL     1       3.880   1.812  18.348  0.00  0.00    +0.000 N 
ATOM     20  O   UNL     1       2.205   2.793  17.197  0.00  0.00    +0.000 OA
ATOM     21  H   UNL     1       4.856   1.828  18.647  0.00  0.00    +0.000 HD
ATOM     22  H   UNL     1       3.292   1.042  18.623  0.00  0.00    +0.000 HD
ENDBRANCH  10  18
ENDBRANCH   4   7
BRANCH   1  25
ATOM     23  C   UNL     1      -2.333  12.532  20.789  0.00  0.00    +0.000 A 
ATOM     24  C   UNL     1      -1.518  11.618  20.091  0.00  0.00    +0.000 A 
ATOM     25  C   UNL     1      -0.433  10.972  20.704  0.00  0.00    +0.000 A 
ATOM     26  C   UNL     1      -0.169  11.298  22.038  0.00  0.00    +0.000 A 
ATOM     27  C   UNL     1      -1.003  12.148  22.758  0.00  0.00    +0.000 A 
ATOM     28  C   UNL     1      -2.100  12.769  22.162  0.00  0.00    +0.000 A 
BRANCH  28  29
ATOM     29  N   UNL     1      -2.986  13.583  22.919  0.00  0.00    +0.000 N 
ATOM     30  C   UNL     1      -4.015  13.113  23.719  0.00  0.00    +0.000 C 
ATOM     31  O   UNL     1      -4.211  11.943  24.028  0.00  0.00    +0.000 OA
ATOM     32  H   UNL     1      -2.814  14.579  22.862  0.00  0.00    +0.000 HD
BRANCH  30  33
ATOM     33  C   UNL     1      -4.977  14.102  24.282  0.00  0.00    +0.000 C 
ATOM     34  C   UNL     1      -5.101  15.530  23.832  0.00  0.00    +0.000 C 
ATOM     35  C   UNL     1      -6.204  14.552  23.532  0.00  0.00    +0.000 C 
ENDBRANCH  30  33
ENDBRANCH  28  29
BRANCH  23  37
ATOM     36  C   UNL     1      -4.291  12.364  19.474  0.00  0.00    +0.000 C 
ATOM     37  O   UNL     1      -3.378  13.203  20.192  0.00  0.00    +0.000 OA
ENDBRANCH  23  37
ENDBRANCH   1  25
TORSDOF 6
ENDMDL
MODEL 9
REMARK VINA RESULT:      -8.6      1.058      1.289
REMARK  Name = 
REMARK  7 active torsions:
REMARK  status: ('A' for Active; 'I' for Inactive)
REMARK    1  A    between atoms: C_1  and  O_2
REMARK    2  A    between atoms: O_2  and  C_3
REMARK    3  A    between atoms: C_5  and  C_6
REMARK    4  A    between atoms: C_9  and  C_10
REMARK    5  A    between atoms: C_13  and  C_14
REMARK    6  A    between atoms: C_27  and  N_28
REMARK    7  A    between atoms: C_29  and  C_31
REMARK                            x       y       z     vdW  Elec       q    Type
REMARK                         _______ _______ _______ _____ _____    ______ ____
ROOT
ATOM      1  C   UNL     1       0.274   9.903  20.213  0.00  0.00    +0.000 A 
ATOM      2  C   UNL     1       0.868   8.806  20.854  0.00  0.00    +0.000 A 
ATOM      3  C   UNL     1       1.673   7.909  20.141  0.00  0.00    +0.000 A 
ATOM      4  C   UNL     1       1.895   8.070  18.766  0.00  0.00    +0.000 A 
ATOM      5  C   UNL     1       1.283   9.138  18.118  0.00  0.00    +0.000 A 
ATOM      6  C   UNL     1       0.499  10.041  18.833  0.00  0.00    +0.000 A 
ENDROOT
BRANCH   4   7
ATOM      7  C   UNL     1       2.805   7.167  18.064  0.00  0.00    +0.000 A 
ATOM      8  N   UNL     1       2.710   5.854  18.060  0.00  0.00    +0.000 NA
ATOM      9  C   UNL     1       3.854   5.386  17.449  0.00  0.00    +0.000 A 
ATOM     10  C   UNL     1       4.284   4.064  17.231  0.00  0.00    +0.000 A 
ATOM     11  C   UNL     1       5.536   3.862  16.642  0.00  0.00    +0.000 A 
ATOM     12  C   UNL     1       6.323   4.948  16.266  0.00  0.00    +0.000 A 
ATOM     13  F   UNL     1       7.524   4.725  15.719  0.00  0.00    +0.000 F 
ATOM     14  C   UNL     1       5.895   6.271  16.430  0.00  0.00    +0.000 A 
ATOM     15  C   UNL     1       4.648   6.443  17.032  0.00  0.00    +0.000 A 
ATOM     16  N   UNL     1       3.925   7.559  17.361  0.00  0.00    +0.000 N 
ATOM     17  H   UNL     1       4.199   8.510  17.176  0.00  0.00    +0.000 HD
BRANCH  10  18
ATOM     18  C   UNL     1       3.426   2.918  17.606  0.00  0.00    +0.000 C 
ATOM     19  N   UNL     1       3.917   2.038  18.525  0.00  0.00    +0.000 N 
ATOM     20  O   UNL     1       2.311   2.770  17.118  0.00  0.00    +0.000 OA
ATOM     21  H   UNL     1       4.852   2.160  18.916  0.00  0.00    +0.000 HD
ATOM     22  H   UNL     1       3.358   1.254  18.818  0.00  0.00    +0.000 HD
ENDBRANCH  10  18
ENDBRANCH   4   7
BRANCH   1  25
ATOM     23  C   UNL     1      -2.334  12.583  21.023  0.00  0.00    +0.000 A 
ATOM     24  C   UNL     1      -1.504  11.701  20.301  0.00  0.00    +0.000 A 
ATOM     25  C   UNL     1      -0.520  10.924  20.932  0.00  0.00    +0.000 A 
ATOM     26  C   UNL     1      -0.370  11.086  22.314  0.00  0.00    +0.000 A 
ATOM     27  C   UNL     1      -1.225  11.903  23.047  0.00  0.00    +0.000 A 
ATOM     28  C   UNL     1      -2.225  12.653  22.430  0.00  0.00    +0.000 A 
BRANCH  28  29
ATOM     29  N   UNL     1      -3.136  13.433  23.191  0.00  0.00    +0.000 N 
ATOM     30  C   UNL     1      -2.886  14.710  23.670  0.00  0.00    +0.000 C 
ATOM     31  O   UNL     1      -1.930  15.417  23.373  0.00  0.00    +0.000 OA
ATOM     32  H   UNL     1      -4.034  13.003  23.366  0.00  0.00    +0.000 HD
BRANCH  30  33
ATOM     33  C   UNL     1      -3.864  15.309  24.622  0.00  0.00    +0.000 C 
ATOM     34  C   UNL     1      -3.987  16.777  24.915  0.00  0.00    +0.000 C 
ATOM     35  C   UNL     1      -5.080  16.070  24.160  0.00  0.00    +0.000 C 
ENDBRANCH  30  33
ENDBRANCH  28  29
BRANCH  23  37
ATOM     36  C   UNL     1      -4.418  12.671  19.909  0.00  0.00    +0.000 C 
ATOM     37  O   UNL     1      -3.280  13.379  20.414  0.00  0.00    +0.000 OA
ENDBRANCH  23  37
ENDBRANCH   1  25
TORSDOF 6
ENDMDL
