MODEL 1
REMARK VINA RESULT:      -7.9      0.000      0.000
REMARK  Name = 
REMARK  5 active torsions:
REMARK  status: ('A' for Active; 'I' for Inactive)
REMARK    1  A    between atoms: C_2  and  C_3
REMARK    2  A    between atoms: C_3  and  N_4
REMARK    3  A    between atoms: N_10  and  C_11
REMARK    4  A    between atoms: C_11  and  C_12
REMARK    5  A    between atoms: C_12  and  C_13
REMARK                            x       y       z     vdW  Elec       q    Type
REMARK                         _______ _______ _______ _____ _____    ______ ____
ROOT
ATOM      1  C   UNL     1       5.347   5.348  16.767  0.00  0.00    +0.000 A 
ATOM      2  C   UNL     1       5.906   4.363  15.973  0.00  0.00    +0.000 A 
ATOM      3  N   UNL     1       5.336   3.168  16.298  0.00  0.00    +0.000 N 
ATOM      4  C   UNL     1       4.417   3.336  17.306  0.00  0.00    +0.000 A 
ATOM      5  C   UNL     1       3.626   2.369  17.934  0.00  0.00    +0.000 A 
ATOM      6  C   UNL     1       2.804   2.784  18.977  0.00  0.00    +0.000 A 
ATOM      7  C   UNL     1       2.765   4.124  19.365  0.00  0.00    +0.000 A 
ATOM      8  C   UNL     1       3.529   5.118  18.694  0.00  0.00    +0.000 A 
ATOM      9  C   UNL     1       4.395   4.696  17.640  0.00  0.00    +0.000 A 
ATOM     10  C   UNL     1       3.445   6.544  19.190  0.00  0.00    +0.000 C 
ATOM     11  C   UNL     1       2.137   6.827  19.914  0.00  0.00    +0.000 C 
ATOM     12  N   UNL     1       1.824   5.803  20.876  0.00  0.00    +0.000 N 
ATOM     13  C   UNL     1       1.926   4.473  20.551  0.00  0.00    +0.000 C 
ATOM     14  O   UNL     1       1.359   3.621  21.224  0.00  0.00    +0.000 OA
ATOM     15  H   UNL     1       5.562   2.278  15.876  0.00  0.00    +0.000 HD
ATOM     16  H   UNL     1       1.176   5.997  21.629  0.00  0.00    +0.000 HD
ENDROOT
BRANCH   1  17
ATOM     17  C   UNL     1       5.727   6.799  16.691  0.00  0.00    +0.000 C 
BRANCH  17  18
ATOM     18  C   UNL     1       7.073   7.088  17.364  0.00  0.00    +0.000 C 
BRANCH  18  21
ATOM     19  O   UNL     1       8.854   8.404  19.099  0.00  0.00    +0.000 OA
ATOM     20  C   UNL     1       8.343   9.047  18.181  0.00  0.00    +0.000 C 
ATOM     21  N   UNL     1       7.463   8.486  17.280  0.00  0.00    +0.000 N 
ATOM     22  H   UNL     1       7.081   9.057  16.535  0.00  0.00    +0.000 HD
BRANCH  20  23
ATOM     23  C   UNL     1       8.652  10.535  17.959  0.00  0.00    +0.000 C 
BRANCH  23  24
ATOM     24  N   UNL     1       9.817  10.998  18.750  0.00  0.00    +0.000 NA
ATOM     25  C   UNL     1       9.395  12.015  19.748  0.00  0.00    +0.000 C 
ATOM     26  C   UNL     1       9.047  13.391  19.144  0.00  0.00    +0.000 C 
ATOM     27  O   UNL     1      10.124  13.909  18.355  0.00  0.00    +0.000 OA
ATOM     28  C   UNL     1      10.496  12.984  17.324  0.00  0.00    +0.000 C 
ATOM     29  C   UNL     1      10.881  11.621  17.923  0.00  0.00    +0.000 C 
ENDBRANCH  23  24
ENDBRANCH  20  23
ENDBRANCH  18  21
ENDBRANCH  17  18
ENDBRANCH   1  17
TORSDOF 5
ENDMDL
MODEL 2
REMARK VINA RESULT:      -7.8      5.213      8.187
REMARK  Name = 
REMARK  5 active torsions:
REMARK  status: ('A' for Active; 'I' for Inactive)
REMARK    1  A    between atoms: C_2  and  C_3
REMARK    2  A    between atoms: C_3  and  N_4
REMARK    3  A    between atoms: N_10  and  C_11
REMARK    4  A    between atoms: C_11  and  C_12
REMARK    5  A    between atoms: C_12  and  C_13
REMARK                            x       y       z     vdW  Elec       q    Type
REMARK                         _______ _______ _______ _____ _____    ______ ____
ROOT
ATOM      1  C   UNL     1       2.209   7.506  19.168  0.00  0.00    +0.000 A 
ATOM      2  C   UNL     1       1.536   7.931  20.300  0.00  0.00    +0.000 A 
ATOM      3  N   UNL     1       1.466   6.890  21.178  0.00  0.00    +0.000 N 
ATOM      4  C   UNL     1       2.066   5.774  20.645  0.00  0.00    +0.000 A 
ATOM      5  C   UNL     1       2.199   4.502  21.211  0.00  0.00    +0.000 A 
ATOM      6  C   UNL     1       2.804   3.514  20.442  0.00  0.00    +0.000 A 
ATOM      7  C   UNL     1       3.274   3.795  19.159  0.00  0.00    +0.000 A 
ATOM      8  C   UNL     1       3.188   5.100  18.602  0.00  0.00    +0.000 A 
ATOM      9  C   UNL     1       2.543   6.114  19.373  0.00  0.00    +0.000 A 
ATOM     10  C   UNL     1       3.702   5.315  17.196  0.00  0.00    +0.000 C 
ATOM     11  C   UNL     1       4.766   4.299  16.808  0.00  0.00    +0.000 C 
ATOM     12  N   UNL     1       4.367   2.955  17.137  0.00  0.00    +0.000 N 
ATOM     13  C   UNL     1       3.829   2.658  18.364  0.00  0.00    +0.000 C 
ATOM     14  O   UNL     1       3.800   1.502  18.770  0.00  0.00    +0.000 OA
ATOM     15  H   UNL     1       1.022   6.919  22.086  0.00  0.00    +0.000 HD
ATOM     16  H   UNL     1       4.810   2.170  16.677  0.00  0.00    +0.000 HD
ENDROOT
BRANCH   1  17
ATOM     17  C   UNL     1       2.482   8.384  17.980  0.00  0.00    +0.000 C 
BRANCH  17  18
ATOM     18  C   UNL     1       2.214   9.864  18.272  0.00  0.00    +0.000 C 
BRANCH  18  21
ATOM     19  O   UNL     1       0.131  11.004  19.781  0.00  0.00    +0.000 OA
ATOM     20  C   UNL     1      -0.027  10.869  18.566  0.00  0.00    +0.000 C 
ATOM     21  N   UNL     1       0.939  10.325  17.747  0.00  0.00    +0.000 N 
ATOM     22  H   UNL     1       0.763  10.249  16.752  0.00  0.00    +0.000 HD
BRANCH  20  23
ATOM     23  C   UNL     1      -1.319  11.306  17.861  0.00  0.00    +0.000 C 
BRANCH  23  24
ATOM     24  N   UNL     1      -2.307  10.207  17.749  0.00  0.00    +0.000 NA
ATOM     25  C   UNL     1      -2.355   9.693  16.355  0.00  0.00    +0.000 C 
ATOM     26  C   UNL     1      -3.047  10.640  15.353  0.00  0.00    +0.000 C 
ATOM     27  O   UNL     1      -4.367  10.990  15.782  0.00  0.00    +0.000 OA
ATOM     28  C   UNL     1      -4.342  11.572  17.093  0.00  0.00    +0.000 C 
ATOM     29  C   UNL     1      -3.689  10.616  18.105  0.00  0.00    +0.000 C 
ENDBRANCH  23  24
ENDBRANCH  20  23
ENDBRANCH  18  21
ENDBRANCH  17  18
ENDBRANCH   1  17
TORSDOF 5
ENDMDL
MODEL 3
REMARK VINA RESULT:      -7.6      4.668      7.441
REMARK  Name = 
REMARK  5 active torsions:
REMARK  status: ('A' for Active; 'I' for Inactive)
REMARK    1  A    between atoms: C_2  and  C_3
REMARK    2  A    between atoms: C_3  and  N_4
REMARK    3  A    between atoms: N_10  and  C_11
REMARK    4  A    between atoms: C_11  and  C_12
REMARK    5  A    between atoms: C_12  and  C_13
REMARK                            x       y       z     vdW  Elec       q    Type
REMARK                         _______ _______ _______ _____ _____    ______ ____
ROOT
ATOM      1  C   UNL     1       1.887   7.621  19.611  0.00  0.00    +0.000 A 
ATOM      2  C   UNL     1       2.412   7.687  18.333  0.00  0.00    +0.000 A 
ATOM      3  N   UNL     1       2.139   8.919  17.815  0.00  0.00    +0.000 N 
ATOM      4  C   UNL     1       1.428   9.670  18.720  0.00  0.00    +0.000 A 
ATOM      5  C   UNL     1       0.944  10.975  18.578  0.00  0.00    +0.000 A 
ATOM      6  C   UNL     1       0.197  11.503  19.626  0.00  0.00    +0.000 A 
ATOM      7  C   UNL     1      -0.042  10.756  20.780  0.00  0.00    +0.000 A 
ATOM      8  C   UNL     1       0.494   9.450  20.948  0.00  0.00    +0.000 A 
ATOM      9  C   UNL     1       1.238   8.889  19.867  0.00  0.00    +0.000 A 
ATOM     10  C   UNL     1       0.170   8.700  22.221  0.00  0.00    +0.000 C 
ATOM     11  C   UNL     1      -0.155   9.636  23.376  0.00  0.00    +0.000 C 
ATOM     12  N   UNL     1      -1.091  10.658  22.989  0.00  0.00    +0.000 N 
ATOM     13  C   UNL     1      -0.928  11.360  21.820  0.00  0.00    +0.000 C 
ATOM     14  O   UNL     1      -1.504  12.428  21.648  0.00  0.00    +0.000 OA
ATOM     15  H   UNL     1       2.402   9.237  16.892  0.00  0.00    +0.000 HD
ATOM     16  H   UNL     1      -1.625  11.148  23.695  0.00  0.00    +0.000 HD
ENDROOT
BRANCH   1  17
ATOM     17  C   UNL     1       1.994   6.414  20.498  0.00  0.00    +0.000 C 
BRANCH  17  18
ATOM     18  C   UNL     1       1.897   5.101  19.713  0.00  0.00    +0.000 C 
BRANCH  18  21
ATOM     19  O   UNL     1       1.950   3.767  17.237  0.00  0.00    +0.000 OA
ATOM     20  C   UNL     1       3.015   4.154  17.721  0.00  0.00    +0.000 C 
ATOM     21  N   UNL     1       3.086   4.820  18.926  0.00  0.00    +0.000 N 
ATOM     22  H   UNL     1       3.987   5.128  19.272  0.00  0.00    +0.000 HD
BRANCH  20  23
ATOM     23  C   UNL     1       4.359   3.931  17.011  0.00  0.00    +0.000 C 
BRANCH  23  24
ATOM     24  N   UNL     1       5.030   5.201  16.651  0.00  0.00    +0.000 NA
ATOM     25  C   UNL     1       5.507   5.154  15.244  0.00  0.00    +0.000 C 
ATOM     26  C   UNL     1       6.736   4.249  15.020  0.00  0.00    +0.000 C 
ATOM     27  O   UNL     1       7.820   4.606  15.884  0.00  0.00    +0.000 OA
ATOM     28  C   UNL     1       7.412   4.573  17.259  0.00  0.00    +0.000 C 
ATOM     29  C   UNL     1       6.212   5.505  17.497  0.00  0.00    +0.000 C 
ENDBRANCH  23  24
ENDBRANCH  20  23
ENDBRANCH  18  21
ENDBRANCH  17  18
ENDBRANCH   1  17
TORSDOF 5
ENDMDL
MODEL 4
REMARK VINA RESULT:      -7.6      4.872      7.871
REMARK  Name = 
REMARK  5 active torsions:
REMARK  status: ('A' for Active; 'I' for Inactive)
REMARK    1  A    between atoms: C_2  and  C_3
REMARK    2  A    between atoms: C_3  and  N_4
REMARK    3  A    between atoms: N_10  and  C_11
REMARK    4  A    between atoms: C_11  and  C_12
REMARK    5  A    between atoms: C_12  and  C_13
REMARK                            x       y       z     vdW  Elec       q    Type
REMARK                         _______ _______ _______ _____ _____    ______ ____
ROOT
ATOM      1  C   UNL     1       3.096   7.031  17.999  0.00  0.00    +0.000 A 
ATOM      2  C   UNL     1       4.154   7.498  17.239  0.00  0.00    +0.000 A 
ATOM      3  N   UNL     1       5.179   6.603  17.328  0.00  0.00    +0.000 N 
ATOM      4  C   UNL     1       4.829   5.556  18.146  0.00  0.00    +0.000 A 
ATOM      5  C   UNL     1       5.593   4.441  18.508  0.00  0.00    +0.000 A 
ATOM      6  C   UNL     1       5.030   3.537  19.402  0.00  0.00    +0.000 A 
ATOM      7  C   UNL     1       3.743   3.735  19.903  0.00  0.00    +0.000 A 
ATOM      8  C   UNL     1       2.945   4.839  19.496  0.00  0.00    +0.000 A 
ATOM      9  C   UNL     1       3.524   5.787  18.599  0.00  0.00    +0.000 A 
ATOM     10  C   UNL     1       1.568   4.991  20.102  0.00  0.00    +0.000 C 
ATOM     11  C   UNL     1       0.996   3.663  20.577  0.00  0.00    +0.000 C 
ATOM     12  N   UNL     1       1.950   2.916  21.354  0.00  0.00    +0.000 N 
ATOM     13  C   UNL     1       3.247   2.767  20.928  0.00  0.00    +0.000 C 
ATOM     14  O   UNL     1       3.958   1.882  21.390  0.00  0.00    +0.000 OA
ATOM     15  H   UNL     1       6.078   6.697  16.875  0.00  0.00    +0.000 HD
ATOM     16  H   UNL     1       1.632   2.187  21.979  0.00  0.00    +0.000 HD
ENDROOT
BRANCH   1  17
ATOM     17  C   UNL     1       1.786   7.752  18.141  0.00  0.00    +0.000 C 
BRANCH  17  18
ATOM     18  C   UNL     1       1.939   9.272  18.023  0.00  0.00    +0.000 C 
BRANCH  18  21
ATOM     19  O   UNL     1      -0.102   9.951  19.836  0.00  0.00    +0.000 OA
ATOM     20  C   UNL     1      -0.253  10.234  18.646  0.00  0.00    +0.000 C 
ATOM     21  N   UNL     1       0.695   9.945  17.687  0.00  0.00    +0.000 N 
ATOM     22  H   UNL     1       0.526  10.212  16.724  0.00  0.00    +0.000 HD
BRANCH  20  23
ATOM     23  C   UNL     1      -1.514  10.944  18.133  0.00  0.00    +0.000 C 
BRANCH  23  24
ATOM     24  N   UNL     1      -2.589   9.996  17.758  0.00  0.00    +0.000 NA
ATOM     25  C   UNL     1      -2.518   9.677  16.309  0.00  0.00    +0.000 C 
ATOM     26  C   UNL     1      -2.978  10.822  15.383  0.00  0.00    +0.000 C 
ATOM     27  O   UNL     1      -4.297  11.270  15.714  0.00  0.00    +0.000 OA
ATOM     28  C   UNL     1      -4.374  11.670  17.089  0.00  0.00    +0.000 C 
ATOM     29  C   UNL     1      -3.954  10.519  18.019  0.00  0.00    +0.000 C 
ENDBRANCH  23  24
ENDBRANCH  20  23
ENDBRANCH  18  21
ENDBRANCH  17  18
ENDBRANCH   1  17
TORSDOF 5
ENDMDL
MODEL 5
REMARK VINA RESULT:      -7.6      5.553      9.773
REMARK  Name = 
REMARK  5 active torsions:
REMARK  status: ('A' for Active; 'I' for Inactive)
REMARK    1  A    between atoms: C_2  and  C_3
REMARK    2  A    between atoms: C_3  and  N_4
REMARK    3  A    between atoms: N_10  and  C_11
REMARK    4  A    between atoms: C_11  and  C_12
REMARK    5  A    between atoms: C_12  and  C_13
REMARK                            x       y       z     vdW  Elec       q    Type
REMARK                         _______ _______ _______ _____ _____    ______ ____
ROOT
ATOM      1  C   UNL     1       0.196  10.195  18.717  0.00  0.00    +0.000 A 
ATOM      2  C   UNL     1       0.774  10.607  19.905  0.00  0.00    +0.000 A 
ATOM      3  N   UNL     1      -0.132  11.364  20.587  0.00  0.00    +0.000 N 
ATOM      4  C   UNL     1      -1.299  11.476  19.869  0.00  0.00    +0.000 A 
ATOM      5  C   UNL     1      -2.465  12.171  20.205  0.00  0.00    +0.000 A 
ATOM      6  C   UNL     1      -3.501  12.179  19.277  0.00  0.00    +0.000 A 
ATOM      7  C   UNL     1      -3.378  11.502  18.063  0.00  0.00    +0.000 A 
ATOM      8  C   UNL     1      -2.214  10.751  17.742  0.00  0.00    +0.000 A 
ATOM      9  C   UNL     1      -1.135  10.759  18.677  0.00  0.00    +0.000 A 
ATOM     10  C   UNL     1      -2.153  10.063  16.396  0.00  0.00    +0.000 C 
ATOM     11  C   UNL     1      -3.536   9.760  15.839  0.00  0.00    +0.000 C 
ATOM     12  N   UNL     1      -4.410  10.899  15.928  0.00  0.00    +0.000 N 
ATOM     13  C   UNL     1      -4.498  11.635  17.084  0.00  0.00    +0.000 C 
ATOM     14  O   UNL     1      -5.454  12.376  17.281  0.00  0.00    +0.000 OA
ATOM     15  H   UNL     1       0.027  11.799  21.486  0.00  0.00    +0.000 HD
ATOM     16  H   UNL     1      -5.232  10.953  15.339  0.00  0.00    +0.000 HD
ENDROOT
BRANCH   1  17
ATOM     17  C   UNL     1       0.895   9.338  17.701  0.00  0.00    +0.000 C 
BRANCH  17  18
ATOM     18  C   UNL     1       2.322   8.972  18.126  0.00  0.00    +0.000 C 
BRANCH  18  21
ATOM     19  O   UNL     1       2.099   7.162  20.268  0.00  0.00    +0.000 OA
ATOM     20  C   UNL     1       2.454   6.733  19.168  0.00  0.00    +0.000 C 
ATOM     21  N   UNL     1       2.586   7.544  18.061  0.00  0.00    +0.000 N 
ATOM     22  H   UNL     1       2.868   7.137  17.177  0.00  0.00    +0.000 HD
BRANCH  20  23
ATOM     23  C   UNL     1       2.772   5.248  18.939  0.00  0.00    +0.000 C 
BRANCH  23  24
ATOM     24  N   UNL     1       2.438   4.406  20.112  0.00  0.00    +0.000 NA
ATOM     25  C   UNL     1       3.359   3.244  20.195  0.00  0.00    +0.000 C 
ATOM     26  C   UNL     1       3.105   2.155  19.133  0.00  0.00    +0.000 C 
ATOM     27  O   UNL     1       1.749   1.697  19.160  0.00  0.00    +0.000 OA
ATOM     28  C   UNL     1       0.835   2.790  18.992  0.00  0.00    +0.000 C 
ATOM     29  C   UNL     1       1.058   3.861  20.073  0.00  0.00    +0.000 C 
ENDBRANCH  23  24
ENDBRANCH  20  23
ENDBRANCH  18  21
ENDBRANCH  17  18
ENDBRANCH   1  17
TORSDOF 5
ENDMDL
MODEL 6
REMARK VINA RESULT:      -7.6      5.592      8.566
REMARK  Name = 
REMARK  5 active torsions:
REMARK  status: ('A' for Active; 'I' for Inactive)
REMARK    1  A    between atoms: C_2  and  C_3
REMARK    2  A    between atoms: C_3  and  N_4
REMARK    3  A    between atoms: N_10  and  C_11
REMARK    4  A    between atoms: C_11  and  C_12
REMARK    5  A    between atoms: C_12  and  C_13
REMARK                            x       y       z     vdW  Elec       q    Type
REMARK                         _______ _______ _______ _____ _____    ______ ____
ROOT
ATOM      1  C   UNL     1       0.200  10.154  18.870  0.00  0.00    +0.000 A 
ATOM      2  C   UNL     1       0.718  10.598  20.073  0.00  0.00    +0.000 A 
ATOM      3  N   UNL     1      -0.220  11.373  20.689  0.00  0.00    +0.000 N 
ATOM      4  C   UNL     1      -1.349  11.465  19.912  0.00  0.00    +0.000 A 
ATOM      5  C   UNL     1      -2.530  12.168  20.171  0.00  0.00    +0.000 A 
ATOM      6  C   UNL     1      -3.519  12.151  19.192  0.00  0.00    +0.000 A 
ATOM      7  C   UNL     1      -3.336  11.442  18.005  0.00  0.00    +0.000 A 
ATOM      8  C   UNL     1      -2.158  10.683  17.762  0.00  0.00    +0.000 A 
ATOM      9  C   UNL     1      -1.127  10.717  18.749  0.00  0.00    +0.000 A 
ATOM     10  C   UNL     1      -2.031   9.959  16.440  0.00  0.00    +0.000 C 
ATOM     11  C   UNL     1      -3.385   9.641  15.824  0.00  0.00    +0.000 C 
ATOM     12  N   UNL     1      -4.262  10.782  15.838  0.00  0.00    +0.000 N 
ATOM     13  C   UNL     1      -4.406  11.548  16.968  0.00  0.00    +0.000 C 
ATOM     14  O   UNL     1      -5.370  12.294  17.098  0.00  0.00    +0.000 OA
ATOM     15  H   UNL     1      -0.104  11.832  21.583  0.00  0.00    +0.000 HD
ATOM     16  H   UNL     1      -5.053  10.820  15.208  0.00  0.00    +0.000 HD
ENDROOT
BRANCH   1  17
ATOM     17  C   UNL     1       0.947   9.270  17.914  0.00  0.00    +0.000 C 
BRANCH  17  18
ATOM     18  C   UNL     1       2.255   8.736  18.510  0.00  0.00    +0.000 C 
BRANCH  18  21
ATOM     19  O   UNL     1       3.371   6.295  19.351  0.00  0.00    +0.000 OA
ATOM     20  C   UNL     1       3.439   6.593  18.157  0.00  0.00    +0.000 C 
ATOM     21  N   UNL     1       2.916   7.765  17.653  0.00  0.00    +0.000 N 
ATOM     22  H   UNL     1       2.987   7.955  16.660  0.00  0.00    +0.000 HD
BRANCH  20  23
ATOM     23  C   UNL     1       4.108   5.673  17.125  0.00  0.00    +0.000 C 
BRANCH  23  24
ATOM     24  N   UNL     1       5.184   6.355  16.368  0.00  0.00    +0.000 NA
ATOM     25  C   UNL     1       5.647   5.502  15.243  0.00  0.00    +0.000 C 
ATOM     26  C   UNL     1       6.492   4.285  15.673  0.00  0.00    +0.000 C 
ATOM     27  O   UNL     1       7.613   4.678  16.472  0.00  0.00    +0.000 OA
ATOM     28  C   UNL     1       7.189   5.430  17.618  0.00  0.00    +0.000 C 
ATOM     29  C   UNL     1       6.379   6.666  17.193  0.00  0.00    +0.000 C 
ENDBRANCH  23  24
ENDBRANCH  20  23
ENDBRANCH  18  21
ENDBRANCH  17  18
ENDBRANCH   1  17
TORSDOF 5
ENDMDL
MODEL 7
REMARK VINA RESULT:      -7.6      5.167      8.192
REMARK  Name = 
REMARK  5 active torsions:
REMARK  status: ('A' for Active; 'I' for Inactive)
REMARK    1  A    between atoms: C_2  and  C_3
REMARK    2  A    between atoms: C_3  and  N_4
REMARK    3  A    between atoms: N_10  and  C_11
REMARK    4  A    between atoms: C_11  and  C_12
REMARK    5  A    between atoms: C_12  and  C_13
REMARK                            x       y       z     vdW  Elec       q    Type
REMARK                         _______ _______ _______ _____ _____    ______ ____
ROOT
ATOM      1  C   UNL     1       2.214   7.637  19.144  0.00  0.00    +0.000 A 
ATOM      2  C   UNL     1       2.680   8.409  18.095  0.00  0.00    +0.000 A 
ATOM      3  N   UNL     1       3.497   7.641  17.321  0.00  0.00    +0.000 N 
ATOM      4  C   UNL     1       3.598   6.374  17.843  0.00  0.00    +0.000 A 
ATOM      5  C   UNL     1       4.340   5.290  17.363  0.00  0.00    +0.000 A 
ATOM      6  C   UNL     1       4.322   4.115  18.108  0.00  0.00    +0.000 A 
ATOM      7  C   UNL     1       3.573   4.025  19.282  0.00  0.00    +0.000 A 
ATOM      8  C   UNL     1       2.775   5.108  19.743  0.00  0.00    +0.000 A 
ATOM      9  C   UNL     1       2.810   6.327  19.000  0.00  0.00    +0.000 A 
ATOM     10  C   UNL     1       2.009   4.935  21.036  0.00  0.00    +0.000 C 
ATOM     11  C   UNL     1       1.709   3.474  21.338  0.00  0.00    +0.000 C 
ATOM     12  N   UNL     1       2.874   2.644  21.177  0.00  0.00    +0.000 N 
ATOM     13  C   UNL     1       3.677   2.761  20.070  0.00  0.00    +0.000 C 
ATOM     14  O   UNL     1       4.453   1.862  19.764  0.00  0.00    +0.000 OA
ATOM     15  H   UNL     1       3.980   7.954  16.489  0.00  0.00    +0.000 HD
ATOM     16  H   UNL     1       2.915   1.738  21.626  0.00  0.00    +0.000 HD
ENDROOT
BRANCH   1  17
ATOM     17  C   UNL     1       1.282   8.145  20.206  0.00  0.00    +0.000 C 
BRANCH  17  18
ATOM     18  C   UNL     1       1.083   9.663  20.134  0.00  0.00    +0.000 C 
BRANCH  18  21
ATOM     19  O   UNL     1      -0.508  11.978  20.278  0.00  0.00    +0.000 OA
ATOM     20  C   UNL     1      -0.666  11.213  19.325  0.00  0.00    +0.000 C 
ATOM     21  N   UNL     1       0.071  10.058  19.168  0.00  0.00    +0.000 N 
ATOM     22  H   UNL     1      -0.090   9.471  18.358  0.00  0.00    +0.000 HD
BRANCH  20  23
ATOM     23  C   UNL     1      -1.698  11.491  18.222  0.00  0.00    +0.000 C 
BRANCH  23  24
ATOM     24  N   UNL     1      -2.594  10.336  17.976  0.00  0.00    +0.000 NA
ATOM     25  C   UNL     1      -2.300   9.724  16.655  0.00  0.00    +0.000 C 
ATOM     26  C   UNL     1      -2.774  10.560  15.448  0.00  0.00    +0.000 C 
ATOM     27  O   UNL     1      -4.169  10.870  15.536  0.00  0.00    +0.000 OA
ATOM     28  C   UNL     1      -4.469  11.543  16.767  0.00  0.00    +0.000 C 
ATOM     29  C   UNL     1      -4.034  10.696  17.974  0.00  0.00    +0.000 C 
ENDBRANCH  23  24
ENDBRANCH  20  23
ENDBRANCH  18  21
ENDBRANCH  17  18
ENDBRANCH   1  17
TORSDOF 5
ENDMDL
MODEL 8
REMARK VINA RESULT:      -7.6      4.412      5.764
REMARK  Name = 
REMARK  5 active torsions:
REMARK  status: ('A' for Active; 'I' for Inactive)
REMARK    1  A    between atoms: C_2  and  C_3
REMARK    2  A    between atoms: C_3  and  N_4
REMARK    3  A    between atoms: N_10  and  C_11
REMARK    4  A    between atoms: C_11  and  C_12
REMARK    5  A    between atoms: C_12  and  C_13
REMARK                            x       y       z     vdW  Elec       q    Type
REMARK                         _______ _______ _______ _____ _____    ______ ____
ROOT
ATOM      1  C   UNL     1       2.340   7.409  19.187  0.00  0.00    +0.000 A 
ATOM      2  C   UNL     1       1.642   7.843  20.299  0.00  0.00    +0.000 A 
ATOM      3  N   UNL     1       1.504   6.796  21.160  0.00  0.00    +0.000 N 
ATOM      4  C   UNL     1       2.085   5.666  20.636  0.00  0.00    +0.000 A 
ATOM      5  C   UNL     1       2.154   4.384  21.191  0.00  0.00    +0.000 A 
ATOM      6  C   UNL     1       2.755   3.384  20.433  0.00  0.00    +0.000 A 
ATOM      7  C   UNL     1       3.280   3.664  19.171  0.00  0.00    +0.000 A 
ATOM      8  C   UNL     1       3.258   4.977  18.627  0.00  0.00    +0.000 A 
ATOM      9  C   UNL     1       2.620   6.004  19.387  0.00  0.00    +0.000 A 
ATOM     10  C   UNL     1       3.831   5.191  17.244  0.00  0.00    +0.000 C 
ATOM     11  C   UNL     1       4.874   4.143  16.883  0.00  0.00    +0.000 C 
ATOM     12  N   UNL     1       4.419   2.810  17.180  0.00  0.00    +0.000 N 
ATOM     13  C   UNL     1       3.826   2.518  18.383  0.00  0.00    +0.000 C 
ATOM     14  O   UNL     1       3.743   1.358  18.773  0.00  0.00    +0.000 OA
ATOM     15  H   UNL     1       1.028   6.830  22.052  0.00  0.00    +0.000 HD
ATOM     16  H   UNL     1       4.851   2.015  16.727  0.00  0.00    +0.000 HD
ENDROOT
BRANCH   1  17
ATOM     17  C   UNL     1       2.687   8.290  18.021  0.00  0.00    +0.000 C 
BRANCH  17  18
ATOM     18  C   UNL     1       1.618   9.356  17.755  0.00  0.00    +0.000 C 
BRANCH  18  21
ATOM     19  O   UNL     1       1.058  11.419  19.583  0.00  0.00    +0.000 OA
ATOM     20  C   UNL     1       1.824  11.654  18.647  0.00  0.00    +0.000 C 
ATOM     21  N   UNL     1       2.160  10.704  17.705  0.00  0.00    +0.000 N 
ATOM     22  H   UNL     1       2.805  10.946  16.963  0.00  0.00    +0.000 HD
BRANCH  20  23
ATOM     23  C   UNL     1       2.476  13.031  18.456  0.00  0.00    +0.000 C 
BRANCH  23  24
ATOM     24  N   UNL     1       2.052  14.009  19.485  0.00  0.00    +0.000 NA
ATOM     25  C   UNL     1       1.623  15.280  18.847  0.00  0.00    +0.000 C 
ATOM     26  C   UNL     1       2.780  16.128  18.279  0.00  0.00    +0.000 C 
ATOM     27  O   UNL     1       3.773  16.401  19.274  0.00  0.00    +0.000 OA
ATOM     28  C   UNL     1       4.272  15.184  19.847  0.00  0.00    +0.000 C 
ATOM     29  C   UNL     1       3.128  14.352  20.450  0.00  0.00    +0.000 C 
ENDBRANCH  23  24
ENDBRANCH  20  23
ENDBRANCH  18  21
ENDBRANCH  17  18
ENDBRANCH   1  17
TORSDOF 5
ENDMDL
MODEL 9
REMARK VINA RESULT:      -7.5      4.548      7.020
REMARK  Name = 
REMARK  5 active torsions:
REMARK  status: ('A' for Active; 'I' for Inactive)
REMARK    1  A    between atoms: C_2  and  C_3
REMARK    2  A    between atoms: C_3  and  N_4
REMARK    3  A    between atoms: N_10  and  C_11
REMARK    4  A    between atoms: C_11  and  C_12
REMARK    5  A    between atoms: C_12  and  C_13
REMARK                            x       y       z     vdW  Elec       q    Type
REMARK                         _______ _______ _______ _____ _____    ______ ____
ROOT
ATOM      1  C   UNL     1       2.169   5.934  19.762  0.00  0.00    +0.000 A 
ATOM      2  C   UNL     1       1.429   5.021  20.492  0.00  0.00    +0.000 A 
ATOM      3  N   UNL     1       1.754   3.765  20.073  0.00  0.00    +0.000 N 
ATOM      4  C   UNL     1       2.688   3.824  19.066  0.00  0.00    +0.000 A 
ATOM      5  C   UNL     1       3.274   2.769  18.359  0.00  0.00    +0.000 A 
ATOM      6  C   UNL     1       4.160   3.091  17.337  0.00  0.00    +0.000 A 
ATOM      7  C   UNL     1       4.460   4.423  17.045  0.00  0.00    +0.000 A 
ATOM      8  C   UNL     1       3.906   5.494  17.797  0.00  0.00    +0.000 A 
ATOM      9  C   UNL     1       2.974   5.174  18.830  0.00  0.00    +0.000 A 
ATOM     10  C   UNL     1       4.267   6.909  17.402  0.00  0.00    +0.000 C 
ATOM     11  C   UNL     1       5.605   6.984  16.681  0.00  0.00    +0.000 C 
ATOM     12  N   UNL     1       5.710   5.992  15.644  0.00  0.00    +0.000 N 
ATOM     13  C   UNL     1       5.350   4.687  15.875  0.00  0.00    +0.000 C 
ATOM     14  O   UNL     1       5.739   3.792  15.134  0.00  0.00    +0.000 OA
ATOM     15  H   UNL     1       1.358   2.907  20.434  0.00  0.00    +0.000 HD
ATOM     16  H   UNL     1       6.383   6.110  14.898  0.00  0.00    +0.000 HD
ENDROOT
BRANCH   1  17
ATOM     17  C   UNL     1       2.081   7.421  19.947  0.00  0.00    +0.000 C 
BRANCH  17  18
ATOM     18  C   UNL     1       1.293   7.808  21.204  0.00  0.00    +0.000 C 
BRANCH  18  21
ATOM     19  O   UNL     1       0.853   9.738  23.203  0.00  0.00    +0.000 OA
ATOM     20  C   UNL     1       0.369   9.926  22.085  0.00  0.00    +0.000 C 
ATOM     21  N   UNL     1       0.536   9.038  21.043  0.00  0.00    +0.000 N 
ATOM     22  H   UNL     1       0.127   9.249  20.141  0.00  0.00    +0.000 HD
BRANCH  20  23
ATOM     23  C   UNL     1      -0.459  11.177  21.759  0.00  0.00    +0.000 C 
BRANCH  23  24
ATOM     24  N   UNL     1       0.365  12.408  21.707  0.00  0.00    +0.000 NA
ATOM     25  C   UNL     1      -0.502  13.607  21.569  0.00  0.00    +0.000 C 
ATOM     26  C   UNL     1      -1.136  13.775  20.173  0.00  0.00    +0.000 C 
ATOM     27  O   UNL     1      -0.145  13.775  19.139  0.00  0.00    +0.000 OA
ATOM     28  C   UNL     1       0.652  12.583  19.193  0.00  0.00    +0.000 C 
ATOM     29  C   UNL     1       1.319  12.431  20.570  0.00  0.00    +0.000 C 
ENDBRANCH  23  24
ENDBRANCH  20  23
ENDBRANCH  18  21
ENDBRANCH  17  18
ENDBRANCH   1  17
TORSDOF 5
ENDMDL
