MODEL 1
REMARK VINA RESULT:      -9.0      0.000      0.000
REMARK  Name = 
REMARK  3 active torsions:
REMARK  status: ('A' for Active; 'I' for Inactive)
REMARK    1  A    between atoms: C_2  and  O_3
REMARK    2  A    between atoms: C_2  and  C_4
REMARK    3  A    between atoms: C_9  and  C_11
REMARK                            x       y       z     vdW  Elec       q    Type
REMARK                         _______ _______ _______ _____ _____    ______ ____
ROOT
ATOM      1  C   UNL     1      -0.945  11.460  22.518  0.00  0.00    +0.000 A 
ATOM      2  C   UNL     1      -0.738  10.249  23.178  0.00  0.00    +0.000 A 
ATOM      3  C   UNL     1      -0.018   9.228  22.543  0.00  0.00    +0.000 A 
ATOM      4  C   UNL     1       0.476   9.449  21.260  0.00  0.00    +0.000 A 
ATOM      5  N   UNL     1       1.195   8.423  20.615  0.00  0.00    +0.000 N 
ATOM      6  C   UNL     1       1.728   8.562  19.341  0.00  0.00    +0.000 C 
ATOM      7  O   UNL     1       1.648   9.557  18.626  0.00  0.00    +0.000 OA
ATOM      8  N   UNL     1       0.282  10.625  20.635  0.00  0.00    +0.000 NA
ATOM      9  C   UNL     1      -0.392  11.609  21.264  0.00  0.00    +0.000 A 
ATOM     10  H   UNL     1       1.373   7.582  21.137  0.00  0.00    +0.000 HD
ENDROOT
BRANCH   6  11
ATOM     11  C   UNL     1       2.481   7.402  18.780  0.00  0.00    +0.000 A 
ATOM     12  C   UNL     1       3.334   7.494  17.673  0.00  0.00    +0.000 A 
ATOM     13  C   UNL     1       4.095   6.380  17.269  0.00  0.00    +0.000 A 
ATOM     14  C   UNL     1       3.949   5.158  17.949  0.00  0.00    +0.000 A 
ATOM     15  C   UNL     1       3.108   5.070  19.069  0.00  0.00    +0.000 A 
ATOM     16  C   UNL     1       2.388   6.189  19.481  0.00  0.00    +0.000 A 
ATOM     17  C   UNL     1       3.071   3.774  19.835  0.00  0.00    +0.000 C 
ATOM     18  C   UNL     1       2.923   2.593  18.876  0.00  0.00    +0.000 C 
ATOM     19  C   UNL     1       3.815   2.677  17.625  0.00  0.00    +0.000 C 
ATOM     20  C   UNL     1       4.732   3.913  17.578  0.00  0.00    +0.000 C 
ATOM     21  C   UNL     1       5.418   4.034  16.211  0.00  0.00    +0.000 C 
ATOM     22  C   UNL     1       6.098   5.391  16.081  0.00  0.00    +0.000 C 
ATOM     23  C   UNL     1       5.052   6.507  16.108  0.00  0.00    +0.000 C 
ENDBRANCH   6  11
BRANCH   1  25
ATOM     24  O   UNL     1      -1.148  13.609  23.474  0.00  0.00    +0.000 OA
ATOM     25  C   UNL     1      -1.681  12.551  23.184  0.00  0.00    +0.000 C 
BRANCH  25  26
ATOM     26  O   UNL     1      -2.963  12.260  23.484  0.00  0.00    +0.000 OA
ATOM     27  H   UNL     1      -3.195  12.230  24.431  0.00  0.00    +0.000 HD
ENDBRANCH  25  26
ENDBRANCH   1  25
TORSDOF 3
ENDMDL
MODEL 2
REMARK VINA RESULT:      -8.7      0.523      2.356
REMARK  Name = 
REMARK  3 active torsions:
REMARK  status: ('A' for Active; 'I' for Inactive)
REMARK    1  A    between atoms: C_2  and  O_3
REMARK    2  A    between atoms: C_2  and  C_4
REMARK    3  A    between atoms: C_9  and  C_11
REMARK                            x       y       z     vdW  Elec       q    Type
REMARK                         _______ _______ _______ _____ _____    ______ ____
ROOT
ATOM      1  C   UNL     1      -0.834  11.584  22.472  0.00  0.00    +0.000 A 
ATOM      2  C   UNL     1      -0.775  10.344  23.108  0.00  0.00    +0.000 A 
ATOM      3  C   UNL     1      -0.121   9.274  22.482  0.00  0.00    +0.000 A 
ATOM      4  C   UNL     1       0.456   9.476  21.230  0.00  0.00    +0.000 A 
ATOM      5  N   UNL     1       1.109   8.401  20.595  0.00  0.00    +0.000 N 
ATOM      6  C   UNL     1       1.716   8.518  19.352  0.00  0.00    +0.000 C 
ATOM      7  O   UNL     1       1.766   9.532  18.661  0.00  0.00    +0.000 OA
ATOM      8  N   UNL     1       0.404  10.679  20.628  0.00  0.00    +0.000 NA
ATOM      9  C   UNL     1      -0.207  11.707  21.250  0.00  0.00    +0.000 A 
ATOM     10  H   UNL     1       1.181   7.537  21.102  0.00  0.00    +0.000 HD
ENDROOT
BRANCH   6  11
ATOM     11  C   UNL     1       2.386   7.305  18.797  0.00  0.00    +0.000 A 
ATOM     12  C   UNL     1       2.002   5.995  19.111  0.00  0.00    +0.000 A 
ATOM     13  C   UNL     1       2.611   4.903  18.463  0.00  0.00    +0.000 A 
ATOM     14  C   UNL     1       3.648   5.134  17.542  0.00  0.00    +0.000 A 
ATOM     15  C   UNL     1       4.021   6.447  17.213  0.00  0.00    +0.000 A 
ATOM     16  C   UNL     1       3.386   7.520  17.835  0.00  0.00    +0.000 A 
ATOM     17  C   UNL     1       5.056   6.648  16.139  0.00  0.00    +0.000 C 
ATOM     18  C   UNL     1       6.248   5.722  16.367  0.00  0.00    +0.000 C 
ATOM     19  C   UNL     1       5.868   4.282  16.754  0.00  0.00    +0.000 C 
ATOM     20  C   UNL     1       4.353   4.014  16.801  0.00  0.00    +0.000 C 
ATOM     21  C   UNL     1       4.060   2.633  17.402  0.00  0.00    +0.000 C 
ATOM     22  C   UNL     1       2.571   2.492  17.696  0.00  0.00    +0.000 C 
ATOM     23  C   UNL     1       2.150   3.498  18.769  0.00  0.00    +0.000 C 
ENDBRANCH   6  11
BRANCH   1  25
ATOM     24  O   UNL     1      -0.915  13.770  23.360  0.00  0.00    +0.000 OA
ATOM     25  C   UNL     1      -1.499  12.724  23.129  0.00  0.00    +0.000 C 
BRANCH  25  26
ATOM     26  O   UNL     1      -2.776  12.493  23.494  0.00  0.00    +0.000 OA
ATOM     27  H   UNL     1      -3.301  11.915  22.909  0.00  0.00    +0.000 HD
ENDBRANCH  25  26
ENDBRANCH   1  25
TORSDOF 3
ENDMDL
MODEL 3
REMARK VINA RESULT:      -8.2      3.174      8.946
REMARK  Name = 
REMARK  3 active torsions:
REMARK  status: ('A' for Active; 'I' for Inactive)
REMARK    1  A    between atoms: C_2  and  O_3
REMARK    2  A    between atoms: C_2  and  C_4
REMARK    3  A    between atoms: C_9  and  C_11
REMARK                            x       y       z     vdW  Elec       q    Type
REMARK                         _______ _______ _______ _____ _____    ______ ____
ROOT
ATOM      1  C   UNL     1       3.743   2.986  20.005  0.00  0.00    +0.000 A 
ATOM      2  C   UNL     1       2.806   3.070  21.035  0.00  0.00    +0.000 A 
ATOM      3  C   UNL     1       2.115   4.271  21.245  0.00  0.00    +0.000 A 
ATOM      4  C   UNL     1       2.382   5.358  20.418  0.00  0.00    +0.000 A 
ATOM      5  N   UNL     1       1.694   6.569  20.631  0.00  0.00    +0.000 N 
ATOM      6  C   UNL     1       1.894   7.698  19.848  0.00  0.00    +0.000 C 
ATOM      7  O   UNL     1       2.669   7.795  18.901  0.00  0.00    +0.000 OA
ATOM      8  N   UNL     1       3.280   5.265  19.419  0.00  0.00    +0.000 NA
ATOM      9  C   UNL     1       3.922   4.098  19.210  0.00  0.00    +0.000 A 
ATOM     10  H   UNL     1       0.988   6.581  21.346  0.00  0.00    +0.000 HD
ENDROOT
BRANCH   6  11
ATOM     11  C   UNL     1       1.089   8.911  20.172  0.00  0.00    +0.000 A 
ATOM     12  C   UNL     1       0.336   9.053  21.345  0.00  0.00    +0.000 A 
ATOM     13  C   UNL     1      -0.310  10.271  21.631  0.00  0.00    +0.000 A 
ATOM     14  C   UNL     1      -0.242  11.325  20.704  0.00  0.00    +0.000 A 
ATOM     15  C   UNL     1       0.527  11.191  19.537  0.00  0.00    +0.000 A 
ATOM     16  C   UNL     1       1.191   9.993  19.282  0.00  0.00    +0.000 A 
ATOM     17  C   UNL     1       0.663  12.385  18.629  0.00  0.00    +0.000 C 
ATOM     18  C   UNL     1      -0.701  13.024  18.382  0.00  0.00    +0.000 C 
ATOM     19  C   UNL     1      -1.576  13.160  19.640  0.00  0.00    +0.000 C 
ATOM     20  C   UNL     1      -0.908  12.669  20.937  0.00  0.00    +0.000 C 
ATOM     21  C   UNL     1      -1.915  12.634  22.093  0.00  0.00    +0.000 C 
ATOM     22  C   UNL     1      -1.322  11.895  23.287  0.00  0.00    +0.000 C 
ATOM     23  C   UNL     1      -1.072  10.429  22.924  0.00  0.00    +0.000 C 
ENDBRANCH   6  11
BRANCH   1  25
ATOM     24  O   UNL     1       5.314   1.301  20.522  0.00  0.00    +0.000 OA
ATOM     25  C   UNL     1       4.461   1.722  19.757  0.00  0.00    +0.000 C 
BRANCH  25  26
ATOM     26  O   UNL     1       4.133   1.108  18.603  0.00  0.00    +0.000 OA
ATOM     27  H   UNL     1       4.110   0.133  18.617  0.00  0.00    +0.000 HD
ENDBRANCH  25  26
ENDBRANCH   1  25
TORSDOF 3
ENDMDL
MODEL 4
REMARK VINA RESULT:      -8.2      1.839      2.498
REMARK  Name = 
REMARK  3 active torsions:
REMARK  status: ('A' for Active; 'I' for Inactive)
REMARK    1  A    between atoms: C_2  and  O_3
REMARK    2  A    between atoms: C_2  and  C_4
REMARK    3  A    between atoms: C_9  and  C_11
REMARK                            x       y       z     vdW  Elec       q    Type
REMARK                         _______ _______ _______ _____ _____    ______ ____
ROOT
ATOM      1  C   UNL     1      -0.402  13.278  20.422  0.00  0.00    +0.000 A 
ATOM      2  C   UNL     1      -0.327  12.888  19.085  0.00  0.00    +0.000 A 
ATOM      3  C   UNL     1       0.146  11.609  18.762  0.00  0.00    +0.000 A 
ATOM      4  C   UNL     1       0.535  10.754  19.790  0.00  0.00    +0.000 A 
ATOM      5  N   UNL     1       1.018   9.470  19.469  0.00  0.00    +0.000 N 
ATOM      6  C   UNL     1       1.419   8.553  20.431  0.00  0.00    +0.000 C 
ATOM      7  O   UNL     1       1.410   8.726  21.646  0.00  0.00    +0.000 OA
ATOM      8  N   UNL     1       0.449  11.134  21.078  0.00  0.00    +0.000 NA
ATOM      9  C   UNL     1      -0.030  12.358  21.379  0.00  0.00    +0.000 A 
ATOM     10  H   UNL     1       1.010   9.199  18.501  0.00  0.00    +0.000 HD
ENDROOT
BRANCH   6  11
ATOM     11  C   UNL     1       1.897   7.221  19.956  0.00  0.00    +0.000 A 
ATOM     12  C   UNL     1       2.672   7.042  18.803  0.00  0.00    +0.000 A 
ATOM     13  C   UNL     1       3.177   5.768  18.479  0.00  0.00    +0.000 A 
ATOM     14  C   UNL     1       2.849   4.666  19.289  0.00  0.00    +0.000 A 
ATOM     15  C   UNL     1       2.088   4.848  20.454  0.00  0.00    +0.000 A 
ATOM     16  C   UNL     1       1.624   6.120  20.784  0.00  0.00    +0.000 A 
ATOM     17  C   UNL     1       1.858   3.661  21.351  0.00  0.00    +0.000 C 
ATOM     18  C   UNL     1       1.422   2.449  20.530  0.00  0.00    +0.000 C 
ATOM     19  C   UNL     1       2.224   2.241  19.233  0.00  0.00    +0.000 C 
ATOM     20  C   UNL     1       3.353   3.262  19.011  0.00  0.00    +0.000 C 
ATOM     21  C   UNL     1       3.953   3.120  17.606  0.00  0.00    +0.000 C 
ATOM     22  C   UNL     1       4.868   4.300  17.301  0.00  0.00    +0.000 C 
ATOM     23  C   UNL     1       4.057   5.597  17.265  0.00  0.00    +0.000 C 
ENDBRANCH   6  11
BRANCH   1  25
ATOM     24  O   UNL     1      -0.787  15.081  21.896  0.00  0.00    +0.000 OA
ATOM     25  C   UNL     1      -0.920  14.612  20.777  0.00  0.00    +0.000 C 
BRANCH  25  26
ATOM     26  O   UNL     1      -1.587  15.236  19.787  0.00  0.00    +0.000 OA
ATOM     27  H   UNL     1      -1.161  16.025  19.400  0.00  0.00    +0.000 HD
ENDBRANCH  25  26
ENDBRANCH   1  25
TORSDOF 3
ENDMDL
MODEL 5
REMARK VINA RESULT:      -8.1      3.038      8.870
REMARK  Name = 
REMARK  3 active torsions:
REMARK  status: ('A' for Active; 'I' for Inactive)
REMARK    1  A    between atoms: C_2  and  O_3
REMARK    2  A    between atoms: C_2  and  C_4
REMARK    3  A    between atoms: C_9  and  C_11
REMARK                            x       y       z     vdW  Elec       q    Type
REMARK                         _______ _______ _______ _____ _____    ______ ____
ROOT
ATOM      1  C   UNL     1       5.666   5.062  16.920  0.00  0.00    +0.000 A 
ATOM      2  C   UNL     1       5.267   4.764  18.223  0.00  0.00    +0.000 A 
ATOM      3  C   UNL     1       4.323   5.580  18.862  0.00  0.00    +0.000 A 
ATOM      4  C   UNL     1       3.804   6.675  18.177  0.00  0.00    +0.000 A 
ATOM      5  N   UNL     1       2.860   7.501  18.818  0.00  0.00    +0.000 N 
ATOM      6  C   UNL     1       2.287   8.608  18.206  0.00  0.00    +0.000 C 
ATOM      7  O   UNL     1       2.516   9.006  17.067  0.00  0.00    +0.000 OA
ATOM      8  N   UNL     1       4.187   6.949  16.916  0.00  0.00    +0.000 NA
ATOM      9  C   UNL     1       5.078   6.144  16.302  0.00  0.00    +0.000 A 
ATOM     10  H   UNL     1       2.553   7.230  19.736  0.00  0.00    +0.000 HD
ENDROOT
BRANCH   6  11
ATOM     11  C   UNL     1       1.289   9.390  18.992  0.00  0.00    +0.000 A 
ATOM     12  C   UNL     1       0.605  10.503  18.487  0.00  0.00    +0.000 A 
ATOM     13  C   UNL     1      -0.403  11.123  19.251  0.00  0.00    +0.000 A 
ATOM     14  C   UNL     1      -0.678  10.652  20.547  0.00  0.00    +0.000 A 
ATOM     15  C   UNL     1      -0.006   9.525  21.047  0.00  0.00    +0.000 A 
ATOM     16  C   UNL     1       0.964   8.899  20.266  0.00  0.00    +0.000 A 
ATOM     17  C   UNL     1      -0.413   8.988  22.393  0.00  0.00    +0.000 C 
ATOM     18  C   UNL     1      -0.523  10.124  23.408  0.00  0.00    +0.000 C 
ATOM     19  C   UNL     1      -1.232  11.382  22.879  0.00  0.00    +0.000 C 
ATOM     20  C   UNL     1      -1.748  11.262  21.434  0.00  0.00    +0.000 C 
ATOM     21  C   UNL     1      -2.240  12.619  20.913  0.00  0.00    +0.000 C 
ATOM     22  C   UNL     1      -2.487  12.549  19.411  0.00  0.00    +0.000 C 
ATOM     23  C   UNL     1      -1.171  12.288  18.675  0.00  0.00    +0.000 C 
ENDBRANCH   6  11
BRANCH   1  25
ATOM     24  O   UNL     1       7.842   4.417  16.269  0.00  0.00    +0.000 OA
ATOM     25  C   UNL     1       6.642   4.199  16.228  0.00  0.00    +0.000 C 
BRANCH  25  26
ATOM     26  O   UNL     1       6.095   3.194  15.516  0.00  0.00    +0.000 OA
ATOM     27  H   UNL     1       6.484   2.308  15.639  0.00  0.00    +0.000 HD
ENDBRANCH  25  26
ENDBRANCH   1  25
TORSDOF 3
ENDMDL
MODEL 6
REMARK VINA RESULT:      -8.1      1.466      2.813
REMARK  Name = 
REMARK  3 active torsions:
REMARK  status: ('A' for Active; 'I' for Inactive)
REMARK    1  A    between atoms: C_2  and  O_3
REMARK    2  A    between atoms: C_2  and  C_4
REMARK    3  A    between atoms: C_9  and  C_11
REMARK                            x       y       z     vdW  Elec       q    Type
REMARK                         _______ _______ _______ _____ _____    ______ ____
ROOT
ATOM      1  C   UNL     1      -0.582  12.768  20.529  0.00  0.00    +0.000 A 
ATOM      2  C   UNL     1      -0.667  11.700  21.421  0.00  0.00    +0.000 A 
ATOM      3  C   UNL     1      -0.059  10.479  21.100  0.00  0.00    +0.000 A 
ATOM      4  C   UNL     1       0.617  10.360  19.888  0.00  0.00    +0.000 A 
ATOM      5  N   UNL     1       1.224   9.132  19.559  0.00  0.00    +0.000 N 
ATOM      6  C   UNL     1       1.924   8.930  18.377  0.00  0.00    +0.000 C 
ATOM      7  O   UNL     1       2.103   9.760  17.490  0.00  0.00    +0.000 OA
ATOM      8  N   UNL     1       0.704  11.399  19.038  0.00  0.00    +0.000 NA
ATOM      9  C   UNL     1       0.137  12.577  19.368  0.00  0.00    +0.000 A 
ATOM     10  H   UNL     1       1.190   8.399  20.245  0.00  0.00    +0.000 HD
ENDROOT
BRANCH   6  11
ATOM     11  C   UNL     1       2.530   7.585  18.157  0.00  0.00    +0.000 A 
ATOM     12  C   UNL     1       1.931   6.387  18.569  0.00  0.00    +0.000 A 
ATOM     13  C   UNL     1       2.512   5.150  18.229  0.00  0.00    +0.000 A 
ATOM     14  C   UNL     1       3.728   5.126  17.524  0.00  0.00    +0.000 A 
ATOM     15  C   UNL     1       4.319   6.324  17.095  0.00  0.00    +0.000 A 
ATOM     16  C   UNL     1       3.716   7.541  17.407  0.00  0.00    +0.000 A 
ATOM     17  C   UNL     1       5.559   6.246  16.246  0.00  0.00    +0.000 C 
ATOM     18  C   UNL     1       6.559   5.263  16.852  0.00  0.00    +0.000 C 
ATOM     19  C   UNL     1       5.934   3.950  17.355  0.00  0.00    +0.000 C 
ATOM     20  C   UNL     1       4.417   3.836  17.119  0.00  0.00    +0.000 C 
ATOM     21  C   UNL     1       3.841   2.609  17.838  0.00  0.00    +0.000 C 
ATOM     22  C   UNL     1       2.318   2.659  17.828  0.00  0.00    +0.000 C 
ATOM     23  C   UNL     1       1.827   3.866  18.631  0.00  0.00    +0.000 C 
ENDBRANCH   6  11
BRANCH   1  25
ATOM     24  O   UNL     1      -1.238  14.486  22.009  0.00  0.00    +0.000 OA
ATOM     25  C   UNL     1      -1.197  14.066  20.864  0.00  0.00    +0.000 C 
BRANCH  25  26
ATOM     26  O   UNL     1      -1.747  14.713  19.818  0.00  0.00    +0.000 OA
ATOM     27  H   UNL     1      -1.258  14.675  18.974  0.00  0.00    +0.000 HD
ENDBRANCH  25  26
ENDBRANCH   1  25
TORSDOF 3
ENDMDL
MODEL 7
REMARK VINA RESULT:      -8.0      1.640      1.816
REMARK  Name = 
REMARK  3 active torsions:
REMARK  status: ('A' for Active; 'I' for Inactive)
REMARK    1  A    between atoms: C_2  and  O_3
REMARK    2  A    between atoms: C_2  and  C_4
REMARK    3  A    between atoms: C_9  and  C_11
REMARK                            x       y       z     vdW  Elec       q    Type
REMARK                         _______ _______ _______ _____ _____    ______ ____
ROOT
ATOM      1  C   UNL     1      -0.819  12.908  20.276  0.00  0.00    +0.000 A 
ATOM      2  C   UNL     1      -1.137  11.753  20.990  0.00  0.00    +0.000 A 
ATOM      3  C   UNL     1      -0.524  10.539  20.651  0.00  0.00    +0.000 A 
ATOM      4  C   UNL     1       0.392  10.515  19.603  0.00  0.00    +0.000 A 
ATOM      5  N   UNL     1       1.005   9.295  19.255  0.00  0.00    +0.000 N 
ATOM      6  C   UNL     1       1.934   9.183  18.230  0.00  0.00    +0.000 C 
ATOM      7  O   UNL     1       2.334  10.095  17.511  0.00  0.00    +0.000 OA
ATOM      8  N   UNL     1       0.702  11.636  18.926  0.00  0.00    +0.000 NA
ATOM      9  C   UNL     1       0.124  12.804  19.276  0.00  0.00    +0.000 A 
ATOM     10  H   UNL     1       0.795   8.492  19.822  0.00  0.00    +0.000 HD
ENDROOT
BRANCH   6  11
ATOM     11  C   UNL     1       2.520   7.835  17.975  0.00  0.00    +0.000 A 
ATOM     12  C   UNL     1       3.703   7.626  17.255  0.00  0.00    +0.000 A 
ATOM     13  C   UNL     1       4.251   6.334  17.150  0.00  0.00    +0.000 A 
ATOM     14  C   UNL     1       3.571   5.244  17.722  0.00  0.00    +0.000 A 
ATOM     15  C   UNL     1       2.395   5.454  18.458  0.00  0.00    +0.000 A 
ATOM     16  C   UNL     1       1.882   6.744  18.586  0.00  0.00    +0.000 A 
ATOM     17  C   UNL     1       1.763   4.275  19.148  0.00  0.00    +0.000 C 
ATOM     18  C   UNL     1       1.673   3.085  18.195  0.00  0.00    +0.000 C 
ATOM     19  C   UNL     1       2.940   2.847  17.356  0.00  0.00    +0.000 C 
ATOM     20  C   UNL     1       4.094   3.821  17.655  0.00  0.00    +0.000 C 
ATOM     21  C   UNL     1       5.227   3.658  16.633  0.00  0.00    +0.000 C 
ATOM     22  C   UNL     1       6.228   4.800  16.769  0.00  0.00    +0.000 C 
ATOM     23  C   UNL     1       5.557   6.130  16.419  0.00  0.00    +0.000 C 
ENDBRANCH   6  11
BRANCH   1  25
ATOM     24  O   UNL     1      -0.846  15.041  21.288  0.00  0.00    +0.000 OA
ATOM     25  C   UNL     1      -1.439  14.197  20.636  0.00  0.00    +0.000 C 
BRANCH  25  26
ATOM     26  O   UNL     1      -2.717  14.336  20.231  0.00  0.00    +0.000 OA
ATOM     27  H   UNL     1      -2.855  14.616  19.306  0.00  0.00    +0.000 HD
ENDBRANCH  25  26
ENDBRANCH   1  25
TORSDOF 3
ENDMDL
MODEL 8
REMARK VINA RESULT:      -8.0      1.044      2.628
REMARK  Name = 
REMARK  3 active torsions:
REMARK  status: ('A' for Active; 'I' for Inactive)
REMARK    1  A    between atoms: C_2  and  O_3
REMARK    2  A    between atoms: C_2  and  C_4
REMARK    3  A    between atoms: C_9  and  C_11
REMARK                            x       y       z     vdW  Elec       q    Type
REMARK                         _______ _______ _______ _____ _____    ______ ____
ROOT
ATOM      1  C   UNL     1      -1.425  12.258  22.250  0.00  0.00    +0.000 A 
ATOM      2  C   UNL     1      -1.285  11.213  23.164  0.00  0.00    +0.000 A 
ATOM      3  C   UNL     1      -0.558  10.071  22.805  0.00  0.00    +0.000 A 
ATOM      4  C   UNL     1       0.010  10.004  21.535  0.00  0.00    +0.000 A 
ATOM      5  N   UNL     1       0.736   8.854  21.168  0.00  0.00    +0.000 N 
ATOM      6  C   UNL     1       1.341   8.709  19.926  0.00  0.00    +0.000 C 
ATOM      7  O   UNL     1       1.326   9.529  19.012  0.00  0.00    +0.000 OA
ATOM      8  N   UNL     1      -0.120  11.021  20.663  0.00  0.00    +0.000 NA
ATOM      9  C   UNL     1      -0.801  12.126  21.027  0.00  0.00    +0.000 A 
ATOM     10  H   UNL     1       0.864   8.143  21.866  0.00  0.00    +0.000 HD
ENDROOT
BRANCH   6  11
ATOM     11  C   UNL     1       2.093   7.446  19.670  0.00  0.00    +0.000 A 
ATOM     12  C   UNL     1       1.965   6.294  20.457  0.00  0.00    +0.000 A 
ATOM     13  C   UNL     1       2.625   5.106  20.088  0.00  0.00    +0.000 A 
ATOM     14  C   UNL     1       3.460   5.100  18.957  0.00  0.00    +0.000 A 
ATOM     15  C   UNL     1       3.575   6.249  18.159  0.00  0.00    +0.000 A 
ATOM     16  C   UNL     1       2.888   7.408  18.514  0.00  0.00    +0.000 A 
ATOM     17  C   UNL     1       4.390   6.162  16.895  0.00  0.00    +0.000 C 
ATOM     18  C   UNL     1       5.730   5.483  17.171  0.00  0.00    +0.000 C 
ATOM     19  C   UNL     1       5.636   4.235  18.067  0.00  0.00    +0.000 C 
ATOM     20  C   UNL     1       4.205   3.863  18.492  0.00  0.00    +0.000 C 
ATOM     21  C   UNL     1       4.220   2.752  19.550  0.00  0.00    +0.000 C 
ATOM     22  C   UNL     1       2.832   2.585  20.159  0.00  0.00    +0.000 C 
ATOM     23  C   UNL     1       2.435   3.856  20.913  0.00  0.00    +0.000 C 
ENDBRANCH   6  11
BRANCH   1  25
ATOM     24  O   UNL     1      -1.950  14.074  23.664  0.00  0.00    +0.000 OA
ATOM     25  C   UNL     1      -2.168  13.475  22.623  0.00  0.00    +0.000 C 
BRANCH  25  26
ATOM     26  O   UNL     1      -3.130  13.835  21.750  0.00  0.00    +0.000 OA
ATOM     27  H   UNL     1      -3.179  14.781  21.518  0.00  0.00    +0.000 HD
ENDBRANCH  25  26
ENDBRANCH   1  25
TORSDOF 3
ENDMDL
MODEL 9
REMARK VINA RESULT:      -8.0      3.189      9.071
REMARK  Name = 
REMARK  3 active torsions:
REMARK  status: ('A' for Active; 'I' for Inactive)
REMARK    1  A    between atoms: C_2  and  O_3
REMARK    2  A    between atoms: C_2  and  C_4
REMARK    3  A    between atoms: C_9  and  C_11
REMARK                            x       y       z     vdW  Elec       q    Type
REMARK                         _______ _______ _______ _____ _____    ______ ____
ROOT
ATOM      1  C   UNL     1       4.975   5.343  17.793  0.00  0.00    +0.000 A 
ATOM      2  C   UNL     1       4.194   5.012  18.900  0.00  0.00    +0.000 A 
ATOM      3  C   UNL     1       3.157   5.867  19.296  0.00  0.00    +0.000 A 
ATOM      4  C   UNL     1       2.931   7.035  18.572  0.00  0.00    +0.000 A 
ATOM      5  N   UNL     1       1.894   7.900  18.971  0.00  0.00    +0.000 N 
ATOM      6  C   UNL     1       1.596   9.079  18.301  0.00  0.00    +0.000 C 
ATOM      7  O   UNL     1       2.173   9.515  17.309  0.00  0.00    +0.000 OA
ATOM      8  N   UNL     1       3.682   7.341  17.498  0.00  0.00    +0.000 NA
ATOM      9  C   UNL     1       4.662   6.499  17.111  0.00  0.00    +0.000 A 
ATOM     10  H   UNL     1       1.315   7.607  19.739  0.00  0.00    +0.000 HD
ENDROOT
BRANCH   6  11
ATOM     11  C   UNL     1       0.461   9.897  18.820  0.00  0.00    +0.000 A 
ATOM     12  C   UNL     1       0.405  10.407  20.124  0.00  0.00    +0.000 A 
ATOM     13  C   UNL     1      -0.646  11.262  20.507  0.00  0.00    +0.000 A 
ATOM     14  C   UNL     1      -1.670  11.555  19.589  0.00  0.00    +0.000 A 
ATOM     15  C   UNL     1      -1.606  11.060  18.277  0.00  0.00    +0.000 A 
ATOM     16  C   UNL     1      -0.541  10.243  17.900  0.00  0.00    +0.000 A 
ATOM     17  C   UNL     1      -2.663  11.492  17.296  0.00  0.00    +0.000 C 
ATOM     18  C   UNL     1      -4.052  11.365  17.920  0.00  0.00    +0.000 C 
ATOM     19  C   UNL     1      -4.145  11.877  19.369  0.00  0.00    +0.000 C 
ATOM     20  C   UNL     1      -2.836  12.468  19.921  0.00  0.00    +0.000 C 
ATOM     21  C   UNL     1      -2.954  12.748  21.425  0.00  0.00    +0.000 C 
ATOM     22  C   UNL     1      -1.583  13.069  22.010  0.00  0.00    +0.000 C 
ATOM     23  C   UNL     1      -0.666  11.849  21.898  0.00  0.00    +0.000 C 
ENDBRANCH   6  11
BRANCH   1  25
ATOM     24  O   UNL     1       6.128   4.031  16.204  0.00  0.00    +0.000 OA
ATOM     25  C   UNL     1       6.055   4.441  17.351  0.00  0.00    +0.000 C 
BRANCH  25  26
ATOM     26  O   UNL     1       6.912   4.074  18.324  0.00  0.00    +0.000 OA
ATOM     27  H   UNL     1       7.403   4.791  18.769  0.00  0.00    +0.000 HD
ENDBRANCH  25  26
ENDBRANCH   1  25
TORSDOF 3
ENDMDL
