MODEL 1
REMARK VINA RESULT:      -8.6      0.000      0.000
REMARK  Name = 
REMARK  7 active torsions:
REMARK  status: ('A' for Active; 'I' for Inactive)
REMARK    1  A    between atoms: C_1  and  C_2
REMARK    2  A    between atoms: C_2  and  C_5
REMARK    3  A    between atoms: N_3  and  O_4
REMARK    4  A    between atoms: N_11  and  C_12
REMARK    5  A    between atoms: C_12  and  C_13
REMARK    6  A    between atoms: C_16  and  C_17
REMARK    7  A    between atoms: N_19  and  O_20
REMARK                            x       y       z     vdW  Elec       q    Type
REMARK                         _______ _______ _______ _____ _____    ______ ____
ROOT
ATOM      1  C   UNL     1       1.692   9.040  19.250  0.00  0.00    +0.000 A 
ATOM      2  C   UNL     1       0.966   8.753  20.408  0.00  0.00    +0.000 A 
ATOM      3  C   UNL     1       1.029   7.479  20.973  0.00  0.00    +0.000 A 
ATOM      4  C   UNL     1       1.802   6.473  20.379  0.00  0.00    +0.000 A 
ATOM      5  C   UNL     1       2.559   6.742  19.223  0.00  0.00    +0.000 A 
ATOM      6  C   UNL     1       2.488   8.035  18.676  0.00  0.00    +0.000 A 
ATOM      7  N   UNL     1       3.287   5.724  18.546  0.00  0.00    +0.000 N 
ATOM      8  C   UNL     1       2.946   4.348  18.650  0.00  0.00    +0.000 A 
ATOM      9  C   UNL     1       3.246   3.464  17.598  0.00  0.00    +0.000 A 
ATOM     10  C   UNL     1       2.747   2.161  17.576  0.00  0.00    +0.000 A 
ATOM     11  C   UNL     1       1.974   1.696  18.633  0.00  0.00    +0.000 A 
ATOM     12  C   UNL     1       1.715   2.531  19.716  0.00  0.00    +0.000 A 
ATOM     13  C   UNL     1       2.181   3.853  19.725  0.00  0.00    +0.000 A 
ATOM     14  S   UNL     1       1.789   4.863  21.141  0.00  0.00    +0.000 S 
ENDROOT
BRANCH   1  16
ATOM     15  C   UNL     1       0.416  11.251  18.843  0.00  0.00    +0.000 C 
ATOM     16  C   UNL     1       1.634  10.386  18.586  0.00  0.00    +0.000 C 
ATOM     17  N   UNL     1       2.632  10.740  17.824  0.00  0.00    +0.000 NA
BRANCH  17  18
ATOM     18  O   UNL     1       2.464  12.009  17.271  0.00  0.00    +0.000 OA
ATOM     19  H   UNL     1       2.025  11.809  16.422  0.00  0.00    +0.000 HD
ENDBRANCH  17  18
ENDBRANCH   1  16
BRANCH   7  20
ATOM     20  C   UNL     1       4.736   6.007  18.392  0.00  0.00    +0.000 C 
BRANCH  20  21
ATOM     21  C   UNL     1       5.320   5.618  17.039  0.00  0.00    +0.000 A 
ATOM     22  C   UNL     1       6.224   4.545  16.957  0.00  0.00    +0.000 A 
ATOM     23  C   UNL     1       6.695   4.099  15.714  0.00  0.00    +0.000 A 
ATOM     24  C   UNL     1       6.260   4.701  14.526  0.00  0.00    +0.000 A 
ATOM     25  C   UNL     1       5.383   5.784  14.605  0.00  0.00    +0.000 A 
ATOM     26  C   UNL     1       4.931   6.240  15.847  0.00  0.00    +0.000 A 
BRANCH  24  27
ATOM     27  C   UNL     1       6.759   4.161  13.226  0.00  0.00    +0.000 C 
ATOM     28  O   UNL     1       7.559   4.801  12.539  0.00  0.00    +0.000 OA
ATOM     29  N   UNL     1       6.318   2.920  12.833  0.00  0.00    +0.000 N 
ATOM     30  H   UNL     1       5.817   2.256  13.408  0.00  0.00    +0.000 HD
BRANCH  29  31
ATOM     31  O   UNL     1       6.904   2.404  11.654  0.00  0.00    +0.000 OA
ATOM     32  H   UNL     1       7.746   2.907  11.607  0.00  0.00    +0.000 HD
ENDBRANCH  29  31
ENDBRANCH  24  27
ENDBRANCH  20  21
ENDBRANCH   7  20
TORSDOF 6
ENDMDL
MODEL 2
REMARK VINA RESULT:      -7.7      0.768      1.218
REMARK  Name = 
REMARK  7 active torsions:
REMARK  status: ('A' for Active; 'I' for Inactive)
REMARK    1  A    between atoms: C_1  and  C_2
REMARK    2  A    between atoms: C_2  and  C_5
REMARK    3  A    between atoms: N_3  and  O_4
REMARK    4  A    between atoms: N_11  and  C_12
REMARK    5  A    between atoms: C_12  and  C_13
REMARK    6  A    between atoms: C_16  and  C_17
REMARK    7  A    between atoms: N_19  and  O_20
REMARK                            x       y       z     vdW  Elec       q    Type
REMARK                         _______ _______ _______ _____ _____    ______ ____
ROOT
ATOM      1  C   UNL     1       1.507   9.034  19.377  0.00  0.00    +0.000 A 
ATOM      2  C   UNL     1       0.941   8.739  20.620  0.00  0.00    +0.000 A 
ATOM      3  C   UNL     1       1.114   7.474  21.182  0.00  0.00    +0.000 A 
ATOM      4  C   UNL     1       1.835   6.484  20.502  0.00  0.00    +0.000 A 
ATOM      5  C   UNL     1       2.431   6.763  19.257  0.00  0.00    +0.000 A 
ATOM      6  C   UNL     1       2.254   8.047  18.715  0.00  0.00    +0.000 A 
ATOM      7  N   UNL     1       3.099   5.759  18.501  0.00  0.00    +0.000 N 
ATOM      8  C   UNL     1       2.815   4.375  18.657  0.00  0.00    +0.000 A 
ATOM      9  C   UNL     1       3.007   3.488  17.583  0.00  0.00    +0.000 A 
ATOM     10  C   UNL     1       2.548   2.171  17.633  0.00  0.00    +0.000 A 
ATOM     11  C   UNL     1       1.929   1.695  18.783  0.00  0.00    +0.000 A 
ATOM     12  C   UNL     1       1.784   2.534  19.884  0.00  0.00    +0.000 A 
ATOM     13  C   UNL     1       2.208   3.869  19.824  0.00  0.00    +0.000 A 
ATOM     14  S   UNL     1       1.967   4.883  21.271  0.00  0.00    +0.000 S 
ENDROOT
BRANCH   1  16
ATOM     15  C   UNL     1       2.422  10.860  17.792  0.00  0.00    +0.000 C 
ATOM     16  C   UNL     1       1.325  10.371  18.717  0.00  0.00    +0.000 C 
ATOM     17  N   UNL     1       0.236  11.040  18.973  0.00  0.00    +0.000 NA
BRANCH  17  18
ATOM     18  O   UNL     1       0.181  12.260  18.298  0.00  0.00    +0.000 OA
ATOM     19  H   UNL     1       1.009  12.692  18.582  0.00  0.00    +0.000 HD
ENDBRANCH  17  18
ENDBRANCH   1  16
BRANCH   7  20
ATOM     20  C   UNL     1       4.508   6.081  18.164  0.00  0.00    +0.000 C 
BRANCH  20  21
ATOM     21  C   UNL     1       5.001   5.481  16.852  0.00  0.00    +0.000 A 
ATOM     22  C   UNL     1       4.905   6.230  15.668  0.00  0.00    +0.000 A 
ATOM     23  C   UNL     1       5.445   5.745  14.468  0.00  0.00    +0.000 A 
ATOM     24  C   UNL     1       6.111   4.514  14.429  0.00  0.00    +0.000 A 
ATOM     25  C   UNL     1       6.185   3.754  15.598  0.00  0.00    +0.000 A 
ATOM     26  C   UNL     1       5.627   4.231  16.789  0.00  0.00    +0.000 A 
BRANCH  24  27
ATOM     27  C   UNL     1       6.706   4.062  13.135  0.00  0.00    +0.000 C 
ATOM     28  O   UNL     1       7.513   4.771  12.528  0.00  0.00    +0.000 OA
ATOM     29  N   UNL     1       6.347   2.825  12.659  0.00  0.00    +0.000 N 
ATOM     30  H   UNL     1       5.845   2.111  13.171  0.00  0.00    +0.000 HD
BRANCH  29  31
ATOM     31  O   UNL     1       7.020   2.396  11.492  0.00  0.00    +0.000 OA
ATOM     32  H   UNL     1       7.640   1.723  11.850  0.00  0.00    +0.000 HD
ENDBRANCH  29  31
ENDBRANCH  24  27
ENDBRANCH  20  21
ENDBRANCH   7  20
TORSDOF 6
ENDMDL
MODEL 3
REMARK VINA RESULT:      -7.7      3.279      7.346
REMARK  Name = 
REMARK  7 active torsions:
REMARK  status: ('A' for Active; 'I' for Inactive)
REMARK    1  A    between atoms: C_1  and  C_2
REMARK    2  A    between atoms: C_2  and  C_5
REMARK    3  A    between atoms: N_3  and  O_4
REMARK    4  A    between atoms: N_11  and  C_12
REMARK    5  A    between atoms: C_12  and  C_13
REMARK    6  A    between atoms: C_16  and  C_17
REMARK    7  A    between atoms: N_19  and  O_20
REMARK                            x       y       z     vdW  Elec       q    Type
REMARK                         _______ _______ _______ _____ _____    ______ ____
ROOT
ATOM      1  C   UNL     1       6.702   6.611  17.553  0.00  0.00    +0.000 A 
ATOM      2  C   UNL     1       7.189   5.500  16.860  0.00  0.00    +0.000 A 
ATOM      3  C   UNL     1       6.335   4.442  16.550  0.00  0.00    +0.000 A 
ATOM      4  C   UNL     1       4.991   4.472  16.944  0.00  0.00    +0.000 A 
ATOM      5  C   UNL     1       4.471   5.588  17.625  0.00  0.00    +0.000 A 
ATOM      6  C   UNL     1       5.347   6.648  17.918  0.00  0.00    +0.000 A 
ATOM      7  N   UNL     1       3.135   5.617  18.113  0.00  0.00    +0.000 N 
ATOM      8  C   UNL     1       2.404   4.432  18.399  0.00  0.00    +0.000 A 
ATOM      9  C   UNL     1       1.390   4.443  19.373  0.00  0.00    +0.000 A 
ATOM     10  C   UNL     1       0.798   3.262  19.824  0.00  0.00    +0.000 A 
ATOM     11  C   UNL     1       1.173   2.044  19.272  0.00  0.00    +0.000 A 
ATOM     12  C   UNL     1       2.129   2.010  18.261  0.00  0.00    +0.000 A 
ATOM     13  C   UNL     1       2.754   3.189  17.833  0.00  0.00    +0.000 A 
ATOM     14  S   UNL     1       3.983   3.058  16.546  0.00  0.00    +0.000 S 
ENDROOT
BRANCH   1  16
ATOM     15  C   UNL     1       8.597   7.541  19.046  0.00  0.00    +0.000 C 
ATOM     16  C   UNL     1       7.588   7.762  17.937  0.00  0.00    +0.000 C 
ATOM     17  N   UNL     1       7.443   8.889  17.298  0.00  0.00    +0.000 NA
BRANCH  17  18
ATOM     18  O   UNL     1       8.323   9.877  17.740  0.00  0.00    +0.000 OA
ATOM     19  H   UNL     1       9.173   9.399  17.772  0.00  0.00    +0.000 HD
ENDBRANCH  17  18
ENDBRANCH   1  16
BRANCH   7  20
ATOM     20  C   UNL     1       2.323   6.754  17.611  0.00  0.00    +0.000 C 
BRANCH  20  21
ATOM     21  C   UNL     1       1.948   7.784  18.670  0.00  0.00    +0.000 A 
ATOM     22  C   UNL     1       1.456   9.038  18.274  0.00  0.00    +0.000 A 
ATOM     23  C   UNL     1       1.006   9.964  19.226  0.00  0.00    +0.000 A 
ATOM     24  C   UNL     1       1.018   9.651  20.591  0.00  0.00    +0.000 A 
ATOM     25  C   UNL     1       1.531   8.416  20.991  0.00  0.00    +0.000 A 
ATOM     26  C   UNL     1       1.999   7.503  20.041  0.00  0.00    +0.000 A 
BRANCH  24  27
ATOM     27  C   UNL     1       0.487  10.656  21.561  0.00  0.00    +0.000 C 
ATOM     28  O   UNL     1       0.834  11.838  21.502  0.00  0.00    +0.000 OA
ATOM     29  N   UNL     1      -0.416  10.227  22.502  0.00  0.00    +0.000 N 
ATOM     30  H   UNL     1      -0.890   9.333  22.510  0.00  0.00    +0.000 HD
BRANCH  29  31
ATOM     31  O   UNL     1      -0.974  11.233  23.324  0.00  0.00    +0.000 OA
ATOM     32  H   UNL     1      -1.934  11.030  23.273  0.00  0.00    +0.000 HD
ENDBRANCH  29  31
ENDBRANCH  24  27
ENDBRANCH  20  21
ENDBRANCH   7  20
TORSDOF 6
ENDMDL
MODEL 4
REMARK VINA RESULT:      -7.5      3.907      7.063
REMARK  Name = 
REMARK  7 active torsions:
REMARK  status: ('A' for Active; 'I' for Inactive)
REMARK    1  A    between atoms: C_1  and  C_2
REMARK    2  A    between atoms: C_2  and  C_5
REMARK    3  A    between atoms: N_3  and  O_4
REMARK    4  A    between atoms: N_11  and  C_12
REMARK    5  A    between atoms: C_12  and  C_13
REMARK    6  A    between atoms: C_16  and  C_17
REMARK    7  A    between atoms: N_19  and  O_20
REMARK                            x       y       z     vdW  Elec       q    Type
REMARK                         _______ _______ _______ _____ _____    ______ ____
ROOT
ATOM      1  C   UNL     1       1.937  14.237  19.744  0.00  0.00    +0.000 A 
ATOM      2  C   UNL     1       1.048  15.269  20.055  0.00  0.00    +0.000 A 
ATOM      3  C   UNL     1      -0.312  14.998  20.199  0.00  0.00    +0.000 A 
ATOM      4  C   UNL     1      -0.803  13.699  20.016  0.00  0.00    +0.000 A 
ATOM      5  C   UNL     1       0.074  12.638  19.722  0.00  0.00    +0.000 A 
ATOM      6  C   UNL     1       1.442  12.932  19.592  0.00  0.00    +0.000 A 
ATOM      7  N   UNL     1      -0.399  11.324  19.447  0.00  0.00    +0.000 N 
ATOM      8  C   UNL     1      -1.714  11.073  18.972  0.00  0.00    +0.000 A 
ATOM      9  C   UNL     1      -1.976   9.939  18.183  0.00  0.00    +0.000 A 
ATOM     10  C   UNL     1      -3.200   9.771  17.531  0.00  0.00    +0.000 A 
ATOM     11  C   UNL     1      -4.208  10.712  17.695  0.00  0.00    +0.000 A 
ATOM     12  C   UNL     1      -3.996  11.813  18.522  0.00  0.00    +0.000 A 
ATOM     13  C   UNL     1      -2.756  12.005  19.147  0.00  0.00    +0.000 A 
ATOM     14  S   UNL     1      -2.560  13.450  20.174  0.00  0.00    +0.000 S 
ENDROOT
BRANCH   1  16
ATOM     15  C   UNL     1       4.258  14.705  20.783  0.00  0.00    +0.000 C 
ATOM     16  C   UNL     1       3.407  14.483  19.549  0.00  0.00    +0.000 C 
ATOM     17  N   UNL     1       3.872  14.493  18.332  0.00  0.00    +0.000 NA
BRANCH  17  18
ATOM     18  O   UNL     1       5.246  14.726  18.281  0.00  0.00    +0.000 OA
ATOM     19  H   UNL     1       5.611  13.890  18.630  0.00  0.00    +0.000 HD
ENDBRANCH  17  18
ENDBRANCH   1  16
BRANCH   7  20
ATOM     20  C   UNL     1       0.166  10.273  20.331  0.00  0.00    +0.000 C 
BRANCH  20  21
ATOM     21  C   UNL     1       1.134   9.317  19.644  0.00  0.00    +0.000 A 
ATOM     22  C   UNL     1       1.556   8.158  20.315  0.00  0.00    +0.000 A 
ATOM     23  C   UNL     1       2.363   7.210  19.668  0.00  0.00    +0.000 A 
ATOM     24  C   UNL     1       2.749   7.389  18.334  0.00  0.00    +0.000 A 
ATOM     25  C   UNL     1       2.354   8.554  17.673  0.00  0.00    +0.000 A 
ATOM     26  C   UNL     1       1.567   9.507  18.326  0.00  0.00    +0.000 A 
BRANCH  24  27
ATOM     27  C   UNL     1       3.572   6.330  17.678  0.00  0.00    +0.000 C 
ATOM     28  O   UNL     1       4.675   6.594  17.192  0.00  0.00    +0.000 OA
ATOM     29  N   UNL     1       3.076   5.049  17.657  0.00  0.00    +0.000 N 
ATOM     30  H   UNL     1       2.281   4.709  18.184  0.00  0.00    +0.000 HD
BRANCH  29  31
ATOM     31  O   UNL     1       3.939   4.063  17.128  0.00  0.00    +0.000 OA
ATOM     32  H   UNL     1       4.642   4.608  16.712  0.00  0.00    +0.000 HD
ENDBRANCH  29  31
ENDBRANCH  24  27
ENDBRANCH  20  21
ENDBRANCH   7  20
TORSDOF 6
ENDMDL
MODEL 5
REMARK VINA RESULT:      -7.5      3.744      7.011
REMARK  Name = 
REMARK  7 active torsions:
REMARK  status: ('A' for Active; 'I' for Inactive)
REMARK    1  A    between atoms: C_1  and  C_2
REMARK    2  A    between atoms: C_2  and  C_5
REMARK    3  A    between atoms: N_3  and  O_4
REMARK    4  A    between atoms: N_11  and  C_12
REMARK    5  A    between atoms: C_12  and  C_13
REMARK    6  A    between atoms: C_16  and  C_17
REMARK    7  A    between atoms: N_19  and  O_20
REMARK                            x       y       z     vdW  Elec       q    Type
REMARK                         _______ _______ _______ _____ _____    ______ ____
ROOT
ATOM      1  C   UNL     1       2.192  14.235  19.571  0.00  0.00    +0.000 A 
ATOM      2  C   UNL     1       1.314  15.278  19.879  0.00  0.00    +0.000 A 
ATOM      3  C   UNL     1      -0.043  15.013  20.068  0.00  0.00    +0.000 A 
ATOM      4  C   UNL     1      -0.540  13.711  19.936  0.00  0.00    +0.000 A 
ATOM      5  C   UNL     1       0.327  12.640  19.646  0.00  0.00    +0.000 A 
ATOM      6  C   UNL     1       1.691  12.928  19.469  0.00  0.00    +0.000 A 
ATOM      7  N   UNL     1      -0.156  11.321  19.421  0.00  0.00    +0.000 N 
ATOM      8  C   UNL     1      -1.485  11.059  18.991  0.00  0.00    +0.000 A 
ATOM      9  C   UNL     1      -1.771   9.905  18.241  0.00  0.00    +0.000 A 
ATOM     10  C   UNL     1      -3.013   9.722  17.629  0.00  0.00    +0.000 A 
ATOM     11  C   UNL     1      -4.015  10.669  17.796  0.00  0.00    +0.000 A 
ATOM     12  C   UNL     1      -3.778  11.791  18.585  0.00  0.00    +0.000 A 
ATOM     13  C   UNL     1      -2.520  11.999  19.169  0.00  0.00    +0.000 A 
ATOM     14  S   UNL     1      -2.292  13.471  20.150  0.00  0.00    +0.000 S 
ENDROOT
BRANCH   1  16
ATOM     15  C   UNL     1       4.523  14.829  20.518  0.00  0.00    +0.000 C 
ATOM     16  C   UNL     1       3.655  14.472  19.328  0.00  0.00    +0.000 C 
ATOM     17  N   UNL     1       4.102  14.360  18.108  0.00  0.00    +0.000 NA
BRANCH  17  18
ATOM     18  O   UNL     1       5.473  14.598  18.011  0.00  0.00    +0.000 OA
ATOM     19  H   UNL     1       5.530  15.166  17.220  0.00  0.00    +0.000 HD
ENDBRANCH  17  18
ENDBRANCH   1  16
BRANCH   7  20
ATOM     20  C   UNL     1       0.432  10.293  20.318  0.00  0.00    +0.000 C 
BRANCH  20  21
ATOM     21  C   UNL     1       1.215   9.198  19.602  0.00  0.00    +0.000 A 
ATOM     22  C   UNL     1       1.658   9.410  18.287  0.00  0.00    +0.000 A 
ATOM     23  C   UNL     1       2.469   8.464  17.643  0.00  0.00    +0.000 A 
ATOM     24  C   UNL     1       2.871   7.297  18.305  0.00  0.00    +0.000 A 
ATOM     25  C   UNL     1       2.411   7.071  19.604  0.00  0.00    +0.000 A 
ATOM     26  C   UNL     1       1.585   8.006  20.235  0.00  0.00    +0.000 A 
BRANCH  24  27
ATOM     27  C   UNL     1       3.770   6.342  17.590  0.00  0.00    +0.000 C 
ATOM     28  O   UNL     1       3.690   5.127  17.789  0.00  0.00    +0.000 OA
ATOM     29  N   UNL     1       4.669   6.857  16.688  0.00  0.00    +0.000 N 
ATOM     30  H   UNL     1       4.679   7.803  16.330  0.00  0.00    +0.000 HD
BRANCH  29  31
ATOM     31  O   UNL     1       5.418   5.907  15.955  0.00  0.00    +0.000 OA
ATOM     32  H   UNL     1       6.144   6.458  15.590  0.00  0.00    +0.000 HD
ENDBRANCH  29  31
ENDBRANCH  24  27
ENDBRANCH  20  21
ENDBRANCH   7  20
TORSDOF 6
ENDMDL
MODEL 6
REMARK VINA RESULT:      -7.5      3.949      7.100
REMARK  Name = 
REMARK  7 active torsions:
REMARK  status: ('A' for Active; 'I' for Inactive)
REMARK    1  A    between atoms: C_1  and  C_2
REMARK    2  A    between atoms: C_2  and  C_5
REMARK    3  A    between atoms: N_3  and  O_4
REMARK    4  A    between atoms: N_11  and  C_12
REMARK    5  A    between atoms: C_12  and  C_13
REMARK    6  A    between atoms: C_16  and  C_17
REMARK    7  A    between atoms: N_19  and  O_20
REMARK                            x       y       z     vdW  Elec       q    Type
REMARK                         _______ _______ _______ _____ _____    ______ ____
ROOT
ATOM      1  C   UNL     1       1.448  14.056  21.025  0.00  0.00    +0.000 A 
ATOM      2  C   UNL     1       0.432  14.958  21.349  0.00  0.00    +0.000 A 
ATOM      3  C   UNL     1      -0.903  14.605  21.153  0.00  0.00    +0.000 A 
ATOM      4  C   UNL     1      -1.238  13.355  20.615  0.00  0.00    +0.000 A 
ATOM      5  C   UNL     1      -0.234  12.421  20.299  0.00  0.00    +0.000 A 
ATOM      6  C   UNL     1       1.104  12.794  20.514  0.00  0.00    +0.000 A 
ATOM      7  N   UNL     1      -0.533  11.178  19.674  0.00  0.00    +0.000 N 
ATOM      8  C   UNL     1      -1.707  10.979  18.899  0.00  0.00    +0.000 A 
ATOM      9  C   UNL     1      -1.716  10.031  17.860  0.00  0.00    +0.000 A 
ATOM     10  C   UNL     1      -2.774   9.955  16.952  0.00  0.00    +0.000 A 
ATOM     11  C   UNL     1      -3.871  10.795  17.092  0.00  0.00    +0.000 A 
ATOM     12  C   UNL     1      -3.915  11.700  18.150  0.00  0.00    +0.000 A 
ATOM     13  C   UNL     1      -2.839  11.807  19.041  0.00  0.00    +0.000 A 
ATOM     14  S   UNL     1      -2.965  13.004  20.356  0.00  0.00    +0.000 S 
ENDROOT
BRANCH   1  16
ATOM     15  C   UNL     1       3.759  14.468  19.941  0.00  0.00    +0.000 C 
ATOM     16  C   UNL     1       2.901  14.400  21.189  0.00  0.00    +0.000 C 
ATOM     17  N   UNL     1       3.349  14.621  22.393  0.00  0.00    +0.000 NA
BRANCH  17  18
ATOM     18  O   UNL     1       4.708  14.935  22.415  0.00  0.00    +0.000 OA
ATOM     19  H   UNL     1       4.776  15.507  23.203  0.00  0.00    +0.000 HD
ENDBRANCH  17  18
ENDBRANCH   1  16
BRANCH   7  20
ATOM     20  C   UNL     1      -0.061   9.986  20.424  0.00  0.00    +0.000 C 
BRANCH  20  21
ATOM     21  C   UNL     1       1.008   9.168  19.710  0.00  0.00    +0.000 A 
ATOM     22  C   UNL     1       1.477   7.980  20.294  0.00  0.00    +0.000 A 
ATOM     23  C   UNL     1       2.382   7.154  19.611  0.00  0.00    +0.000 A 
ATOM     24  C   UNL     1       2.823   7.486  18.324  0.00  0.00    +0.000 A 
ATOM     25  C   UNL     1       2.380   8.680  17.751  0.00  0.00    +0.000 A 
ATOM     26  C   UNL     1       1.494   9.511  18.443  0.00  0.00    +0.000 A 
BRANCH  24  27
ATOM     27  C   UNL     1       3.754   6.552  17.623  0.00  0.00    +0.000 C 
ATOM     28  O   UNL     1       4.781   6.968  17.082  0.00  0.00    +0.000 OA
ATOM     29  N   UNL     1       3.443   5.214  17.622  0.00  0.00    +0.000 N 
ATOM     30  H   UNL     1       2.732   4.767  18.187  0.00  0.00    +0.000 HD
BRANCH  29  31
ATOM     31  O   UNL     1       4.408   4.358  17.045  0.00  0.00    +0.000 OA
ATOM     32  H   UNL     1       4.994   4.165  17.810  0.00  0.00    +0.000 HD
ENDBRANCH  29  31
ENDBRANCH  24  27
ENDBRANCH  20  21
ENDBRANCH   7  20
TORSDOF 6
ENDMDL
MODEL 7
REMARK VINA RESULT:      -7.4      3.832      6.983
REMARK  Name = 
REMARK  7 active torsions:
REMARK  status: ('A' for Active; 'I' for Inactive)
REMARK    1  A    between atoms: C_1  and  C_2
REMARK    2  A    between atoms: C_2  and  C_5
REMARK    3  A    between atoms: N_3  and  O_4
REMARK    4  A    between atoms: N_11  and  C_12
REMARK    5  A    between atoms: C_12  and  C_13
REMARK    6  A    between atoms: C_16  and  C_17
REMARK    7  A    between atoms: N_19  and  O_20
REMARK                            x       y       z     vdW  Elec       q    Type
REMARK                         _______ _______ _______ _____ _____    ______ ____
ROOT
ATOM      1  C   UNL     1       1.968  13.896  20.831  0.00  0.00    +0.000 A 
ATOM      2  C   UNL     1       1.027  14.870  21.175  0.00  0.00    +0.000 A 
ATOM      3  C   UNL     1      -0.336  14.591  21.070  0.00  0.00    +0.000 A 
ATOM      4  C   UNL     1      -0.774  13.345  20.603  0.00  0.00    +0.000 A 
ATOM      5  C   UNL     1       0.153  12.340  20.269  0.00  0.00    +0.000 A 
ATOM      6  C   UNL     1       1.521  12.639  20.392  0.00  0.00    +0.000 A 
ATOM      7  N   UNL     1      -0.254  11.095  19.714  0.00  0.00    +0.000 N 
ATOM      8  C   UNL     1      -1.482  10.939  19.015  0.00  0.00    +0.000 A 
ATOM      9  C   UNL     1      -1.607   9.955  18.018  0.00  0.00    +0.000 A 
ATOM     10  C   UNL     1      -2.719   9.909  17.175  0.00  0.00    +0.000 A 
ATOM     11  C   UNL     1      -3.756  10.819  17.343  0.00  0.00    +0.000 A 
ATOM     12  C   UNL     1      -3.684  11.764  18.363  0.00  0.00    +0.000 A 
ATOM     13  C   UNL     1      -2.552  11.839  19.187  0.00  0.00    +0.000 A 
ATOM     14  S   UNL     1      -2.531  13.090  20.457  0.00  0.00    +0.000 S 
ENDROOT
BRANCH   1  16
ATOM     15  C   UNL     1       4.112  14.778  19.686  0.00  0.00    +0.000 C 
ATOM     16  C   UNL     1       3.446  14.157  20.898  0.00  0.00    +0.000 C 
ATOM     17  N   UNL     1       4.078  13.837  21.992  0.00  0.00    +0.000 NA
BRANCH  17  18
ATOM     18  O   UNL     1       5.440  14.132  21.934  0.00  0.00    +0.000 OA
ATOM     19  H   UNL     1       5.803  13.349  21.478  0.00  0.00    +0.000 HD
ENDBRANCH  17  18
ENDBRANCH   1  16
BRANCH   7  20
ATOM     20  C   UNL     1       0.191   9.906  20.484  0.00  0.00    +0.000 C 
BRANCH  20  21
ATOM     21  C   UNL     1       1.099   8.953  19.715  0.00  0.00    +0.000 A 
ATOM     22  C   UNL     1       1.582   9.326  18.450  0.00  0.00    +0.000 A 
ATOM     23  C   UNL     1       2.501   8.516  17.767  0.00  0.00    +0.000 A 
ATOM     24  C   UNL     1       2.972   7.328  18.340  0.00  0.00    +0.000 A 
ATOM     25  C   UNL     1       2.473   6.941  19.586  0.00  0.00    +0.000 A 
ATOM     26  C   UNL     1       1.541   7.740  20.255  0.00  0.00    +0.000 A 
BRANCH  24  27
ATOM     27  C   UNL     1       3.982   6.523  17.591  0.00  0.00    +0.000 C 
ATOM     28  O   UNL     1       5.034   7.034  17.196  0.00  0.00    +0.000 OA
ATOM     29  N   UNL     1       3.716   5.192  17.378  0.00  0.00    +0.000 N 
ATOM     30  H   UNL     1       2.980   4.654  17.816  0.00  0.00    +0.000 HD
BRANCH  29  31
ATOM     31  O   UNL     1       4.749   4.448  16.764  0.00  0.00    +0.000 OA
ATOM     32  H   UNL     1       5.453   5.125  16.657  0.00  0.00    +0.000 HD
ENDBRANCH  29  31
ENDBRANCH  24  27
ENDBRANCH  20  21
ENDBRANCH   7  20
TORSDOF 6
ENDMDL
MODEL 8
REMARK VINA RESULT:      -7.3      6.882     10.316
REMARK  Name = 
REMARK  7 active torsions:
REMARK  status: ('A' for Active; 'I' for Inactive)
REMARK    1  A    between atoms: C_1  and  C_2
REMARK    2  A    between atoms: C_2  and  C_5
REMARK    3  A    between atoms: N_3  and  O_4
REMARK    4  A    between atoms: N_11  and  C_12
REMARK    5  A    between atoms: C_12  and  C_13
REMARK    6  A    between atoms: C_16  and  C_17
REMARK    7  A    between atoms: N_19  and  O_20
REMARK                            x       y       z     vdW  Elec       q    Type
REMARK                         _______ _______ _______ _____ _____    ______ ____
ROOT
ATOM      1  C   UNL     1      -4.273  11.512  17.404  0.00  0.00    +0.000 A 
ATOM      2  C   UNL     1      -5.584  11.880  17.090  0.00  0.00    +0.000 A 
ATOM      3  C   UNL     1      -6.355  12.576  18.021  0.00  0.00    +0.000 A 
ATOM      4  C   UNL     1      -5.834  12.895  19.281  0.00  0.00    +0.000 A 
ATOM      5  C   UNL     1      -4.510  12.553  19.615  0.00  0.00    +0.000 A 
ATOM      6  C   UNL     1      -3.747  11.862  18.658  0.00  0.00    +0.000 A 
ATOM      7  N   UNL     1      -3.976  12.787  20.913  0.00  0.00    +0.000 N 
ATOM      8  C   UNL     1      -4.801  12.904  22.065  0.00  0.00    +0.000 A 
ATOM      9  C   UNL     1      -4.300  12.555  23.331  0.00  0.00    +0.000 A 
ATOM     10  C   UNL     1      -5.136  12.460  24.446  0.00  0.00    +0.000 A 
ATOM     11  C   UNL     1      -6.487  12.761  24.327  0.00  0.00    +0.000 A 
ATOM     12  C   UNL     1      -6.996  13.171  23.097  0.00  0.00    +0.000 A 
ATOM     13  C   UNL     1      -6.168  13.229  21.968  0.00  0.00    +0.000 A 
ATOM     14  S   UNL     1      -6.902  13.744  20.426  0.00  0.00    +0.000 S 
ENDROOT
BRANCH   1  16
ATOM     15  C   UNL     1      -2.233   9.973  17.014  0.00  0.00    +0.000 C 
ATOM     16  C   UNL     1      -3.413  10.736  16.447  0.00  0.00    +0.000 C 
ATOM     17  N   UNL     1      -3.724  10.761  15.181  0.00  0.00    +0.000 NA
BRANCH  17  18
ATOM     18  O   UNL     1      -2.857  10.001  14.397  0.00  0.00    +0.000 OA
ATOM     19  H   UNL     1      -3.454   9.327  14.021  0.00  0.00    +0.000 HD
ENDBRANCH  17  18
ENDBRANCH   1  16
BRANCH   7  20
ATOM     20  C   UNL     1      -2.746  13.618  20.930  0.00  0.00    +0.000 C 
BRANCH  20  21
ATOM     21  C   UNL     1      -1.535  12.975  20.262  0.00  0.00    +0.000 A 
ATOM     22  C   UNL     1      -1.136  11.684  20.645  0.00  0.00    +0.000 A 
ATOM     23  C   UNL     1      -0.093  11.029  19.976  0.00  0.00    +0.000 A 
ATOM     24  C   UNL     1       0.561  11.639  18.898  0.00  0.00    +0.000 A 
ATOM     25  C   UNL     1       0.185  12.933  18.532  0.00  0.00    +0.000 A 
ATOM     26  C   UNL     1      -0.841  13.592  19.214  0.00  0.00    +0.000 A 
BRANCH  24  27
ATOM     27  C   UNL     1       1.637  10.881  18.192  0.00  0.00    +0.000 C 
ATOM     28  O   UNL     1       2.721  11.411  17.934  0.00  0.00    +0.000 OA
ATOM     29  N   UNL     1       1.391   9.571  17.862  0.00  0.00    +0.000 N 
ATOM     30  H   UNL     1       0.617   9.009  18.191  0.00  0.00    +0.000 HD
BRANCH  29  31
ATOM     31  O   UNL     1       2.477   8.864  17.297  0.00  0.00    +0.000 OA
ATOM     32  H   UNL     1       2.136   7.943  17.280  0.00  0.00    +0.000 HD
ENDBRANCH  29  31
ENDBRANCH  24  27
ENDBRANCH  20  21
ENDBRANCH   7  20
TORSDOF 6
ENDMDL
MODEL 9
REMARK VINA RESULT:      -7.3      4.993     10.363
REMARK  Name = 
REMARK  7 active torsions:
REMARK  status: ('A' for Active; 'I' for Inactive)
REMARK    1  A    between atoms: C_1  and  C_2
REMARK    2  A    between atoms: C_2  and  C_5
REMARK    3  A    between atoms: N_3  and  O_4
REMARK    4  A    between atoms: N_11  and  C_12
REMARK    5  A    between atoms: C_12  and  C_13
REMARK    6  A    between atoms: C_16  and  C_17
REMARK    7  A    between atoms: N_19  and  O_20
REMARK                            x       y       z     vdW  Elec       q    Type
REMARK                         _______ _______ _______ _____ _____    ______ ____
ROOT
ATOM      1  C   UNL     1       1.061   8.524  20.554  0.00  0.00    +0.000 A 
ATOM      2  C   UNL     1       0.428   8.226  21.764  0.00  0.00    +0.000 A 
ATOM      3  C   UNL     1      -0.335   9.198  22.409  0.00  0.00    +0.000 A 
ATOM      4  C   UNL     1      -0.461  10.483  21.866  0.00  0.00    +0.000 A 
ATOM      5  C   UNL     1       0.150  10.803  20.638  0.00  0.00    +0.000 A 
ATOM      6  C   UNL     1       0.907   9.805  20.000  0.00  0.00    +0.000 A 
ATOM      7  N   UNL     1       0.114  12.120  20.100  0.00  0.00    +0.000 N 
ATOM      8  C   UNL     1      -0.079  13.269  20.913  0.00  0.00    +0.000 A 
ATOM      9  C   UNL     1       0.447  14.511  20.517  0.00  0.00    +0.000 A 
ATOM     10  C   UNL     1       0.457  15.608  21.381  0.00  0.00    +0.000 A 
ATOM     11  C   UNL     1      -0.104  15.500  22.647  0.00  0.00    +0.000 A 
ATOM     12  C   UNL     1      -0.688  14.298  23.041  0.00  0.00    +0.000 A 
ATOM     13  C   UNL     1      -0.666  13.183  22.191  0.00  0.00    +0.000 A 
ATOM     14  S   UNL     1      -1.417  11.677  22.779  0.00  0.00    +0.000 S 
ENDROOT
BRANCH   1  16
ATOM     15  C   UNL     1       2.027   6.129  20.425  0.00  0.00    +0.000 C 
ATOM     16  C   UNL     1       1.919   7.522  19.836  0.00  0.00    +0.000 C 
ATOM     17  N   UNL     1       2.525   7.901  18.745  0.00  0.00    +0.000 NA
BRANCH  17  18
ATOM     18  O   UNL     1       3.285   6.883  18.169  0.00  0.00    +0.000 OA
ATOM     19  H   UNL     1       3.005   6.100  18.681  0.00  0.00    +0.000 HD
ENDBRANCH  17  18
ENDBRANCH   1  16
BRANCH   7  20
ATOM     20  C   UNL     1      -0.464  12.207  18.735  0.00  0.00    +0.000 C 
BRANCH  20  21
ATOM     21  C   UNL     1      -1.952  11.890  18.653  0.00  0.00    +0.000 A 
ATOM     22  C   UNL     1      -2.390  10.816  17.862  0.00  0.00    +0.000 A 
ATOM     23  C   UNL     1      -3.740  10.437  17.850  0.00  0.00    +0.000 A 
ATOM     24  C   UNL     1      -4.678  11.110  18.643  0.00  0.00    +0.000 A 
ATOM     25  C   UNL     1      -4.252  12.196  19.410  0.00  0.00    +0.000 A 
ATOM     26  C   UNL     1      -2.909  12.584  19.403  0.00  0.00    +0.000 A 
BRANCH  24  27
ATOM     27  C   UNL     1      -6.096  10.641  18.628  0.00  0.00    +0.000 C 
ATOM     28  O   UNL     1      -6.968  11.275  18.027  0.00  0.00    +0.000 OA
ATOM     29  N   UNL     1      -6.394   9.469  19.281  0.00  0.00    +0.000 N 
ATOM     30  H   UNL     1      -5.725   8.799  19.637  0.00  0.00    +0.000 HD
BRANCH  29  31
ATOM     31  O   UNL     1      -7.723   9.008  19.144  0.00  0.00    +0.000 OA
ATOM     32  H   UNL     1      -7.939   8.733  20.062  0.00  0.00    +0.000 HD
ENDBRANCH  29  31
ENDBRANCH  24  27
ENDBRANCH  20  21
ENDBRANCH   7  20
TORSDOF 6
ENDMDL
