MODEL 1
REMARK VINA RESULT:      -7.5      0.000      0.000
REMARK  Name = 
REMARK  5 active torsions:
REMARK  status: ('A' for Active; 'I' for Inactive)
REMARK    1  A    between atoms: C_2  and  S_3
REMARK    2  A    between atoms: S_3  and  N_6
REMARK    3  A    between atoms: C_9  and  C_10
REMARK    4  A    between atoms: C_14  and  C_15
REMARK    5  A    between atoms: C_18  and  C_19
REMARK                            x       y       z     vdW  Elec       q    Type
REMARK                         _______ _______ _______ _____ _____    ______ ____
ROOT
ATOM      1  N   UNL     1       6.153   4.110  18.971  0.00  0.00    +0.000 N 
ATOM      2  C   UNL     1       4.933   4.706  18.571  0.00  0.00    +0.000 A 
ATOM      3  N   UNL     1       4.320   5.491  19.415  0.00  0.00    +0.000 NA
ATOM      4  C   UNL     1       3.164   5.982  18.830  0.00  0.00    +0.000 A 
ATOM      5  C   UNL     1       2.864   5.435  17.596  0.00  0.00    +0.000 A 
ATOM      6  S   UNL     1       4.110   4.347  17.122  0.00  0.00    +0.000 S 
ATOM      7  H   UNL     1       6.200   4.226  19.987  0.00  0.00    +0.000 HD
ENDROOT
BRANCH   4   8
ATOM      8  C   UNL     1       2.336   7.014  19.530  0.00  0.00    +0.000 A 
ATOM      9  S   UNL     1       1.640   6.849  21.089  0.00  0.00    +0.000 S 
ATOM     10  C   UNL     1       1.053   8.446  20.982  0.00  0.00    +0.000 A 
ATOM     11  N   UNL     1       0.400   8.893  22.088  0.00  0.00    +0.000 N 
ATOM     12  C   UNL     1      -0.024  10.158  22.339  0.00  0.00    +0.000 C 
ATOM     13  C   UNL     1       0.372  11.341  21.488  0.00  0.00    +0.000 C 
ATOM     14  O   UNL     1      -0.714  10.345  23.348  0.00  0.00    +0.000 OA
ATOM     15  N   UNL     1       1.272   9.065  19.857  0.00  0.00    +0.000 NA
ATOM     16  C   UNL     1       1.984   8.246  18.994  0.00  0.00    +0.000 A 
ATOM     17  C   UNL     1       2.259   8.770  17.628  0.00  0.00    +0.000 C 
ATOM     18  H   UNL     1       0.166   8.212  22.797  0.00  0.00    +0.000 HD
ENDBRANCH   4   8
BRANCH   1  19
ATOM     19  S   UNL     1       7.477   5.015  18.391  0.00  0.00    +0.000 S 
ATOM     20  O   UNL     1       8.013   4.227  17.298  0.00  0.00    +0.000 OA
ATOM     21  O   UNL     1       8.320   5.418  19.495  0.00  0.00    +0.000 OA
BRANCH  19  23
ATOM     22  C   UNL     1       7.489   7.526  17.477  0.00  0.00    +0.000 C 
ATOM     23  C   UNL     1       6.750   6.432  17.701  0.00  0.00    +0.000 C 
ENDBRANCH  19  23
ENDBRANCH   1  19
TORSDOF 3
ENDMDL
MODEL 2
REMARK VINA RESULT:      -7.5      0.959      1.101
REMARK  Name = 
REMARK  5 active torsions:
REMARK  status: ('A' for Active; 'I' for Inactive)
REMARK    1  A    between atoms: C_2  and  S_3
REMARK    2  A    between atoms: S_3  and  N_6
REMARK    3  A    between atoms: C_9  and  C_10
REMARK    4  A    between atoms: C_14  and  C_15
REMARK    5  A    between atoms: C_18  and  C_19
REMARK                            x       y       z     vdW  Elec       q    Type
REMARK                         _______ _______ _______ _____ _____    ______ ____
ROOT
ATOM      1  N   UNL     1       6.112   4.070  18.570  0.00  0.00    +0.000 N 
ATOM      2  C   UNL     1       4.728   4.357  18.637  0.00  0.00    +0.000 A 
ATOM      3  N   UNL     1       4.350   5.451  19.241  0.00  0.00    +0.000 NA
ATOM      4  C   UNL     1       2.969   5.555  19.182  0.00  0.00    +0.000 A 
ATOM      5  C   UNL     1       2.329   4.451  18.649  0.00  0.00    +0.000 A 
ATOM      6  S   UNL     1       3.494   3.297  18.128  0.00  0.00    +0.000 S 
ATOM      7  H   UNL     1       6.559   4.687  19.254  0.00  0.00    +0.000 HD
ENDROOT
BRANCH   4   8
ATOM      8  C   UNL     1       2.276   6.784  19.682  0.00  0.00    +0.000 A 
ATOM      9  S   UNL     1       1.519   6.952  21.212  0.00  0.00    +0.000 S 
ATOM     10  C   UNL     1       1.169   8.580  20.846  0.00  0.00    +0.000 A 
ATOM     11  N   UNL     1       0.554   9.274  21.841  0.00  0.00    +0.000 N 
ATOM     12  C   UNL     1       0.308  10.607  21.884  0.00  0.00    +0.000 C 
ATOM     13  C   UNL     1       0.894  11.583  20.892  0.00  0.00    +0.000 C 
ATOM     14  O   UNL     1      -0.378  11.036  22.819  0.00  0.00    +0.000 OA
ATOM     15  N   UNL     1       1.507   8.986  19.655  0.00  0.00    +0.000 NA
ATOM     16  C   UNL     1       2.120   7.957  18.957  0.00  0.00    +0.000 A 
ATOM     17  C   UNL     1       2.507   8.227  17.545  0.00  0.00    +0.000 C 
ATOM     18  H   UNL     1       0.205   8.746  22.629  0.00  0.00    +0.000 HD
ENDBRANCH   4   8
BRANCH   1  19
ATOM     19  S   UNL     1       6.755   4.578  17.075  0.00  0.00    +0.000 S 
ATOM     20  O   UNL     1       5.835   4.061  16.081  0.00  0.00    +0.000 OA
ATOM     21  O   UNL     1       8.166   4.263  17.012  0.00  0.00    +0.000 OA
BRANCH  19  23
ATOM     22  C   UNL     1       7.524   7.073  17.651  0.00  0.00    +0.000 C 
ATOM     23  C   UNL     1       6.574   6.304  17.102  0.00  0.00    +0.000 C 
ENDBRANCH  19  23
ENDBRANCH   1  19
TORSDOF 3
ENDMDL
MODEL 3
REMARK VINA RESULT:      -7.4      3.982      7.866
REMARK  Name = 
REMARK  5 active torsions:
REMARK  status: ('A' for Active; 'I' for Inactive)
REMARK    1  A    between atoms: C_2  and  S_3
REMARK    2  A    between atoms: S_3  and  N_6
REMARK    3  A    between atoms: C_9  and  C_10
REMARK    4  A    between atoms: C_14  and  C_15
REMARK    5  A    between atoms: C_18  and  C_19
REMARK                            x       y       z     vdW  Elec       q    Type
REMARK                         _______ _______ _______ _____ _____    ______ ____
ROOT
ATOM      1  N   UNL     1       2.972   4.536  21.141  0.00  0.00    +0.000 N 
ATOM      2  C   UNL     1       3.174   5.271  19.949  0.00  0.00    +0.000 A 
ATOM      3  N   UNL     1       4.083   4.854  19.109  0.00  0.00    +0.000 NA
ATOM      4  C   UNL     1       4.111   5.695  18.008  0.00  0.00    +0.000 A 
ATOM      5  C   UNL     1       3.308   6.814  18.115  0.00  0.00    +0.000 A 
ATOM      6  S   UNL     1       2.429   6.762  19.593  0.00  0.00    +0.000 S 
ATOM      7  H   UNL     1       3.787   3.923  21.233  0.00  0.00    +0.000 HD
ENDROOT
BRANCH   4   8
ATOM      8  C   UNL     1       4.973   5.372  16.827  0.00  0.00    +0.000 A 
ATOM      9  S   UNL     1       4.654   4.159  15.657  0.00  0.00    +0.000 S 
ATOM     10  C   UNL     1       6.046   4.638  14.799  0.00  0.00    +0.000 A 
ATOM     11  N   UNL     1       6.263   3.967  13.635  0.00  0.00    +0.000 N 
ATOM     12  C   UNL     1       7.190   4.247  12.685  0.00  0.00    +0.000 C 
ATOM     13  C   UNL     1       8.005   5.518  12.680  0.00  0.00    +0.000 C 
ATOM     14  O   UNL     1       7.320   3.444  11.753  0.00  0.00    +0.000 OA
ATOM     15  N   UNL     1       6.764   5.577  15.347  0.00  0.00    +0.000 NA
ATOM     16  C   UNL     1       6.179   5.993  16.532  0.00  0.00    +0.000 A 
ATOM     17  C   UNL     1       6.910   7.015  17.330  0.00  0.00    +0.000 C 
ATOM     18  H   UNL     1       5.701   3.146  13.461  0.00  0.00    +0.000 HD
ENDBRANCH   4   8
BRANCH   1  19
ATOM     19  S   UNL     1       1.664   3.457  20.963  0.00  0.00    +0.000 S 
ATOM     20  O   UNL     1       0.575   4.275  20.464  0.00  0.00    +0.000 OA
ATOM     21  O   UNL     1       1.507   2.669  22.166  0.00  0.00    +0.000 OA
BRANCH  19  23
ATOM     22  C   UNL     1       1.396   2.282  18.577  0.00  0.00    +0.000 C 
ATOM     23  C   UNL     1       2.156   2.405  19.672  0.00  0.00    +0.000 C 
ENDBRANCH  19  23
ENDBRANCH   1  19
TORSDOF 3
ENDMDL
MODEL 4
REMARK VINA RESULT:      -7.4      1.942      2.401
REMARK  Name = 
REMARK  5 active torsions:
REMARK  status: ('A' for Active; 'I' for Inactive)
REMARK    1  A    between atoms: C_2  and  S_3
REMARK    2  A    between atoms: S_3  and  N_6
REMARK    3  A    between atoms: C_9  and  C_10
REMARK    4  A    between atoms: C_14  and  C_15
REMARK    5  A    between atoms: C_18  and  C_19
REMARK                            x       y       z     vdW  Elec       q    Type
REMARK                         _______ _______ _______ _____ _____    ______ ____
ROOT
ATOM      1  N   UNL     1       6.059   4.249  18.622  0.00  0.00    +0.000 N 
ATOM      2  C   UNL     1       4.725   4.661  18.388  0.00  0.00    +0.000 A 
ATOM      3  N   UNL     1       4.353   5.835  18.821  0.00  0.00    +0.000 NA
ATOM      4  C   UNL     1       3.027   6.053  18.478  0.00  0.00    +0.000 A 
ATOM      5  C   UNL     1       2.392   4.964  17.911  0.00  0.00    +0.000 A 
ATOM      6  S   UNL     1       3.509   3.670  17.721  0.00  0.00    +0.000 S 
ATOM      7  H   UNL     1       6.426   4.885  19.335  0.00  0.00    +0.000 HD
ENDROOT
BRANCH   4   8
ATOM      8  C   UNL     1       2.383   7.379  18.737  0.00  0.00    +0.000 A 
ATOM      9  S   UNL     1       2.396   8.723  17.671  0.00  0.00    +0.000 S 
ATOM     10  C   UNL     1       1.411   9.583  18.764  0.00  0.00    +0.000 A 
ATOM     11  N   UNL     1       1.038  10.823  18.347  0.00  0.00    +0.000 N 
ATOM     12  C   UNL     1       0.138  11.652  18.933  0.00  0.00    +0.000 C 
ATOM     13  C   UNL     1      -0.771  11.215  20.056  0.00  0.00    +0.000 C 
ATOM     14  O   UNL     1       0.025  12.795  18.476  0.00  0.00    +0.000 OA
ATOM     15  N   UNL     1       1.132   8.979  19.884  0.00  0.00    +0.000 NA
ATOM     16  C   UNL     1       1.708   7.719  19.901  0.00  0.00    +0.000 A 
ATOM     17  C   UNL     1       1.550   6.915  21.145  0.00  0.00    +0.000 C 
ATOM     18  H   UNL     1       1.499  11.197  17.529  0.00  0.00    +0.000 HD
ENDBRANCH   4   8
BRANCH   1  19
ATOM     19  S   UNL     1       7.027   4.558  17.253  0.00  0.00    +0.000 S 
ATOM     20  O   UNL     1       6.288   3.993  16.142  0.00  0.00    +0.000 OA
ATOM     21  O   UNL     1       8.393   4.157  17.515  0.00  0.00    +0.000 OA
BRANCH  19  23
ATOM     22  C   UNL     1       7.698   7.062  17.905  0.00  0.00    +0.000 C 
ATOM     23  C   UNL     1       6.980   6.285  17.084  0.00  0.00    +0.000 C 
ENDBRANCH  19  23
ENDBRANCH   1  19
TORSDOF 3
ENDMDL
MODEL 5
REMARK VINA RESULT:      -7.4      1.133      1.233
REMARK  Name = 
REMARK  5 active torsions:
REMARK  status: ('A' for Active; 'I' for Inactive)
REMARK    1  A    between atoms: C_2  and  S_3
REMARK    2  A    between atoms: S_3  and  N_6
REMARK    3  A    between atoms: C_9  and  C_10
REMARK    4  A    between atoms: C_14  and  C_15
REMARK    5  A    between atoms: C_18  and  C_19
REMARK                            x       y       z     vdW  Elec       q    Type
REMARK                         _______ _______ _______ _____ _____    ______ ____
ROOT
ATOM      1  N   UNL     1       6.275   4.227  18.663  0.00  0.00    +0.000 N 
ATOM      2  C   UNL     1       4.899   4.531  18.541  0.00  0.00    +0.000 A 
ATOM      3  N   UNL     1       4.410   5.500  19.266  0.00  0.00    +0.000 NA
ATOM      4  C   UNL     1       3.060   5.648  18.988  0.00  0.00    +0.000 A 
ATOM      5  C   UNL     1       2.535   4.681  18.152  0.00  0.00    +0.000 A 
ATOM      6  S   UNL     1       3.783   3.618  17.632  0.00  0.00    +0.000 S 
ATOM      7  H   UNL     1       6.589   4.692  19.519  0.00  0.00    +0.000 HD
ENDROOT
BRANCH   4   8
ATOM      8  C   UNL     1       2.280   6.777  19.585  0.00  0.00    +0.000 A 
ATOM      9  S   UNL     1       1.455   6.738  21.089  0.00  0.00    +0.000 S 
ATOM     10  C   UNL     1       1.027   8.375  20.882  0.00  0.00    +0.000 A 
ATOM     11  N   UNL     1       0.335   8.923  21.917  0.00  0.00    +0.000 N 
ATOM     12  C   UNL     1       0.012  10.229  22.090  0.00  0.00    +0.000 C 
ATOM     13  C   UNL     1       0.578  11.337  21.234  0.00  0.00    +0.000 C 
ATOM     14  O   UNL     1      -0.733  10.518  23.034  0.00  0.00    +0.000 OA
ATOM     15  N   UNL     1       1.387   8.925  19.757  0.00  0.00    +0.000 NA
ATOM     16  C   UNL     1       2.084   8.012  18.982  0.00  0.00    +0.000 A 
ATOM     17  C   UNL     1       2.509   8.454  17.625  0.00  0.00    +0.000 C 
ATOM     18  H   UNL     1      -0.013   8.295  22.628  0.00  0.00    +0.000 HD
ENDBRANCH   4   8
BRANCH   1  19
ATOM     19  S   UNL     1       7.167   4.993  17.428  0.00  0.00    +0.000 S 
ATOM     20  O   UNL     1       8.326   4.144  17.228  0.00  0.00    +0.000 OA
ATOM     21  O   UNL     1       7.323   6.399  17.732  0.00  0.00    +0.000 OA
BRANCH  19  23
ATOM     22  C   UNL     1       6.687   4.431  14.859  0.00  0.00    +0.000 C 
ATOM     23  C   UNL     1       6.161   4.838  16.022  0.00  0.00    +0.000 C 
ENDBRANCH  19  23
ENDBRANCH   1  19
TORSDOF 3
ENDMDL
MODEL 6
REMARK VINA RESULT:      -7.2      2.533      3.052
REMARK  Name = 
REMARK  5 active torsions:
REMARK  status: ('A' for Active; 'I' for Inactive)
REMARK    1  A    between atoms: C_2  and  S_3
REMARK    2  A    between atoms: S_3  and  N_6
REMARK    3  A    between atoms: C_9  and  C_10
REMARK    4  A    between atoms: C_14  and  C_15
REMARK    5  A    between atoms: C_18  and  C_19
REMARK                            x       y       z     vdW  Elec       q    Type
REMARK                         _______ _______ _______ _____ _____    ______ ____
ROOT
ATOM      1  N   UNL     1       6.285   4.228  16.571  0.00  0.00    +0.000 N 
ATOM      2  C   UNL     1       4.951   4.301  17.039  0.00  0.00    +0.000 A 
ATOM      3  N   UNL     1       4.635   5.262  17.865  0.00  0.00    +0.000 NA
ATOM      4  C   UNL     1       3.291   5.168  18.187  0.00  0.00    +0.000 A 
ATOM      5  C   UNL     1       2.657   4.041  17.696  0.00  0.00    +0.000 A 
ATOM      6  S   UNL     1       3.753   3.128  16.734  0.00  0.00    +0.000 S 
ATOM      7  H   UNL     1       6.832   4.832  17.191  0.00  0.00    +0.000 HD
ENDROOT
BRANCH   4   8
ATOM      8  C   UNL     1       2.631   6.226  19.015  0.00  0.00    +0.000 A 
ATOM      9  S   UNL     1       2.421   7.866  18.560  0.00  0.00    +0.000 S 
ATOM     10  C   UNL     1       1.573   8.147  20.011  0.00  0.00    +0.000 A 
ATOM     11  N   UNL     1       1.083   9.408  20.156  0.00  0.00    +0.000 N 
ATOM     12  C   UNL     1       0.244   9.859  21.122  0.00  0.00    +0.000 C 
ATOM     13  C   UNL     1      -0.465   8.942  22.088  0.00  0.00    +0.000 C 
ATOM     14  O   UNL     1       0.010  11.073  21.160  0.00  0.00    +0.000 OA
ATOM     15  N   UNL     1       1.494   7.141  20.834  0.00  0.00    +0.000 NA
ATOM     16  C   UNL     1       2.124   6.032  20.293  0.00  0.00    +0.000 A 
ATOM     17  C   UNL     1       2.192   4.807  21.136  0.00  0.00    +0.000 C 
ATOM     18  H   UNL     1       1.398  10.107  19.498  0.00  0.00    +0.000 HD
ENDBRANCH   4   8
BRANCH   1  19
ATOM     19  S   UNL     1       6.423   4.972  15.043  0.00  0.00    +0.000 S 
ATOM     20  O   UNL     1       7.806   5.398  14.962  0.00  0.00    +0.000 OA
ATOM     21  O   UNL     1       5.344   5.919  14.858  0.00  0.00    +0.000 OA
BRANCH  19  23
ATOM     22  C   UNL     1       5.411   3.816  12.856  0.00  0.00    +0.000 C 
ATOM     23  C   UNL     1       6.215   3.667  13.917  0.00  0.00    +0.000 C 
ENDBRANCH  19  23
ENDBRANCH   1  19
TORSDOF 3
ENDMDL
MODEL 7
REMARK VINA RESULT:      -7.2      1.655      1.859
REMARK  Name = 
REMARK  5 active torsions:
REMARK  status: ('A' for Active; 'I' for Inactive)
REMARK    1  A    between atoms: C_2  and  S_3
REMARK    2  A    between atoms: S_3  and  N_6
REMARK    3  A    between atoms: C_9  and  C_10
REMARK    4  A    between atoms: C_14  and  C_15
REMARK    5  A    between atoms: C_18  and  C_19
REMARK                            x       y       z     vdW  Elec       q    Type
REMARK                         _______ _______ _______ _____ _____    ______ ____
ROOT
ATOM      1  N   UNL     1       6.018   5.222  17.962  0.00  0.00    +0.000 N 
ATOM      2  C   UNL     1       4.617   5.341  18.132  0.00  0.00    +0.000 A 
ATOM      3  N   UNL     1       4.163   6.302  18.890  0.00  0.00    +0.000 NA
ATOM      4  C   UNL     1       2.778   6.255  18.912  0.00  0.00    +0.000 A 
ATOM      5  C   UNL     1       2.228   5.161  18.272  0.00  0.00    +0.000 A 
ATOM      6  S   UNL     1       3.474   4.219  17.550  0.00  0.00    +0.000 S 
ATOM      7  H   UNL     1       6.438   5.797  18.698  0.00  0.00    +0.000 HD
ENDROOT
BRANCH   4   8
ATOM      8  C   UNL     1       1.992   7.327  19.600  0.00  0.00    +0.000 A 
ATOM      9  S   UNL     1       1.303   7.212  21.166  0.00  0.00    +0.000 S 
ATOM     10  C   UNL     1       0.770   8.826  21.036  0.00  0.00    +0.000 A 
ATOM     11  N   UNL     1       0.141   9.314  22.140  0.00  0.00    +0.000 N 
ATOM     12  C   UNL     1      -0.236  10.597  22.371  0.00  0.00    +0.000 C 
ATOM     13  C   UNL     1       0.193  11.751  21.498  0.00  0.00    +0.000 C 
ATOM     14  O   UNL     1      -0.912  10.824  23.382  0.00  0.00    +0.000 OA
ATOM     15  N   UNL     1       1.002   9.418  19.899  0.00  0.00    +0.000 NA
ATOM     16  C   UNL     1       1.678   8.561  19.046  0.00  0.00    +0.000 A 
ATOM     17  C   UNL     1       1.960   9.052  17.669  0.00  0.00    +0.000 C 
ATOM     18  H   UNL     1      -0.110   8.654  22.862  0.00  0.00    +0.000 HD
ENDBRANCH   4   8
BRANCH   1  19
ATOM     19  S   UNL     1       6.509   5.981  16.516  0.00  0.00    +0.000 S 
ATOM     20  O   UNL     1       7.714   6.706  16.869  0.00  0.00    +0.000 OA
ATOM     21  O   UNL     1       5.385   6.663  15.911  0.00  0.00    +0.000 OA
BRANCH  19  23
ATOM     22  C   UNL     1       6.055   4.007  14.772  0.00  0.00    +0.000 C 
ATOM     23  C   UNL     1       6.978   4.665  15.486  0.00  0.00    +0.000 C 
ENDBRANCH  19  23
ENDBRANCH   1  19
TORSDOF 3
ENDMDL
MODEL 8
REMARK VINA RESULT:      -7.1      1.141      1.308
REMARK  Name = 
REMARK  5 active torsions:
REMARK  status: ('A' for Active; 'I' for Inactive)
REMARK    1  A    between atoms: C_2  and  S_3
REMARK    2  A    between atoms: S_3  and  N_6
REMARK    3  A    between atoms: C_9  and  C_10
REMARK    4  A    between atoms: C_14  and  C_15
REMARK    5  A    between atoms: C_18  and  C_19
REMARK                            x       y       z     vdW  Elec       q    Type
REMARK                         _______ _______ _______ _____ _____    ______ ____
ROOT
ATOM      1  N   UNL     1       5.845   4.579  19.230  0.00  0.00    +0.000 N 
ATOM      2  C   UNL     1       4.588   5.102  18.843  0.00  0.00    +0.000 A 
ATOM      3  N   UNL     1       4.005   5.965  19.630  0.00  0.00    +0.000 NA
ATOM      4  C   UNL     1       2.804   6.364  19.066  0.00  0.00    +0.000 A 
ATOM      5  C   UNL     1       2.447   5.677  17.922  0.00  0.00    +0.000 A 
ATOM      6  S   UNL     1       3.691   4.568  17.495  0.00  0.00    +0.000 S 
ATOM      7  H   UNL     1       5.949   4.808  20.222  0.00  0.00    +0.000 HD
ENDROOT
BRANCH   4   8
ATOM      8  C   UNL     1       1.992   7.452  19.698  0.00  0.00    +0.000 A 
ATOM      9  S   UNL     1       1.270   7.387  21.253  0.00  0.00    +0.000 S 
ATOM     10  C   UNL     1       0.724   8.990  21.052  0.00  0.00    +0.000 A 
ATOM     11  N   UNL     1       0.066   9.511  22.123  0.00  0.00    +0.000 N 
ATOM     12  C   UNL     1      -0.329  10.796  22.299  0.00  0.00    +0.000 C 
ATOM     13  C   UNL     1       0.108  11.922  21.393  0.00  0.00    +0.000 C 
ATOM     14  O   UNL     1      -1.029  11.053  23.286  0.00  0.00    +0.000 OA
ATOM     15  N   UNL     1       0.975   9.541  19.899  0.00  0.00    +0.000 NA
ATOM     16  C   UNL     1       1.678   8.661  19.092  0.00  0.00    +0.000 A 
ATOM     17  C   UNL     1       1.985   9.105  17.705  0.00  0.00    +0.000 C 
ATOM     18  H   UNL     1      -0.194   8.874  22.863  0.00  0.00    +0.000 HD
ENDBRANCH   4   8
BRANCH   1  19
ATOM     19  S   UNL     1       7.108   5.439  18.473  0.00  0.00    +0.000 S 
ATOM     20  O   UNL     1       8.192   5.428  19.436  0.00  0.00    +0.000 OA
ATOM     21  O   UNL     1       6.604   6.686  17.940  0.00  0.00    +0.000 OA
BRANCH  19  23
ATOM     22  C   UNL     1       6.993   4.557  15.952  0.00  0.00    +0.000 C 
ATOM     23  C   UNL     1       7.579   4.420  17.149  0.00  0.00    +0.000 C 
ENDBRANCH  19  23
ENDBRANCH   1  19
TORSDOF 3
ENDMDL
MODEL 9
REMARK VINA RESULT:      -7.0      2.597      3.073
REMARK  Name = 
REMARK  5 active torsions:
REMARK  status: ('A' for Active; 'I' for Inactive)
REMARK    1  A    between atoms: C_2  and  S_3
REMARK    2  A    between atoms: S_3  and  N_6
REMARK    3  A    between atoms: C_9  and  C_10
REMARK    4  A    between atoms: C_14  and  C_15
REMARK    5  A    between atoms: C_18  and  C_19
REMARK                            x       y       z     vdW  Elec       q    Type
REMARK                         _______ _______ _______ _____ _____    ______ ____
ROOT
ATOM      1  N   UNL     1       6.202   4.634  16.700  0.00  0.00    +0.000 N 
ATOM      2  C   UNL     1       4.860   4.811  17.114  0.00  0.00    +0.000 A 
ATOM      3  N   UNL     1       4.546   5.907  17.750  0.00  0.00    +0.000 NA
ATOM      4  C   UNL     1       3.192   5.893  18.050  0.00  0.00    +0.000 A 
ATOM      5  C   UNL     1       2.547   4.709  17.749  0.00  0.00    +0.000 A 
ATOM      6  S   UNL     1       3.644   3.622  16.991  0.00  0.00    +0.000 S 
ATOM      7  H   UNL     1       6.747   5.329  17.218  0.00  0.00    +0.000 HD
ENDROOT
BRANCH   4   8
ATOM      8  C   UNL     1       2.537   7.091  18.662  0.00  0.00    +0.000 A 
ATOM      9  S   UNL     1       2.359   8.626  17.915  0.00  0.00    +0.000 S 
ATOM     10  C   UNL     1       1.493   9.174  19.277  0.00  0.00    +0.000 A 
ATOM     11  N   UNL     1       1.021  10.447  19.184  0.00  0.00    +0.000 N 
ATOM     12  C   UNL     1       0.174  11.075  20.038  0.00  0.00    +0.000 C 
ATOM     13  C   UNL     1      -0.562  10.356  21.142  0.00  0.00    +0.000 C 
ATOM     14  O   UNL     1      -0.041  12.278  19.853  0.00  0.00    +0.000 OA
ATOM     15  N   UNL     1       1.387   8.334  20.267  0.00  0.00    +0.000 NA
ATOM     16  C   UNL     1       2.008   7.138  19.945  0.00  0.00    +0.000 A 
ATOM     17  C   UNL     1       2.045   6.085  20.997  0.00  0.00    +0.000 C 
ATOM     18  H   UNL     1       1.356  11.011  18.416  0.00  0.00    +0.000 HD
ENDBRANCH   4   8
BRANCH   1  19
ATOM     19  S   UNL     1       6.388   5.095  15.069  0.00  0.00    +0.000 S 
ATOM     20  O   UNL     1       7.799   5.396  14.928  0.00  0.00    +0.000 OA
ATOM     21  O   UNL     1       5.383   6.075  14.717  0.00  0.00    +0.000 OA
BRANCH  19  23
ATOM     22  C   UNL     1       6.114   3.644  12.841  0.00  0.00    +0.000 C 
ATOM     23  C   UNL     1       6.076   3.637  14.180  0.00  0.00    +0.000 C 
ENDBRANCH  19  23
ENDBRANCH   1  19
TORSDOF 3
ENDMDL
