MODEL 1
REMARK VINA RESULT:      -6.5      0.000      0.000
REMARK  Name = 
REMARK  15 active torsions:
REMARK  status: ('A' for Active; 'I' for Inactive)
REMARK    1  A    between atoms: C_1  and  C_2
REMARK    2  A    between atoms: C_2  and  C_3
REMARK    3  A    between atoms: C_3  and  C_5
REMARK    4  A    between atoms: C_5  and  C_6
REMARK    5  A    between atoms: C_5  and  C_21
REMARK    6  A    between atoms: C_6  and  C_7
REMARK    7  A    between atoms: C_7  and  O_8
REMARK    8  A    between atoms: O_8  and  C_9
REMARK    9  A    between atoms: C_9  and  C_10
REMARK   10  A    between atoms: C_10  and  O_11
REMARK   11  A    between atoms: O_11  and  C_12
REMARK   12  A    between atoms: C_15  and  O_16
REMARK   13  A    between atoms: O_16  and  C_17
REMARK   14  A    between atoms: C_21  and  C_23
REMARK   15  A    between atoms: C_23  and  C_24
REMARK                            x       y       z     vdW  Elec       q    Type
REMARK                         _______ _______ _______ _____ _____    ______ ____
ROOT
ATOM      1  O   UNL     1       3.260   4.251  18.600  0.00  0.00    +0.000 OA
ENDROOT
BRANCH   1   2
ATOM      2  C   UNL     1       4.422   3.588  18.108  0.00  0.00    +0.000 C 
BRANCH   2   3
ATOM      3  C   UNL     1       4.742   4.091  16.702  0.00  0.00    +0.000 C 
BRANCH   3   4
ATOM      4  C   UNL     1       6.125   4.754  16.605  0.00  0.00    +0.000 C 
BRANCH   4   5
ATOM      5  C   UNL     1       6.135   6.154  17.213  0.00  0.00    +0.000 C 
ATOM      6  O   UNL     1       5.142   6.882  17.183  0.00  0.00    +0.000 OA
BRANCH   5   8
ATOM      7  C   UNL     1       7.728   8.048  17.627  0.00  0.00    +0.000 C 
ATOM      8  C   UNL     1       7.403   6.593  17.926  0.00  0.00    +0.000 C 
ENDBRANCH   5   8
ENDBRANCH   4   5
BRANCH   4   9
ATOM      9  C   UNL     1       6.627   4.721  15.170  0.00  0.00    +0.000 C 
ATOM     10  O   UNL     1       7.618   5.367  14.824  0.00  0.00    +0.000 OA
BRANCH   9  11
ATOM     11  C   UNL     1       5.878   3.827  14.195  0.00  0.00    +0.000 C 
ATOM     12  C   UNL     1       6.574   3.723  12.850  0.00  0.00    +0.000 C 
ENDBRANCH   9  11
ENDBRANCH   4   9
ENDBRANCH   3   4
ENDBRANCH   2   3
ENDBRANCH   1   2
BRANCH   1  13
ATOM     13  C   UNL     1       3.548   5.127  19.701  0.00  0.00    +0.000 C 
BRANCH  13  14
ATOM     14  C   UNL     1       2.331   5.906  20.207  0.00  0.00    +0.000 C 
BRANCH  14  15
ATOM     15  O   UNL     1       2.205   7.145  19.503  0.00  0.00    +0.000 OA
BRANCH  15  16
ATOM     16  C   UNL     1       1.608   8.180  20.183  0.00  0.00    +0.000 A 
ATOM     17  C   UNL     1       1.317   8.151  21.550  0.00  0.00    +0.000 A 
ATOM     18  C   UNL     1       0.722   9.244  22.173  0.00  0.00    +0.000 A 
ATOM     19  C   UNL     1       0.391  10.386  21.448  0.00  0.00    +0.000 A 
ATOM     20  C   UNL     1       0.670  10.433  20.080  0.00  0.00    +0.000 A 
ATOM     21  C   UNL     1       1.276   9.334  19.451  0.00  0.00    +0.000 A 
ATOM     22 CL   UNL     1       1.598   9.453  17.756  0.00  0.00    +0.000 Cl
BRANCH  19  23
ATOM     23  O   UNL     1      -0.194  11.367  22.195  0.00  0.00    +0.000 OA
ATOM     24  C   UNL     1      -1.207  10.972  23.108  0.00  0.00    +0.000 C 
ENDBRANCH  19  23
ENDBRANCH  15  16
ENDBRANCH  14  15
ENDBRANCH  13  14
ENDBRANCH   1  13
TORSDOF 12
ENDMDL
MODEL 2
REMARK VINA RESULT:      -6.5      3.326      8.396
REMARK  Name = 
REMARK  15 active torsions:
REMARK  status: ('A' for Active; 'I' for Inactive)
REMARK    1  A    between atoms: C_1  and  C_2
REMARK    2  A    between atoms: C_2  and  C_3
REMARK    3  A    between atoms: C_3  and  C_5
REMARK    4  A    between atoms: C_5  and  C_6
REMARK    5  A    between atoms: C_5  and  C_21
REMARK    6  A    between atoms: C_6  and  C_7
REMARK    7  A    between atoms: C_7  and  O_8
REMARK    8  A    between atoms: O_8  and  C_9
REMARK    9  A    between atoms: C_9  and  C_10
REMARK   10  A    between atoms: C_10  and  O_11
REMARK   11  A    between atoms: O_11  and  C_12
REMARK   12  A    between atoms: C_15  and  O_16
REMARK   13  A    between atoms: O_16  and  C_17
REMARK   14  A    between atoms: C_21  and  C_23
REMARK   15  A    between atoms: C_23  and  C_24
REMARK                            x       y       z     vdW  Elec       q    Type
REMARK                         _______ _______ _______ _____ _____    ______ ____
ROOT
ATOM      1  O   UNL     1       6.635   4.878  18.857  0.00  0.00    +0.000 OA
ENDROOT
BRANCH   1   2
ATOM      2  C   UNL     1       5.575   4.202  18.184  0.00  0.00    +0.000 C 
BRANCH   2   3
ATOM      3  C   UNL     1       4.474   3.853  19.184  0.00  0.00    +0.000 C 
BRANCH   3   4
ATOM      4  C   UNL     1       3.577   5.052  19.528  0.00  0.00    +0.000 C 
BRANCH   4   5
ATOM      5  C   UNL     1       2.571   4.720  20.627  0.00  0.00    +0.000 C 
ATOM      6  O   UNL     1       1.739   5.542  21.015  0.00  0.00    +0.000 OA
BRANCH   5   8
ATOM      7  C   UNL     1       1.178   2.821  21.491  0.00  0.00    +0.000 C 
ATOM      8  C   UNL     1       2.585   3.304  21.178  0.00  0.00    +0.000 C 
ENDBRANCH   5   8
ENDBRANCH   4   5
BRANCH   4   9
ATOM      9  C   UNL     1       2.927   5.603  18.267  0.00  0.00    +0.000 C 
ATOM     10  O   UNL     1       2.164   4.914  17.588  0.00  0.00    +0.000 OA
BRANCH   9  11
ATOM     11  C   UNL     1       3.230   7.048  17.908  0.00  0.00    +0.000 C 
ATOM     12  C   UNL     1       2.241   8.020  18.528  0.00  0.00    +0.000 C 
ENDBRANCH   9  11
ENDBRANCH   4   9
ENDBRANCH   3   4
ENDBRANCH   2   3
ENDBRANCH   1   2
BRANCH   1  13
ATOM     13  C   UNL     1       7.328   5.803  18.005  0.00  0.00    +0.000 C 
BRANCH  13  14
ATOM     14  C   UNL     1       6.627   6.059  16.668  0.00  0.00    +0.000 C 
BRANCH  14  15
ATOM     15  O   UNL     1       7.485   5.704  15.580  0.00  0.00    +0.000 OA
BRANCH  15  16
ATOM     16  C   UNL     1       6.923   4.954  14.574  0.00  0.00    +0.000 A 
ATOM     17  C   UNL     1       5.771   4.179  14.728  0.00  0.00    +0.000 A 
ATOM     18  C   UNL     1       5.252   3.456  13.659  0.00  0.00    +0.000 A 
ATOM     19  C   UNL     1       5.876   3.477  12.414  0.00  0.00    +0.000 A 
ATOM     20  C   UNL     1       7.030   4.243  12.239  0.00  0.00    +0.000 A 
ATOM     21  C   UNL     1       7.552   4.978  13.315  0.00  0.00    +0.000 A 
ATOM     22 CL   UNL     1       8.983   5.908  13.037  0.00  0.00    +0.000 Cl
BRANCH  19  23
ATOM     23  O   UNL     1       5.255   2.711  11.470  0.00  0.00    +0.000 OA
ATOM     24  C   UNL     1       3.930   3.073  11.106  0.00  0.00    +0.000 C 
ENDBRANCH  19  23
ENDBRANCH  15  16
ENDBRANCH  14  15
ENDBRANCH  13  14
ENDBRANCH   1  13
TORSDOF 12
ENDMDL
MODEL 3
REMARK VINA RESULT:      -6.5      2.723      4.100
REMARK  Name = 
REMARK  15 active torsions:
REMARK  status: ('A' for Active; 'I' for Inactive)
REMARK    1  A    between atoms: C_1  and  C_2
REMARK    2  A    between atoms: C_2  and  C_3
REMARK    3  A    between atoms: C_3  and  C_5
REMARK    4  A    between atoms: C_5  and  C_6
REMARK    5  A    between atoms: C_5  and  C_21
REMARK    6  A    between atoms: C_6  and  C_7
REMARK    7  A    between atoms: C_7  and  O_8
REMARK    8  A    between atoms: O_8  and  C_9
REMARK    9  A    between atoms: C_9  and  C_10
REMARK   10  A    between atoms: C_10  and  O_11
REMARK   11  A    between atoms: O_11  and  C_12
REMARK   12  A    between atoms: C_15  and  O_16
REMARK   13  A    between atoms: O_16  and  C_17
REMARK   14  A    between atoms: C_21  and  C_23
REMARK   15  A    between atoms: C_23  and  C_24
REMARK                            x       y       z     vdW  Elec       q    Type
REMARK                         _______ _______ _______ _____ _____    ______ ____
ROOT
ATOM      1  O   UNL     1       4.902   2.872  20.003  0.00  0.00    +0.000 OA
ENDROOT
BRANCH   1   2
ATOM      2  C   UNL     1       5.452   4.067  19.452  0.00  0.00    +0.000 C 
BRANCH   2   3
ATOM      3  C   UNL     1       5.280   4.057  17.935  0.00  0.00    +0.000 C 
BRANCH   3   4
ATOM      4  C   UNL     1       5.828   5.326  17.263  0.00  0.00    +0.000 C 
BRANCH   4   5
ATOM      5  C   UNL     1       5.395   5.437  15.804  0.00  0.00    +0.000 C 
ATOM      6  O   UNL     1       5.299   6.526  15.236  0.00  0.00    +0.000 OA
BRANCH   5   8
ATOM      7  C   UNL     1       6.136   3.982  13.898  0.00  0.00    +0.000 C 
ATOM      8  C   UNL     1       5.156   4.140  15.049  0.00  0.00    +0.000 C 
ENDBRANCH   5   8
ENDBRANCH   4   5
BRANCH   4   9
ATOM      9  C   UNL     1       7.336   5.412  17.449  0.00  0.00    +0.000 C 
ATOM     10  O   UNL     1       8.090   4.579  16.943  0.00  0.00    +0.000 OA
BRANCH   9  11
ATOM     11  C   UNL     1       7.868   6.589  18.250  0.00  0.00    +0.000 C 
ATOM     12  C   UNL     1       7.630   7.918  17.557  0.00  0.00    +0.000 C 
ENDBRANCH   9  11
ENDBRANCH   4   9
ENDBRANCH   3   4
ENDBRANCH   2   3
ENDBRANCH   1   2
BRANCH   1  13
ATOM     13  C   UNL     1       3.787   2.377  19.247  0.00  0.00    +0.000 C 
BRANCH  13  14
ATOM     14  C   UNL     1       2.524   2.150  20.082  0.00  0.00    +0.000 C 
BRANCH  14  15
ATOM     15  O   UNL     1       1.449   2.955  19.588  0.00  0.00    +0.000 OA
BRANCH  15  16
ATOM     16  C   UNL     1       1.715   4.293  19.412  0.00  0.00    +0.000 A 
ATOM     17  C   UNL     1       1.788   5.219  20.456  0.00  0.00    +0.000 A 
ATOM     18  C   UNL     1       2.075   6.556  20.200  0.00  0.00    +0.000 A 
ATOM     19  C   UNL     1       2.283   7.005  18.899  0.00  0.00    +0.000 A 
ATOM     20  C   UNL     1       2.211   6.096  17.841  0.00  0.00    +0.000 A 
ATOM     21  C   UNL     1       1.928   4.746  18.097  0.00  0.00    +0.000 A 
ATOM     22 CL   UNL     1       1.853   3.668  16.746  0.00  0.00    +0.000 Cl
BRANCH  19  23
ATOM     23  O   UNL     1       2.544   8.342  18.809  0.00  0.00    +0.000 OA
ATOM     24  C   UNL     1       1.725   9.108  17.938  0.00  0.00    +0.000 C 
ENDBRANCH  19  23
ENDBRANCH  15  16
ENDBRANCH  14  15
ENDBRANCH  13  14
ENDBRANCH   1  13
TORSDOF 12
ENDMDL
MODEL 4
REMARK VINA RESULT:      -6.3      0.951      1.152
REMARK  Name = 
REMARK  15 active torsions:
REMARK  status: ('A' for Active; 'I' for Inactive)
REMARK    1  A    between atoms: C_1  and  C_2
REMARK    2  A    between atoms: C_2  and  C_3
REMARK    3  A    between atoms: C_3  and  C_5
REMARK    4  A    between atoms: C_5  and  C_6
REMARK    5  A    between atoms: C_5  and  C_21
REMARK    6  A    between atoms: C_6  and  C_7
REMARK    7  A    between atoms: C_7  and  O_8
REMARK    8  A    between atoms: O_8  and  C_9
REMARK    9  A    between atoms: C_9  and  C_10
REMARK   10  A    between atoms: C_10  and  O_11
REMARK   11  A    between atoms: O_11  and  C_12
REMARK   12  A    between atoms: C_15  and  O_16
REMARK   13  A    between atoms: O_16  and  C_17
REMARK   14  A    between atoms: C_21  and  C_23
REMARK   15  A    between atoms: C_23  and  C_24
REMARK                            x       y       z     vdW  Elec       q    Type
REMARK                         _______ _______ _______ _____ _____    ______ ____
ROOT
ATOM      1  O   UNL     1       3.102   3.511  18.715  0.00  0.00    +0.000 OA
ENDROOT
BRANCH   1   2
ATOM      2  C   UNL     1       4.221   3.105  17.930  0.00  0.00    +0.000 C 
BRANCH   2   3
ATOM      3  C   UNL     1       4.498   4.153  16.854  0.00  0.00    +0.000 C 
BRANCH   3   4
ATOM      4  C   UNL     1       5.928   4.073  16.297  0.00  0.00    +0.000 C 
BRANCH   4   5
ATOM      5  C   UNL     1       6.954   4.665  17.260  0.00  0.00    +0.000 C 
ATOM      6  O   UNL     1       8.085   4.190  17.376  0.00  0.00    +0.000 OA
BRANCH   5   8
ATOM      7  C   UNL     1       7.765   6.749  18.396  0.00  0.00    +0.000 C 
ATOM      8  C   UNL     1       6.550   5.916  18.022  0.00  0.00    +0.000 C 
ENDBRANCH   5   8
ENDBRANCH   4   5
BRANCH   4   9
ATOM      9  C   UNL     1       5.988   4.687  14.906  0.00  0.00    +0.000 C 
ATOM     10  O   UNL     1       6.595   5.738  14.698  0.00  0.00    +0.000 OA
BRANCH   9  11
ATOM     11  C   UNL     1       5.302   3.926  13.784  0.00  0.00    +0.000 C 
ATOM     12  C   UNL     1       6.244   3.608  12.637  0.00  0.00    +0.000 C 
ENDBRANCH   9  11
ENDBRANCH   4   9
ENDBRANCH   3   4
ENDBRANCH   2   3
ENDBRANCH   1   2
BRANCH   1  13
ATOM     13  C   UNL     1       2.620   4.815  18.357  0.00  0.00    +0.000 C 
BRANCH  13  14
ATOM     14  C   UNL     1       2.368   5.734  19.556  0.00  0.00    +0.000 C 
BRANCH  14  15
ATOM     15  O   UNL     1       2.546   7.103  19.181  0.00  0.00    +0.000 OA
BRANCH  15  16
ATOM     16  C   UNL     1       1.789   8.029  19.860  0.00  0.00    +0.000 A 
ATOM     17  C   UNL     1       1.332   7.854  21.169  0.00  0.00    +0.000 A 
ATOM     18  C   UNL     1       0.581   8.843  21.797  0.00  0.00    +0.000 A 
ATOM     19  C   UNL     1       0.257  10.023  21.133  0.00  0.00    +0.000 A 
ATOM     20  C   UNL     1       0.701  10.215  19.823  0.00  0.00    +0.000 A 
ATOM     21  C   UNL     1       1.464   9.221  19.190  0.00  0.00    +0.000 A 
ATOM     22 CL   UNL     1       1.986   9.518  17.567  0.00  0.00    +0.000 Cl
BRANCH  19  23
ATOM     23  O   UNL     1      -0.491  10.890  21.876  0.00  0.00    +0.000 OA
ATOM     24  C   UNL     1      -0.956  10.432  23.137  0.00  0.00    +0.000 C 
ENDBRANCH  19  23
ENDBRANCH  15  16
ENDBRANCH  14  15
ENDBRANCH  13  14
ENDBRANCH   1  13
TORSDOF 12
ENDMDL
MODEL 5
REMARK VINA RESULT:      -6.3      2.344      4.449
REMARK  Name = 
REMARK  15 active torsions:
REMARK  status: ('A' for Active; 'I' for Inactive)
REMARK    1  A    between atoms: C_1  and  C_2
REMARK    2  A    between atoms: C_2  and  C_3
REMARK    3  A    between atoms: C_3  and  C_5
REMARK    4  A    between atoms: C_5  and  C_6
REMARK    5  A    between atoms: C_5  and  C_21
REMARK    6  A    between atoms: C_6  and  C_7
REMARK    7  A    between atoms: C_7  and  O_8
REMARK    8  A    between atoms: O_8  and  C_9
REMARK    9  A    between atoms: C_9  and  C_10
REMARK   10  A    between atoms: C_10  and  O_11
REMARK   11  A    between atoms: O_11  and  C_12
REMARK   12  A    between atoms: C_15  and  O_16
REMARK   13  A    between atoms: O_16  and  C_17
REMARK   14  A    between atoms: C_21  and  C_23
REMARK   15  A    between atoms: C_23  and  C_24
REMARK                            x       y       z     vdW  Elec       q    Type
REMARK                         _______ _______ _______ _____ _____    ______ ____
ROOT
ATOM      1  O   UNL     1       5.136   3.044  18.715  0.00  0.00    +0.000 OA
ENDROOT
BRANCH   1   2
ATOM      2  C   UNL     1       4.882   3.364  17.348  0.00  0.00    +0.000 C 
BRANCH   2   3
ATOM      3  C   UNL     1       6.156   3.905  16.703  0.00  0.00    +0.000 C 
BRANCH   3   4
ATOM      4  C   UNL     1       5.880   5.001  15.662  0.00  0.00    +0.000 C 
BRANCH   4   5
ATOM      5  C   UNL     1       6.726   4.825  14.404  0.00  0.00    +0.000 C 
ATOM      6  O   UNL     1       7.765   5.463  14.226  0.00  0.00    +0.000 OA
BRANCH   5   8
ATOM      7  C   UNL     1       6.939   3.979  12.052  0.00  0.00    +0.000 C 
ATOM      8  C   UNL     1       6.275   3.774  13.404  0.00  0.00    +0.000 C 
ENDBRANCH   5   8
ENDBRANCH   4   5
BRANCH   4   9
ATOM      9  C   UNL     1       6.025   6.377  16.294  0.00  0.00    +0.000 C 
ATOM     10  O   UNL     1       5.358   7.335  15.899  0.00  0.00    +0.000 OA
BRANCH   9  11
ATOM     11  C   UNL     1       6.996   6.506  17.456  0.00  0.00    +0.000 C 
ATOM     12  C   UNL     1       7.669   7.866  17.501  0.00  0.00    +0.000 C 
ENDBRANCH   9  11
ENDBRANCH   4   9
ENDBRANCH   3   4
ENDBRANCH   2   3
ENDBRANCH   1   2
BRANCH   1  13
ATOM     13  C   UNL     1       4.109   2.222  19.290  0.00  0.00    +0.000 C 
BRANCH  13  14
ATOM     14  C   UNL     1       2.977   1.875  18.318  0.00  0.00    +0.000 C 
BRANCH  14  15
ATOM     15  O   UNL     1       1.758   2.498  18.733  0.00  0.00    +0.000 OA
BRANCH  15  16
ATOM     16  C   UNL     1       1.829   3.833  19.056  0.00  0.00    +0.000 A 
ATOM     17  C   UNL     1       2.100   4.846  18.132  0.00  0.00    +0.000 A 
ATOM     18  C   UNL     1       2.144   6.178  18.532  0.00  0.00    +0.000 A 
ATOM     19  C   UNL     1       1.931   6.532  19.862  0.00  0.00    +0.000 A 
ATOM     20  C   UNL     1       1.662   5.533  20.801  0.00  0.00    +0.000 A 
ATOM     21  C   UNL     1       1.612   4.190  20.399  0.00  0.00    +0.000 A 
ATOM     22 CL   UNL     1       1.273   2.999  21.607  0.00  0.00    +0.000 Cl
BRANCH  19  23
ATOM     23  O   UNL     1       2.016   7.873  20.099  0.00  0.00    +0.000 OA
ATOM     24  C   UNL     1       1.301   8.383  21.216  0.00  0.00    +0.000 C 
ENDBRANCH  19  23
ENDBRANCH  15  16
ENDBRANCH  14  15
ENDBRANCH  13  14
ENDBRANCH   1  13
TORSDOF 12
ENDMDL
MODEL 6
REMARK VINA RESULT:      -6.2      1.180      2.811
REMARK  Name = 
REMARK  15 active torsions:
REMARK  status: ('A' for Active; 'I' for Inactive)
REMARK    1  A    between atoms: C_1  and  C_2
REMARK    2  A    between atoms: C_2  and  C_3
REMARK    3  A    between atoms: C_3  and  C_5
REMARK    4  A    between atoms: C_5  and  C_6
REMARK    5  A    between atoms: C_5  and  C_21
REMARK    6  A    between atoms: C_6  and  C_7
REMARK    7  A    between atoms: C_7  and  O_8
REMARK    8  A    between atoms: O_8  and  C_9
REMARK    9  A    between atoms: C_9  and  C_10
REMARK   10  A    between atoms: C_10  and  O_11
REMARK   11  A    between atoms: O_11  and  C_12
REMARK   12  A    between atoms: C_15  and  O_16
REMARK   13  A    between atoms: O_16  and  C_17
REMARK   14  A    between atoms: C_21  and  C_23
REMARK   15  A    between atoms: C_23  and  C_24
REMARK                            x       y       z     vdW  Elec       q    Type
REMARK                         _______ _______ _______ _____ _____    ______ ____
ROOT
ATOM      1  O   UNL     1       3.481   3.965  18.159  0.00  0.00    +0.000 OA
ENDROOT
BRANCH   1   2
ATOM      2  C   UNL     1       4.886   4.002  17.920  0.00  0.00    +0.000 C 
BRANCH   2   3
ATOM      3  C   UNL     1       5.148   4.082  16.418  0.00  0.00    +0.000 C 
BRANCH   3   4
ATOM      4  C   UNL     1       6.249   5.091  16.056  0.00  0.00    +0.000 C 
BRANCH   4   5
ATOM      5  C   UNL     1       6.801   4.861  14.652  0.00  0.00    +0.000 C 
ATOM      6  O   UNL     1       7.808   5.444  14.246  0.00  0.00    +0.000 OA
BRANCH   5   8
ATOM      7  C   UNL     1       6.664   3.807  12.379  0.00  0.00    +0.000 C 
ATOM      8  C   UNL     1       6.099   3.824  13.790  0.00  0.00    +0.000 C 
ENDBRANCH   5   8
ENDBRANCH   4   5
BRANCH   4   9
ATOM      9  C   UNL     1       7.328   5.101  17.129  0.00  0.00    +0.000 C 
ATOM     10  O   UNL     1       8.060   4.127  17.308  0.00  0.00    +0.000 OA
BRANCH   9  11
ATOM     11  C   UNL     1       7.486   6.378  17.938  0.00  0.00    +0.000 C 
ATOM     12  C   UNL     1       6.837   7.575  17.268  0.00  0.00    +0.000 C 
ENDBRANCH   9  11
ENDBRANCH   4   9
ENDBRANCH   3   4
ENDBRANCH   2   3
ENDBRANCH   1   2
BRANCH   1  13
ATOM     13  C   UNL     1       3.158   3.982  19.558  0.00  0.00    +0.000 C 
BRANCH  13  14
ATOM     14  C   UNL     1       3.168   5.381  20.179  0.00  0.00    +0.000 C 
BRANCH  14  15
ATOM     15  O   UNL     1       2.645   6.339  19.254  0.00  0.00    +0.000 OA
BRANCH  15  16
ATOM     16  C   UNL     1       1.932   7.386  19.792  0.00  0.00    +0.000 A 
ATOM     17  C   UNL     1       1.369   7.372  21.070  0.00  0.00    +0.000 A 
ATOM     18  C   UNL     1       0.671   8.475  21.552  0.00  0.00    +0.000 A 
ATOM     19  C   UNL     1       0.507   9.614  20.767  0.00  0.00    +0.000 A 
ATOM     20  C   UNL     1       1.059   9.646  19.484  0.00  0.00    +0.000 A 
ATOM     21  C   UNL     1       1.769   8.537  18.999  0.00  0.00    +0.000 A 
ATOM     22 CL   UNL     1       2.431   8.638  17.405  0.00  0.00    +0.000 Cl
BRANCH  19  23
ATOM     23  O   UNL     1      -0.208  10.606  21.373  0.00  0.00    +0.000 OA
ATOM     24  C   UNL     1       0.273  11.935  21.228  0.00  0.00    +0.000 C 
ENDBRANCH  19  23
ENDBRANCH  15  16
ENDBRANCH  14  15
ENDBRANCH  13  14
ENDBRANCH   1  13
TORSDOF 12
ENDMDL
MODEL 7
REMARK VINA RESULT:      -6.0      1.677      2.000
REMARK  Name = 
REMARK  15 active torsions:
REMARK  status: ('A' for Active; 'I' for Inactive)
REMARK    1  A    between atoms: C_1  and  C_2
REMARK    2  A    between atoms: C_2  and  C_3
REMARK    3  A    between atoms: C_3  and  C_5
REMARK    4  A    between atoms: C_5  and  C_6
REMARK    5  A    between atoms: C_5  and  C_21
REMARK    6  A    between atoms: C_6  and  C_7
REMARK    7  A    between atoms: C_7  and  O_8
REMARK    8  A    between atoms: O_8  and  C_9
REMARK    9  A    between atoms: C_9  and  C_10
REMARK   10  A    between atoms: C_10  and  O_11
REMARK   11  A    between atoms: O_11  and  C_12
REMARK   12  A    between atoms: C_15  and  O_16
REMARK   13  A    between atoms: O_16  and  C_17
REMARK   14  A    between atoms: C_21  and  C_23
REMARK   15  A    between atoms: C_23  and  C_24
REMARK                            x       y       z     vdW  Elec       q    Type
REMARK                         _______ _______ _______ _____ _____    ______ ____
ROOT
ATOM      1  O   UNL     1       2.822   3.946  18.233  0.00  0.00    +0.000 OA
ENDROOT
BRANCH   1   2
ATOM      2  C   UNL     1       4.118   3.520  17.819  0.00  0.00    +0.000 C 
BRANCH   2   3
ATOM      3  C   UNL     1       4.504   4.237  16.526  0.00  0.00    +0.000 C 
BRANCH   3   4
ATOM      4  C   UNL     1       5.956   3.964  16.103  0.00  0.00    +0.000 C 
BRANCH   4   5
ATOM      5  C   UNL     1       6.961   4.666  17.013  0.00  0.00    +0.000 C 
ATOM      6  O   UNL     1       8.094   4.218  17.197  0.00  0.00    +0.000 OA
BRANCH   5   8
ATOM      7  C   UNL     1       7.534   7.090  17.317  0.00  0.00    +0.000 C 
ATOM      8  C   UNL     1       6.535   5.988  17.630  0.00  0.00    +0.000 C 
ENDBRANCH   5   8
ENDBRANCH   4   5
BRANCH   4   9
ATOM      9  C   UNL     1       6.148   4.296  14.631  0.00  0.00    +0.000 C 
ATOM     10  O   UNL     1       5.296   3.996  13.792  0.00  0.00    +0.000 OA
BRANCH   9  11
ATOM     11  C   UNL     1       7.414   5.045  14.250  0.00  0.00    +0.000 C 
ATOM     12  C   UNL     1       7.586   5.168  12.746  0.00  0.00    +0.000 C 
ENDBRANCH   9  11
ENDBRANCH   4   9
ENDBRANCH   3   4
ENDBRANCH   2   3
ENDBRANCH   1   2
BRANCH   1  13
ATOM     13  C   UNL     1       2.622   3.811  19.648  0.00  0.00    +0.000 C 
BRANCH  13  14
ATOM     14  C   UNL     1       2.019   5.054  20.310  0.00  0.00    +0.000 C 
BRANCH  14  15
ATOM     15  O   UNL     1       2.795   6.213  19.992  0.00  0.00    +0.000 OA
BRANCH  15  16
ATOM     16  C   UNL     1       2.108   7.398  19.872  0.00  0.00    +0.000 A 
ATOM     17  C   UNL     1       1.290   7.931  20.872  0.00  0.00    +0.000 A 
ATOM     18  C   UNL     1       0.635   9.144  20.683  0.00  0.00    +0.000 A 
ATOM     19  C   UNL     1       0.768   9.848  19.489  0.00  0.00    +0.000 A 
ATOM     20  C   UNL     1       1.577   9.331  18.475  0.00  0.00    +0.000 A 
ATOM     21  C   UNL     1       2.244   8.110  18.667  0.00  0.00    +0.000 A 
ATOM     22 CL   UNL     1       3.233   7.522  17.375  0.00  0.00    +0.000 Cl
BRANCH  19  23
ATOM     23  O   UNL     1       0.058  11.013  19.451  0.00  0.00    +0.000 OA
ATOM     24  C   UNL     1       0.712  12.157  18.921  0.00  0.00    +0.000 C 
ENDBRANCH  19  23
ENDBRANCH  15  16
ENDBRANCH  14  15
ENDBRANCH  13  14
ENDBRANCH   1  13
TORSDOF 12
ENDMDL
MODEL 8
REMARK VINA RESULT:      -5.9      2.798      4.191
REMARK  Name = 
REMARK  15 active torsions:
REMARK  status: ('A' for Active; 'I' for Inactive)
REMARK    1  A    between atoms: C_1  and  C_2
REMARK    2  A    between atoms: C_2  and  C_3
REMARK    3  A    between atoms: C_3  and  C_5
REMARK    4  A    between atoms: C_5  and  C_6
REMARK    5  A    between atoms: C_5  and  C_21
REMARK    6  A    between atoms: C_6  and  C_7
REMARK    7  A    between atoms: C_7  and  O_8
REMARK    8  A    between atoms: O_8  and  C_9
REMARK    9  A    between atoms: C_9  and  C_10
REMARK   10  A    between atoms: C_10  and  O_11
REMARK   11  A    between atoms: O_11  and  C_12
REMARK   12  A    between atoms: C_15  and  O_16
REMARK   13  A    between atoms: O_16  and  C_17
REMARK   14  A    between atoms: C_21  and  C_23
REMARK   15  A    between atoms: C_23  and  C_24
REMARK                            x       y       z     vdW  Elec       q    Type
REMARK                         _______ _______ _______ _____ _____    ______ ____
ROOT
ATOM      1  O   UNL     1       2.240   7.072  18.738  0.00  0.00    +0.000 OA
ENDROOT
BRANCH   1   2
ATOM      2  C   UNL     1       3.297   6.187  19.101  0.00  0.00    +0.000 C 
BRANCH   2   3
ATOM      3  C   UNL     1       3.773   5.424  17.866  0.00  0.00    +0.000 C 
BRANCH   3   4
ATOM      4  C   UNL     1       5.241   5.711  17.516  0.00  0.00    +0.000 C 
BRANCH   4   5
ATOM      5  C   UNL     1       5.509   5.590  16.018  0.00  0.00    +0.000 C 
ATOM      6  O   UNL     1       5.492   6.572  15.273  0.00  0.00    +0.000 OA
BRANCH   5   8
ATOM      7  C   UNL     1       5.571   4.100  14.001  0.00  0.00    +0.000 C 
ATOM      8  C   UNL     1       5.873   4.214  15.486  0.00  0.00    +0.000 C 
ENDBRANCH   5   8
ENDBRANCH   4   5
BRANCH   4   9
ATOM      9  C   UNL     1       6.164   4.847  18.361  0.00  0.00    +0.000 C 
ATOM     10  O   UNL     1       5.727   3.911  19.032  0.00  0.00    +0.000 OA
BRANCH   9  11
ATOM     11  C   UNL     1       7.650   5.165  18.309  0.00  0.00    +0.000 C 
ATOM     12  C   UNL     1       7.948   6.609  18.671  0.00  0.00    +0.000 C 
ENDBRANCH   9  11
ENDBRANCH   4   9
ENDBRANCH   3   4
ENDBRANCH   2   3
ENDBRANCH   1   2
BRANCH   1  13
ATOM     13  C   UNL     1       2.705   8.214  18.001  0.00  0.00    +0.000 C 
BRANCH  13  14
ATOM     14  C   UNL     1       1.602   9.220  17.658  0.00  0.00    +0.000 C 
BRANCH  14  15
ATOM     15  O   UNL     1       0.916   9.630  18.844  0.00  0.00    +0.000 OA
BRANCH  15  16
ATOM     16  C   UNL     1      -0.326  10.195  18.670  0.00  0.00    +0.000 A 
ATOM     17  C   UNL     1      -1.160   9.928  17.581  0.00  0.00    +0.000 A 
ATOM     18  C   UNL     1      -2.411  10.529  17.479  0.00  0.00    +0.000 A 
ATOM     19  C   UNL     1      -2.856  11.419  18.453  0.00  0.00    +0.000 A 
ATOM     20  C   UNL     1      -2.036  11.702  19.548  0.00  0.00    +0.000 A 
ATOM     21  C   UNL     1      -0.776  11.093  19.655  0.00  0.00    +0.000 A 
ATOM     22 CL   UNL     1       0.192  11.482  21.034  0.00  0.00    +0.000 Cl
BRANCH  19  23
ATOM     23  O   UNL     1      -4.097  11.932  18.209  0.00  0.00    +0.000 OA
ATOM     24  C   UNL     1      -4.710  11.592  16.974  0.00  0.00    +0.000 C 
ENDBRANCH  19  23
ENDBRANCH  15  16
ENDBRANCH  14  15
ENDBRANCH  13  14
ENDBRANCH   1  13
TORSDOF 12
ENDMDL
MODEL 9
REMARK VINA RESULT:      -5.9      2.039      3.345
REMARK  Name = 
REMARK  15 active torsions:
REMARK  status: ('A' for Active; 'I' for Inactive)
REMARK    1  A    between atoms: C_1  and  C_2
REMARK    2  A    between atoms: C_2  and  C_3
REMARK    3  A    between atoms: C_3  and  C_5
REMARK    4  A    between atoms: C_5  and  C_6
REMARK    5  A    between atoms: C_5  and  C_21
REMARK    6  A    between atoms: C_6  and  C_7
REMARK    7  A    between atoms: C_7  and  O_8
REMARK    8  A    between atoms: O_8  and  C_9
REMARK    9  A    between atoms: C_9  and  C_10
REMARK   10  A    between atoms: C_10  and  O_11
REMARK   11  A    between atoms: O_11  and  C_12
REMARK   12  A    between atoms: C_15  and  O_16
REMARK   13  A    between atoms: O_16  and  C_17
REMARK   14  A    between atoms: C_21  and  C_23
REMARK   15  A    between atoms: C_23  and  C_24
REMARK                            x       y       z     vdW  Elec       q    Type
REMARK                         _______ _______ _______ _____ _____    ______ ____
ROOT
ATOM      1  O   UNL     1       3.128   5.252  18.817  0.00  0.00    +0.000 OA
ENDROOT
BRANCH   1   2
ATOM      2  C   UNL     1       4.171   4.806  19.682  0.00  0.00    +0.000 C 
BRANCH   2   3
ATOM      3  C   UNL     1       5.254   4.110  18.862  0.00  0.00    +0.000 C 
BRANCH   3   4
ATOM      4  C   UNL     1       5.798   4.988  17.724  0.00  0.00    +0.000 C 
BRANCH   4   5
ATOM      5  C   UNL     1       5.348   4.494  16.352  0.00  0.00    +0.000 C 
ATOM      6  O   UNL     1       4.634   3.498  16.222  0.00  0.00    +0.000 OA
BRANCH   5   8
ATOM      7  C   UNL     1       6.549   4.495  14.149  0.00  0.00    +0.000 C 
ATOM      8  C   UNL     1       5.756   5.324  15.146  0.00  0.00    +0.000 C 
ENDBRANCH   5   8
ENDBRANCH   4   5
BRANCH   4   9
ATOM      9  C   UNL     1       7.308   5.131  17.843  0.00  0.00    +0.000 C 
ATOM     10  O   UNL     1       8.068   4.265  17.408  0.00  0.00    +0.000 OA
BRANCH   9  11
ATOM     11  C   UNL     1       7.834   6.404  18.486  0.00  0.00    +0.000 C 
ATOM     12  C   UNL     1       7.649   7.622  17.598  0.00  0.00    +0.000 C 
ENDBRANCH   9  11
ENDBRANCH   4   9
ENDBRANCH   3   4
ENDBRANCH   2   3
ENDBRANCH   1   2
BRANCH   1  13
ATOM     13  C   UNL     1       2.810   6.639  19.005  0.00  0.00    +0.000 C 
BRANCH  13  14
ATOM     14  C   UNL     1       1.839   6.902  20.160  0.00  0.00    +0.000 C 
BRANCH  14  15
ATOM     15  O   UNL     1       1.975   8.247  20.628  0.00  0.00    +0.000 OA
BRANCH  15  16
ATOM     16  C   UNL     1       1.017   9.141  20.212  0.00  0.00    +0.000 A 
ATOM     17  C   UNL     1       0.791   9.479  18.875  0.00  0.00    +0.000 A 
ATOM     18  C   UNL     1      -0.208  10.385  18.530  0.00  0.00    +0.000 A 
ATOM     19  C   UNL     1      -0.997  10.984  19.508  0.00  0.00    +0.000 A 
ATOM     20  C   UNL     1      -0.785  10.662  20.851  0.00  0.00    +0.000 A 
ATOM     21  C   UNL     1       0.218   9.745  21.201  0.00  0.00    +0.000 A 
ATOM     22 CL   UNL     1       0.431   9.385  22.879  0.00  0.00    +0.000 Cl
BRANCH  19  23
ATOM     23  O   UNL     1      -1.925  11.854  19.015  0.00  0.00    +0.000 OA
ATOM     24  C   UNL     1      -2.319  11.687  17.660  0.00  0.00    +0.000 C 
ENDBRANCH  19  23
ENDBRANCH  15  16
ENDBRANCH  14  15
ENDBRANCH  13  14
ENDBRANCH   1  13
TORSDOF 12
ENDMDL
