MODEL 1
REMARK VINA RESULT:      -8.1      0.000      0.000
REMARK  Name = 
REMARK  7 active torsions:
REMARK  status: ('A' for Active; 'I' for Inactive)
REMARK    1  A    between atoms: C_1  and  C_2
REMARK    2  A    between atoms: C_5  and  S_6
REMARK    3  A    between atoms: S_6  and  N_9
REMARK    4  A    between atoms: C_12  and  C_13
REMARK    5  A    between atoms: N_15  and  C_16
REMARK    6  A    between atoms: C_21  and  C_22
REMARK    7  A    between atoms: C_29  and  C_30
REMARK                            x       y       z     vdW  Elec       q    Type
REMARK                         _______ _______ _______ _____ _____    ______ ____
ROOT
ATOM      1  N   UNL     1      -0.400  11.844  20.735  0.00  0.00    +0.000 NA
ATOM      2  C   UNL     1      -1.315  10.818  21.289  0.00  0.00    +0.000 C 
ATOM      3  C   UNL     1      -0.731  10.221  22.573  0.00  0.00    +0.000 C 
ATOM      4  C   UNL     1       0.679   9.650  22.357  0.00  0.00    +0.000 C 
ATOM      5  C   UNL     1       1.569  10.765  21.816  0.00  0.00    +0.000 C 
ATOM      6  C   UNL     1       1.000  11.400  20.549  0.00  0.00    +0.000 C 
ENDROOT
BRANCH   4   7
ATOM      7  C   UNL     1       0.620   8.414  21.452  0.00  0.00    +0.000 C 
ATOM      8  O   UNL     1      -0.452   7.870  21.207  0.00  0.00    +0.000 OA
ATOM      9  N   UNL     1       1.850   7.950  21.012  0.00  0.00    +0.000 N 
ATOM     10  H   UNL     1       2.672   8.272  21.509  0.00  0.00    +0.000 HD
BRANCH   9  11
ATOM     11  C   UNL     1       2.016   6.859  20.124  0.00  0.00    +0.000 A 
ATOM     12  C   UNL     1       2.480   7.014  18.819  0.00  0.00    +0.000 A 
ATOM     13  C   UNL     1       2.564   5.922  17.955  0.00  0.00    +0.000 A 
ATOM     14  C   UNL     1       2.193   4.646  18.384  0.00  0.00    +0.000 A 
ATOM     15 CL   UNL     1       2.307   3.386  17.213  0.00  0.00    +0.000 Cl
ATOM     16  C   UNL     1       1.759   4.450  19.699  0.00  0.00    +0.000 A 
ATOM     17  C   UNL     1       1.698   5.571  20.567  0.00  0.00    +0.000 A 
BRANCH  16  18
ATOM     18  C   UNL     1       1.341   3.114  20.258  0.00  0.00    +0.000 C 
ATOM     19  F   UNL     1       2.250   2.109  20.193  0.00  0.00    +0.000 F 
ATOM     20  F   UNL     1       0.991   3.209  21.573  0.00  0.00    +0.000 F 
ATOM     21  F   UNL     1       0.229   2.634  19.626  0.00  0.00    +0.000 F 
ENDBRANCH  16  18
ENDBRANCH   9  11
ENDBRANCH   4   7
BRANCH   1  22
ATOM     22  S   UNL     1      -1.059  12.814  19.473  0.00  0.00    +0.000 S 
ATOM     23  O   UNL     1      -0.236  12.633  18.297  0.00  0.00    +0.000 OA
ATOM     24  O   UNL     1      -1.267  14.149  19.999  0.00  0.00    +0.000 OA
BRANCH  22  29
ATOM     25  C   UNL     1      -6.711  10.719  18.387  0.00  0.00    +0.000 C 
ATOM     26  C   UNL     1      -5.321  11.210  18.671  0.00  0.00    +0.000 A 
ATOM     27  C   UNL     1      -5.083  12.256  19.563  0.00  0.00    +0.000 A 
ATOM     28  C   UNL     1      -3.778  12.699  19.798  0.00  0.00    +0.000 A 
ATOM     29  C   UNL     1      -2.683  12.101  19.149  0.00  0.00    +0.000 A 
ATOM     30  C   UNL     1      -2.904  11.050  18.233  0.00  0.00    +0.000 A 
ATOM     31  C   UNL     1      -1.867  10.324  17.424  0.00  0.00    +0.000 C 
ATOM     32  C   UNL     1      -4.234  10.622  18.017  0.00  0.00    +0.000 A 
ENDBRANCH  22  29
ENDBRANCH   1  22
TORSDOF 5
ENDMDL
MODEL 2
REMARK VINA RESULT:      -8.1      7.226      9.665
REMARK  Name = 
REMARK  7 active torsions:
REMARK  status: ('A' for Active; 'I' for Inactive)
REMARK    1  A    between atoms: C_1  and  C_2
REMARK    2  A    between atoms: C_5  and  S_6
REMARK    3  A    between atoms: S_6  and  N_9
REMARK    4  A    between atoms: C_12  and  C_13
REMARK    5  A    between atoms: N_15  and  C_16
REMARK    6  A    between atoms: C_21  and  C_22
REMARK    7  A    between atoms: C_29  and  C_30
REMARK                            x       y       z     vdW  Elec       q    Type
REMARK                         _______ _______ _______ _____ _____    ______ ____
ROOT
ATOM      1  N   UNL     1       5.244   4.715  18.287  0.00  0.00    +0.000 NA
ATOM      2  C   UNL     1       5.994   5.008  17.043  0.00  0.00    +0.000 C 
ATOM      3  C   UNL     1       7.499   4.849  17.279  0.00  0.00    +0.000 C 
ATOM      4  C   UNL     1       7.997   5.716  18.446  0.00  0.00    +0.000 C 
ATOM      5  C   UNL     1       7.203   5.340  19.693  0.00  0.00    +0.000 C 
ATOM      6  C   UNL     1       5.696   5.462  19.483  0.00  0.00    +0.000 C 
ENDROOT
BRANCH   4   7
ATOM      7  C   UNL     1       7.905   7.203  18.082  0.00  0.00    +0.000 C 
ATOM      8  O   UNL     1       7.196   7.576  17.153  0.00  0.00    +0.000 OA
ATOM      9  N   UNL     1       8.719   8.041  18.829  0.00  0.00    +0.000 N 
ATOM     10  H   UNL     1       9.477   7.610  19.345  0.00  0.00    +0.000 HD
BRANCH   9  11
ATOM     11  C   UNL     1       8.744   9.450  18.694  0.00  0.00    +0.000 A 
ATOM     12  C   UNL     1       8.024  10.126  17.711  0.00  0.00    +0.000 A 
ATOM     13  C   UNL     1       8.130  11.510  17.570  0.00  0.00    +0.000 A 
ATOM     14  C   UNL     1       8.957  12.250  18.418  0.00  0.00    +0.000 A 
ATOM     15 CL   UNL     1       9.033  13.946  18.119  0.00  0.00    +0.000 Cl
ATOM     16  C   UNL     1       9.665  11.607  19.439  0.00  0.00    +0.000 A 
ATOM     17  C   UNL     1       9.528  10.200  19.577  0.00  0.00    +0.000 A 
BRANCH  16  18
ATOM     18  C   UNL     1      10.579  12.315  20.407  0.00  0.00    +0.000 C 
ATOM     19  F   UNL     1      10.893  13.604  20.122  0.00  0.00    +0.000 F 
ATOM     20  F   UNL     1      10.056  12.333  21.666  0.00  0.00    +0.000 F 
ATOM     21  F   UNL     1      11.777  11.670  20.525  0.00  0.00    +0.000 F 
ENDBRANCH  16  18
ENDBRANCH   9  11
ENDBRANCH   4   7
BRANCH   1  22
ATOM     22  S   UNL     1       3.539   4.551  18.098  0.00  0.00    +0.000 S 
ATOM     23  O   UNL     1       3.077   3.573  19.058  0.00  0.00    +0.000 OA
ATOM     24  O   UNL     1       3.264   4.353  16.688  0.00  0.00    +0.000 OA
BRANCH  22  29
ATOM     25  C   UNL     1       1.169  10.065  19.322  0.00  0.00    +0.000 C 
ATOM     26  C   UNL     1       1.773   8.720  19.038  0.00  0.00    +0.000 A 
ATOM     27  C   UNL     1       2.434   8.454  17.839  0.00  0.00    +0.000 A 
ATOM     28  C   UNL     1       2.976   7.187  17.599  0.00  0.00    +0.000 A 
ATOM     29  C   UNL     1       2.872   6.162  18.557  0.00  0.00    +0.000 A 
ATOM     30  C   UNL     1       2.196   6.408  19.772  0.00  0.00    +0.000 A 
ATOM     31  C   UNL     1       1.955   5.430  20.885  0.00  0.00    +0.000 C 
ATOM     32  C   UNL     1       1.659   7.699  19.987  0.00  0.00    +0.000 A 
ENDBRANCH  22  29
ENDBRANCH   1  22
TORSDOF 5
ENDMDL
MODEL 3
REMARK VINA RESULT:      -8.1      7.245      9.771
REMARK  Name = 
REMARK  7 active torsions:
REMARK  status: ('A' for Active; 'I' for Inactive)
REMARK    1  A    between atoms: C_1  and  C_2
REMARK    2  A    between atoms: C_5  and  S_6
REMARK    3  A    between atoms: S_6  and  N_9
REMARK    4  A    between atoms: C_12  and  C_13
REMARK    5  A    between atoms: N_15  and  C_16
REMARK    6  A    between atoms: C_21  and  C_22
REMARK    7  A    between atoms: C_29  and  C_30
REMARK                            x       y       z     vdW  Elec       q    Type
REMARK                         _______ _______ _______ _____ _____    ______ ____
ROOT
ATOM      1  N   UNL     1       5.341   4.458  18.283  0.00  0.00    +0.000 NA
ATOM      2  C   UNL     1       6.154   4.738  17.076  0.00  0.00    +0.000 C 
ATOM      3  C   UNL     1       7.646   4.676  17.413  0.00  0.00    +0.000 C 
ATOM      4  C   UNL     1       8.020   5.621  18.566  0.00  0.00    +0.000 C 
ATOM      5  C   UNL     1       7.168   5.256  19.778  0.00  0.00    +0.000 C 
ATOM      6  C   UNL     1       5.673   5.282  19.467  0.00  0.00    +0.000 C 
ENDROOT
BRANCH   4   7
ATOM      7  C   UNL     1       7.872   7.082  18.126  0.00  0.00    +0.000 C 
ATOM      8  O   UNL     1       7.128   7.382  17.197  0.00  0.00    +0.000 OA
ATOM      9  N   UNL     1       8.677   7.983  18.804  0.00  0.00    +0.000 N 
ATOM     10  H   UNL     1       9.461   7.605  19.322  0.00  0.00    +0.000 HD
BRANCH   9  11
ATOM     11  C   UNL     1       8.655   9.384  18.593  0.00  0.00    +0.000 A 
ATOM     12  C   UNL     1       7.836   9.989  17.642  0.00  0.00    +0.000 A 
ATOM     13  C   UNL     1       7.895  11.365  17.419  0.00  0.00    +0.000 A 
ATOM     14  C   UNL     1       8.771  12.168  18.153  0.00  0.00    +0.000 A 
ATOM     15 CL   UNL     1       8.777  13.846  17.759  0.00  0.00    +0.000 Cl
ATOM     16  C   UNL     1       9.578  11.597  19.142  0.00  0.00    +0.000 A 
ATOM     17  C   UNL     1       9.491  10.198  19.365  0.00  0.00    +0.000 A 
BRANCH  16  18
ATOM     18  C   UNL     1      10.552  12.376  19.989  0.00  0.00    +0.000 C 
ATOM     19  F   UNL     1      10.050  13.416  20.702  0.00  0.00    +0.000 F 
ATOM     20  F   UNL     1      11.178  11.575  20.898  0.00  0.00    +0.000 F 
ATOM     21  F   UNL     1      11.555  12.911  19.232  0.00  0.00    +0.000 F 
ENDBRANCH  16  18
ENDBRANCH   9  11
ENDBRANCH   4   7
BRANCH   1  22
ATOM     22  S   UNL     1       3.663   4.190  17.996  0.00  0.00    +0.000 S 
ATOM     23  O   UNL     1       3.304   2.928  18.606  0.00  0.00    +0.000 OA
ATOM     24  O   UNL     1       3.415   4.395  16.582  0.00  0.00    +0.000 OA
BRANCH  22  29
ATOM     25  C   UNL     1       0.921   8.531  21.334  0.00  0.00    +0.000 C 
ATOM     26  C   UNL     1       1.571   7.468  20.498  0.00  0.00    +0.000 A 
ATOM     27  C   UNL     1       1.524   6.122  20.860  0.00  0.00    +0.000 A 
ATOM     28  C   UNL     1       2.149   5.155  20.066  0.00  0.00    +0.000 A 
ATOM     29  C   UNL     1       2.829   5.515  18.889  0.00  0.00    +0.000 A 
ATOM     30  C   UNL     1       2.899   6.874  18.511  0.00  0.00    +0.000 A 
ATOM     31  C   UNL     1       3.609   7.443  17.317  0.00  0.00    +0.000 C 
ATOM     32  C   UNL     1       2.256   7.828  19.332  0.00  0.00    +0.000 A 
ENDBRANCH  22  29
ENDBRANCH   1  22
TORSDOF 5
ENDMDL
MODEL 4
REMARK VINA RESULT:      -8.0      4.090      5.170
REMARK  Name = 
REMARK  7 active torsions:
REMARK  status: ('A' for Active; 'I' for Inactive)
REMARK    1  A    between atoms: C_1  and  C_2
REMARK    2  A    between atoms: C_5  and  S_6
REMARK    3  A    between atoms: S_6  and  N_9
REMARK    4  A    between atoms: C_12  and  C_13
REMARK    5  A    between atoms: N_15  and  C_16
REMARK    6  A    between atoms: C_21  and  C_22
REMARK    7  A    between atoms: C_29  and  C_30
REMARK                            x       y       z     vdW  Elec       q    Type
REMARK                         _______ _______ _______ _____ _____    ______ ____
ROOT
ATOM      1  N   UNL     1       1.357  12.555  19.590  0.00  0.00    +0.000 NA
ATOM      2  C   UNL     1       1.233  11.545  18.513  0.00  0.00    +0.000 C 
ATOM      3  C   UNL     1      -0.035  10.708  18.710  0.00  0.00    +0.000 C 
ATOM      4  C   UNL     1      -0.085  10.049  20.098  0.00  0.00    +0.000 C 
ATOM      5  C   UNL     1       0.018  11.148  21.152  0.00  0.00    +0.000 C 
ATOM      6  C   UNL     1       1.259  12.018  20.967  0.00  0.00    +0.000 C 
ENDROOT
BRANCH   4   7
ATOM      7  C   UNL     1       1.004   8.977  20.218  0.00  0.00    +0.000 C 
ATOM      8  O   UNL     1       1.488   8.697  21.310  0.00  0.00    +0.000 OA
ATOM      9  N   UNL     1       1.421   8.427  19.015  0.00  0.00    +0.000 N 
ATOM     10  H   UNL     1       1.190   8.935  18.169  0.00  0.00    +0.000 HD
BRANCH   9  11
ATOM     11  C   UNL     1       2.373   7.385  18.906  0.00  0.00    +0.000 A 
ATOM     12  C   UNL     1       2.516   6.391  19.872  0.00  0.00    +0.000 A 
ATOM     13  C   UNL     1       3.513   5.421  19.760  0.00  0.00    +0.000 A 
ATOM     14  C   UNL     1       4.385   5.421  18.669  0.00  0.00    +0.000 A 
ATOM     15 CL   UNL     1       5.597   4.195  18.663  0.00  0.00    +0.000 Cl
ATOM     16  C   UNL     1       4.244   6.382  17.662  0.00  0.00    +0.000 A 
ATOM     17  C   UNL     1       3.212   7.349  17.787  0.00  0.00    +0.000 A 
BRANCH  16  18
ATOM     18  C   UNL     1       5.131   6.464  16.446  0.00  0.00    +0.000 C 
ATOM     19  F   UNL     1       5.353   5.309  15.770  0.00  0.00    +0.000 F 
ATOM     20  F   UNL     1       4.637   7.341  15.525  0.00  0.00    +0.000 F 
ATOM     21  F   UNL     1       6.371   6.940  16.764  0.00  0.00    +0.000 F 
ENDBRANCH  16  18
ENDBRANCH   9  11
ENDBRANCH   4   7
BRANCH   1  22
ATOM     22  S   UNL     1       2.558  13.762  19.333  0.00  0.00    +0.000 S 
ATOM     23  O   UNL     1       3.414  13.316  18.255  0.00  0.00    +0.000 OA
ATOM     24  O   UNL     1       3.143  14.090  20.619  0.00  0.00    +0.000 OA
BRANCH  22  29
ATOM     25  C   UNL     1      -0.785  18.628  17.701  0.00  0.00    +0.000 C 
ATOM     26  C   UNL     1       0.037  17.428  18.073  0.00  0.00    +0.000 A 
ATOM     27  C   UNL     1      -0.551  16.265  18.570  0.00  0.00    +0.000 A 
ATOM     28  C   UNL     1       0.242  15.167  18.919  0.00  0.00    +0.000 A 
ATOM     29  C   UNL     1       1.640  15.208  18.772  0.00  0.00    +0.000 A 
ATOM     30  C   UNL     1       2.256  16.381  18.283  0.00  0.00    +0.000 A 
ATOM     31  C   UNL     1       3.727  16.618  18.099  0.00  0.00    +0.000 C 
ATOM     32  C   UNL     1       1.428  17.474  17.937  0.00  0.00    +0.000 A 
ENDBRANCH  22  29
ENDBRANCH   1  22
TORSDOF 5
ENDMDL
MODEL 5
REMARK VINA RESULT:      -7.9      3.517      4.593
REMARK  Name = 
REMARK  7 active torsions:
REMARK  status: ('A' for Active; 'I' for Inactive)
REMARK    1  A    between atoms: C_1  and  C_2
REMARK    2  A    between atoms: C_5  and  S_6
REMARK    3  A    between atoms: S_6  and  N_9
REMARK    4  A    between atoms: C_12  and  C_13
REMARK    5  A    between atoms: N_15  and  C_16
REMARK    6  A    between atoms: C_21  and  C_22
REMARK    7  A    between atoms: C_29  and  C_30
REMARK                            x       y       z     vdW  Elec       q    Type
REMARK                         _______ _______ _______ _____ _____    ______ ____
ROOT
ATOM      1  N   UNL     1       1.405  12.537  19.548  0.00  0.00    +0.000 NA
ATOM      2  C   UNL     1       1.175  11.666  18.372  0.00  0.00    +0.000 C 
ATOM      3  C   UNL     1      -0.074  10.804  18.584  0.00  0.00    +0.000 C 
ATOM      4  C   UNL     1       0.004   9.980  19.879  0.00  0.00    +0.000 C 
ATOM      5  C   UNL     1       0.211  10.942  21.045  0.00  0.00    +0.000 C 
ATOM      6  C   UNL     1       1.434  11.836  20.852  0.00  0.00    +0.000 C 
ENDROOT
BRANCH   4   7
ATOM      7  C   UNL     1       1.093   8.908  19.764  0.00  0.00    +0.000 C 
ATOM      8  O   UNL     1       1.644   8.467  20.768  0.00  0.00    +0.000 OA
ATOM      9  N   UNL     1       1.431   8.550  18.468  0.00  0.00    +0.000 N 
ATOM     10  H   UNL     1       1.148   9.180  17.726  0.00  0.00    +0.000 HD
BRANCH   9  11
ATOM     11  C   UNL     1       2.369   7.542  18.141  0.00  0.00    +0.000 A 
ATOM     12  C   UNL     1       3.658   7.828  17.694  0.00  0.00    +0.000 A 
ATOM     13  C   UNL     1       4.529   6.806  17.317  0.00  0.00    +0.000 A 
ATOM     14  C   UNL     1       4.129   5.469  17.388  0.00  0.00    +0.000 A 
ATOM     15 CL   UNL     1       5.281   4.301  16.859  0.00  0.00    +0.000 Cl
ATOM     16  C   UNL     1       2.856   5.146  17.868  0.00  0.00    +0.000 A 
ATOM     17  C   UNL     1       1.992   6.200  18.263  0.00  0.00    +0.000 A 
BRANCH  16  18
ATOM     18  C   UNL     1       2.333   3.737  17.986  0.00  0.00    +0.000 C 
ATOM     19  F   UNL     1       1.058   3.591  18.428  0.00  0.00    +0.000 F 
ATOM     20  F   UNL     1       2.385   3.082  16.791  0.00  0.00    +0.000 F 
ATOM     21  F   UNL     1       3.096   2.990  18.837  0.00  0.00    +0.000 F 
ENDBRANCH  16  18
ENDBRANCH   9  11
ENDBRANCH   4   7
BRANCH   1  22
ATOM     22  S   UNL     1       2.584  13.774  19.329  0.00  0.00    +0.000 S 
ATOM     23  O   UNL     1       3.474  13.357  18.268  0.00  0.00    +0.000 OA
ATOM     24  O   UNL     1       3.131  14.104  20.631  0.00  0.00    +0.000 OA
BRANCH  22  29
ATOM     25  C   UNL     1      -0.824  18.586  17.671  0.00  0.00    +0.000 C 
ATOM     26  C   UNL     1       0.013  17.399  18.050  0.00  0.00    +0.000 A 
ATOM     27  C   UNL     1      -0.558  16.239  18.573  0.00  0.00    +0.000 A 
ATOM     28  C   UNL     1       0.249  15.153  18.927  0.00  0.00    +0.000 A 
ATOM     29  C   UNL     1       1.645  15.204  18.760  0.00  0.00    +0.000 A 
ATOM     30  C   UNL     1       2.243  16.374  18.244  0.00  0.00    +0.000 A 
ATOM     31  C   UNL     1       3.710  16.621  18.035  0.00  0.00    +0.000 C 
ATOM     32  C   UNL     1       1.402  17.455  17.893  0.00  0.00    +0.000 A 
ENDBRANCH  22  29
ENDBRANCH   1  22
TORSDOF 5
ENDMDL
MODEL 6
REMARK VINA RESULT:      -7.9      1.046      1.424
REMARK  Name = 
REMARK  7 active torsions:
REMARK  status: ('A' for Active; 'I' for Inactive)
REMARK    1  A    between atoms: C_1  and  C_2
REMARK    2  A    between atoms: C_5  and  S_6
REMARK    3  A    between atoms: S_6  and  N_9
REMARK    4  A    between atoms: C_12  and  C_13
REMARK    5  A    between atoms: N_15  and  C_16
REMARK    6  A    between atoms: C_21  and  C_22
REMARK    7  A    between atoms: C_29  and  C_30
REMARK                            x       y       z     vdW  Elec       q    Type
REMARK                         _______ _______ _______ _____ _____    ______ ____
ROOT
ATOM      1  N   UNL     1      -0.219  11.675  21.148  0.00  0.00    +0.000 NA
ATOM      2  C   UNL     1      -1.222  10.663  21.555  0.00  0.00    +0.000 C 
ATOM      3  C   UNL     1      -0.764   9.941  22.826  0.00  0.00    +0.000 C 
ATOM      4  C   UNL     1       0.628   9.311  22.666  0.00  0.00    +0.000 C 
ATOM      5  C   UNL     1       1.610  10.413  22.277  0.00  0.00    +0.000 C 
ATOM      6  C   UNL     1       1.168  11.170  21.026  0.00  0.00    +0.000 C 
ENDROOT
BRANCH   4   7
ATOM      7  C   UNL     1       0.576   8.151  21.665  0.00  0.00    +0.000 C 
ATOM      8  O   UNL     1      -0.498   7.657  21.337  0.00  0.00    +0.000 OA
ATOM      9  N   UNL     1       1.810   7.689  21.237  0.00  0.00    +0.000 N 
ATOM     10  H   UNL     1       2.619   7.950  21.789  0.00  0.00    +0.000 HD
BRANCH   9  11
ATOM     11  C   UNL     1       1.986   6.667  20.273  0.00  0.00    +0.000 A 
ATOM     12  C   UNL     1       2.482   6.913  18.994  0.00  0.00    +0.000 A 
ATOM     13  C   UNL     1       2.574   5.888  18.052  0.00  0.00    +0.000 A 
ATOM     14  C   UNL     1       2.179   4.588  18.375  0.00  0.00    +0.000 A 
ATOM     15 CL   UNL     1       2.307   3.419  17.115  0.00  0.00    +0.000 Cl
ATOM     16  C   UNL     1       1.713   4.299  19.662  0.00  0.00    +0.000 A 
ATOM     17  C   UNL     1       1.643   5.353  20.610  0.00  0.00    +0.000 A 
BRANCH  16  18
ATOM     18  C   UNL     1       1.267   2.930  20.109  0.00  0.00    +0.000 C 
ATOM     19  F   UNL     1       2.170   1.924  19.996  0.00  0.00    +0.000 F 
ATOM     20  F   UNL     1       0.880   2.932  21.417  0.00  0.00    +0.000 F 
ATOM     21  F   UNL     1       0.171   2.510  19.411  0.00  0.00    +0.000 F 
ENDBRANCH  16  18
ENDBRANCH   9  11
ENDBRANCH   4   7
BRANCH   1  22
ATOM     22  S   UNL     1      -0.734  12.771  19.923  0.00  0.00    +0.000 S 
ATOM     23  O   UNL     1       0.447  13.335  19.306  0.00  0.00    +0.000 OA
ATOM     24  O   UNL     1      -1.727  13.654  20.503  0.00  0.00    +0.000 OA
BRANCH  22  29
ATOM     25  C   UNL     1      -3.742   9.548  15.670  0.00  0.00    +0.000 C 
ATOM     26  C   UNL     1      -3.010  10.318  16.731  0.00  0.00    +0.000 A 
ATOM     27  C   UNL     1      -3.599  11.397  17.389  0.00  0.00    +0.000 A 
ATOM     28  C   UNL     1      -2.888  12.102  18.366  0.00  0.00    +0.000 A 
ATOM     29  C   UNL     1      -1.574  11.736  18.709  0.00  0.00    +0.000 A 
ATOM     30  C   UNL     1      -0.955  10.654  18.046  0.00  0.00    +0.000 A 
ATOM     31  C   UNL     1       0.444  10.150  18.252  0.00  0.00    +0.000 C 
ATOM     32  C   UNL     1      -1.699   9.960  17.064  0.00  0.00    +0.000 A 
ENDBRANCH  22  29
ENDBRANCH   1  22
TORSDOF 5
ENDMDL
MODEL 7
REMARK VINA RESULT:      -7.8      5.054      8.838
REMARK  Name = 
REMARK  7 active torsions:
REMARK  status: ('A' for Active; 'I' for Inactive)
REMARK    1  A    between atoms: C_1  and  C_2
REMARK    2  A    between atoms: C_5  and  S_6
REMARK    3  A    between atoms: S_6  and  N_9
REMARK    4  A    between atoms: C_12  and  C_13
REMARK    5  A    between atoms: N_15  and  C_16
REMARK    6  A    between atoms: C_21  and  C_22
REMARK    7  A    between atoms: C_29  and  C_30
REMARK                            x       y       z     vdW  Elec       q    Type
REMARK                         _______ _______ _______ _____ _____    ______ ____
ROOT
ATOM      1  N   UNL     1      -0.083  10.216  19.517  0.00  0.00    +0.000 NA
ATOM      2  C   UNL     1      -1.310   9.615  18.944  0.00  0.00    +0.000 C 
ATOM      3  C   UNL     1      -1.727  10.362  17.674  0.00  0.00    +0.000 C 
ATOM      4  C   UNL     1      -1.909  11.868  17.921  0.00  0.00    +0.000 C 
ATOM      5  C   UNL     1      -0.602  12.422  18.481  0.00  0.00    +0.000 C 
ATOM      6  C   UNL     1      -0.144  11.680  19.734  0.00  0.00    +0.000 C 
ENDROOT
BRANCH   4   7
ATOM      7  C   UNL     1      -3.121  12.116  18.827  0.00  0.00    +0.000 C 
ATOM      8  O   UNL     1      -4.173  11.512  18.642  0.00  0.00    +0.000 OA
ATOM      9  N   UNL     1      -2.942  13.097  19.790  0.00  0.00    +0.000 N 
ATOM     10  H   UNL     1      -2.167  13.736  19.662  0.00  0.00    +0.000 HD
BRANCH   9  11
ATOM     11  C   UNL     1      -3.913  13.442  20.762  0.00  0.00    +0.000 A 
ATOM     12  C   UNL     1      -4.956  14.329  20.504  0.00  0.00    +0.000 A 
ATOM     13  C   UNL     1      -5.851  14.695  21.509  0.00  0.00    +0.000 A 
ATOM     14  C   UNL     1      -5.725  14.170  22.798  0.00  0.00    +0.000 A 
ATOM     15 CL   UNL     1      -6.869  14.727  23.961  0.00  0.00    +0.000 Cl
ATOM     16  C   UNL     1      -4.712  13.248  23.081  0.00  0.00    +0.000 A 
ATOM     17  C   UNL     1      -3.823  12.876  22.038  0.00  0.00    +0.000 A 
BRANCH  16  18
ATOM     18  C   UNL     1      -4.496  12.623  24.436  0.00  0.00    +0.000 C 
ATOM     19  F   UNL     1      -4.027  13.434  25.417  0.00  0.00    +0.000 F 
ATOM     20  F   UNL     1      -5.646  12.080  24.926  0.00  0.00    +0.000 F 
ATOM     21  F   UNL     1      -3.609  11.587  24.371  0.00  0.00    +0.000 F 
ENDBRANCH  16  18
ENDBRANCH   9  11
ENDBRANCH   4   7
BRANCH   1  22
ATOM     22  S   UNL     1       0.675   9.299  20.763  0.00  0.00    +0.000 S 
ATOM     23  O   UNL     1      -0.362   8.614  21.504  0.00  0.00    +0.000 OA
ATOM     24  O   UNL     1       1.594  10.174  21.465  0.00  0.00    +0.000 OA
BRANCH  22  29
ATOM     25  C   UNL     1       3.799   4.870  17.912  0.00  0.00    +0.000 C 
ATOM     26  C   UNL     1       3.058   5.967  18.618  0.00  0.00    +0.000 A 
ATOM     27  C   UNL     1       2.495   5.774  19.880  0.00  0.00    +0.000 A 
ATOM     28  C   UNL     1       1.800   6.813  20.508  0.00  0.00    +0.000 A 
ATOM     29  C   UNL     1       1.660   8.068  19.889  0.00  0.00    +0.000 A 
ATOM     30  C   UNL     1       2.213   8.280  18.607  0.00  0.00    +0.000 A 
ATOM     31  C   UNL     1       2.129   9.533  17.784  0.00  0.00    +0.000 C 
ATOM     32  C   UNL     1       2.910   7.212  17.997  0.00  0.00    +0.000 A 
ENDBRANCH  22  29
ENDBRANCH   1  22
TORSDOF 5
ENDMDL
MODEL 8
REMARK VINA RESULT:      -7.7      4.059      5.223
REMARK  Name = 
REMARK  7 active torsions:
REMARK  status: ('A' for Active; 'I' for Inactive)
REMARK    1  A    between atoms: C_1  and  C_2
REMARK    2  A    between atoms: C_5  and  S_6
REMARK    3  A    between atoms: S_6  and  N_9
REMARK    4  A    between atoms: C_12  and  C_13
REMARK    5  A    between atoms: N_15  and  C_16
REMARK    6  A    between atoms: C_21  and  C_22
REMARK    7  A    between atoms: C_29  and  C_30
REMARK                            x       y       z     vdW  Elec       q    Type
REMARK                         _______ _______ _______ _____ _____    ______ ____
ROOT
ATOM      1  N   UNL     1       0.910  12.764  20.239  0.00  0.00    +0.000 NA
ATOM      2  C   UNL     1       1.258  12.059  18.983  0.00  0.00    +0.000 C 
ATOM      3  C   UNL     1       0.120  11.122  18.566  0.00  0.00    +0.000 C 
ATOM      4  C   UNL     1      -0.248  10.127  19.678  0.00  0.00    +0.000 C 
ATOM      5  C   UNL     1      -0.622  10.923  20.926  0.00  0.00    +0.000 C 
ATOM      6  C   UNL     1       0.482  11.887  21.353  0.00  0.00    +0.000 C 
ENDROOT
BRANCH   4   7
ATOM      7  C   UNL     1       0.895   9.131  19.902  0.00  0.00    +0.000 C 
ATOM      8  O   UNL     1       1.398   8.998  21.013  0.00  0.00    +0.000 OA
ATOM      9  N   UNL     1       1.332   8.474  18.763  0.00  0.00    +0.000 N 
ATOM     10  H   UNL     1       1.070   8.872  17.869  0.00  0.00    +0.000 HD
BRANCH   9  11
ATOM     11  C   UNL     1       2.336   7.475  18.758  0.00  0.00    +0.000 A 
ATOM     12  C   UNL     1       2.444   6.511  19.759  0.00  0.00    +0.000 A 
ATOM     13  C   UNL     1       3.489   5.586  19.752  0.00  0.00    +0.000 A 
ATOM     14  C   UNL     1       4.446   5.602  18.734  0.00  0.00    +0.000 A 
ATOM     15 CL   UNL     1       5.708   4.434  18.857  0.00  0.00    +0.000 Cl
ATOM     16  C   UNL     1       4.344   6.532  17.694  0.00  0.00    +0.000 A 
ATOM     17  C   UNL     1       3.263   7.452  17.711  0.00  0.00    +0.000 A 
BRANCH  16  18
ATOM     18  C   UNL     1       5.322   6.628  16.550  0.00  0.00    +0.000 C 
ATOM     19  F   UNL     1       6.472   7.308  16.783  0.00  0.00    +0.000 F 
ATOM     20  F   UNL     1       5.705   5.393  16.115  0.00  0.00    +0.000 F 
ATOM     21  F   UNL     1       4.759   7.233  15.463  0.00  0.00    +0.000 F 
ENDBRANCH  16  18
ENDBRANCH   9  11
ENDBRANCH   4   7
BRANCH   1  22
ATOM     22  S   UNL     1       1.950  14.070  20.663  0.00  0.00    +0.000 S 
ATOM     23  O   UNL     1       3.296  13.711  20.273  0.00  0.00    +0.000 OA
ATOM     24  O   UNL     1       1.678  14.428  22.042  0.00  0.00    +0.000 OA
BRANCH  22  29
ATOM     25  C   UNL     1       0.327  18.630  16.910  0.00  0.00    +0.000 C 
ATOM     26  C   UNL     1       0.723  17.531  17.852  0.00  0.00    +0.000 A 
ATOM     27  C   UNL     1       2.050  17.120  17.978  0.00  0.00    +0.000 A 
ATOM     28  C   UNL     1       2.387  16.085  18.856  0.00  0.00    +0.000 A 
ATOM     29  C   UNL     1       1.404  15.443  19.631  0.00  0.00    +0.000 A 
ATOM     30  C   UNL     1       0.053  15.836  19.508  0.00  0.00    +0.000 A 
ATOM     31  C   UNL     1      -1.128  15.243  20.220  0.00  0.00    +0.000 C 
ATOM     32  C   UNL     1      -0.257  16.887  18.613  0.00  0.00    +0.000 A 
ENDBRANCH  22  29
ENDBRANCH   1  22
TORSDOF 5
ENDMDL
MODEL 9
REMARK VINA RESULT:      -7.7      2.452      3.183
REMARK  Name = 
REMARK  7 active torsions:
REMARK  status: ('A' for Active; 'I' for Inactive)
REMARK    1  A    between atoms: C_1  and  C_2
REMARK    2  A    between atoms: C_5  and  S_6
REMARK    3  A    between atoms: S_6  and  N_9
REMARK    4  A    between atoms: C_12  and  C_13
REMARK    5  A    between atoms: N_15  and  C_16
REMARK    6  A    between atoms: C_21  and  C_22
REMARK    7  A    between atoms: C_29  and  C_30
REMARK                            x       y       z     vdW  Elec       q    Type
REMARK                         _______ _______ _______ _____ _____    ______ ____
ROOT
ATOM      1  N   UNL     1      -0.009  11.804  20.466  0.00  0.00    +0.000 NA
ATOM      2  C   UNL     1       1.436  11.727  20.148  0.00  0.00    +0.000 C 
ATOM      3  C   UNL     1       1.638  11.398  18.666  0.00  0.00    +0.000 C 
ATOM      4  C   UNL     1       0.908  10.110  18.253  0.00  0.00    +0.000 C 
ATOM      5  C   UNL     1      -0.573  10.273  18.583  0.00  0.00    +0.000 C 
ATOM      6  C   UNL     1      -0.807  10.628  20.049  0.00  0.00    +0.000 C 
ENDROOT
BRANCH   4   7
ATOM      7  C   UNL     1       1.557   8.892  18.922  0.00  0.00    +0.000 C 
ATOM      8  O   UNL     1       1.575   8.787  20.144  0.00  0.00    +0.000 OA
ATOM      9  N   UNL     1       2.157   7.996  18.052  0.00  0.00    +0.000 N 
ATOM     10  H   UNL     1       2.355   8.323  17.114  0.00  0.00    +0.000 HD
BRANCH   9  11
ATOM     11  C   UNL     1       2.763   6.781  18.456  0.00  0.00    +0.000 A 
ATOM     12  C   UNL     1       4.066   6.435  18.104  0.00  0.00    +0.000 A 
ATOM     13  C   UNL     1       4.601   5.198  18.465  0.00  0.00    +0.000 A 
ATOM     14  C   UNL     1       3.842   4.281  19.197  0.00  0.00    +0.000 A 
ATOM     15 CL   UNL     1       4.600   2.774  19.550  0.00  0.00    +0.000 Cl
ATOM     16  C   UNL     1       2.544   4.613  19.599  0.00  0.00    +0.000 A 
ATOM     17  C   UNL     1       2.025   5.884  19.236  0.00  0.00    +0.000 A 
BRANCH  16  18
ATOM     18  C   UNL     1       1.647   3.697  20.393  0.00  0.00    +0.000 C 
ATOM     19  F   UNL     1       1.392   2.476  19.859  0.00  0.00    +0.000 F 
ATOM     20  F   UNL     1       2.152   3.457  21.637  0.00  0.00    +0.000 F 
ATOM     21  F   UNL     1       0.421   4.260  20.606  0.00  0.00    +0.000 F 
ENDBRANCH  16  18
ENDBRANCH   9  11
ENDBRANCH   4   7
BRANCH   1  22
ATOM     22  S   UNL     1      -0.389  12.464  22.012  0.00  0.00    +0.000 S 
ATOM     23  O   UNL     1       0.498  13.583  22.247  0.00  0.00    +0.000 OA
ATOM     24  O   UNL     1      -0.429  11.373  22.965  0.00  0.00    +0.000 OA
BRANCH  22  29
ATOM     25  C   UNL     1      -6.149  14.532  21.769  0.00  0.00    +0.000 C 
ATOM     26  C   UNL     1      -4.741  14.012  21.803  0.00  0.00    +0.000 A 
ATOM     27  C   UNL     1      -4.393  12.893  22.559  0.00  0.00    +0.000 A 
ATOM     28  C   UNL     1      -3.070  12.440  22.580  0.00  0.00    +0.000 A 
ATOM     29  C   UNL     1      -2.069  13.094  21.839  0.00  0.00    +0.000 A 
ATOM     30  C   UNL     1      -2.399  14.236  21.077  0.00  0.00    +0.000 A 
ATOM     31  C   UNL     1      -1.461  15.079  20.262  0.00  0.00    +0.000 C 
ATOM     32  C   UNL     1      -3.744  14.670  21.074  0.00  0.00    +0.000 A 
ENDBRANCH  22  29
ENDBRANCH   1  22
TORSDOF 5
ENDMDL
