MODEL 1
REMARK VINA RESULT:      -7.7      0.000      0.000
REMARK  Name = 
REMARK  7 active torsions:
REMARK  status: ('A' for Active; 'I' for Inactive)
REMARK    1  A    between atoms: C_1  and  O_2
REMARK    2  A    between atoms: O_2  and  C_3
REMARK    3  A    between atoms: C_6  and  C_7
REMARK    4  A    between atoms: C_9  and  C_10
REMARK    5  A    between atoms: C_13  and  C_14
REMARK    6  A    between atoms: C_16  and  O_17
REMARK    7  A    between atoms: O_17  and  C_18
REMARK                            x       y       z     vdW  Elec       q    Type
REMARK                         _______ _______ _______ _____ _____    ______ ____
ROOT
ATOM      1  C   UNL     1       3.357   3.665  19.599  0.00  0.00    +0.000 A 
ATOM      2  C   UNL     1       2.119   3.884  20.201  0.00  0.00    +0.000 A 
ATOM      3  C   UNL     1       1.634   5.186  20.390  0.00  0.00    +0.000 A 
ATOM      4  C   UNL     1       2.364   6.322  19.992  0.00  0.00    +0.000 A 
ATOM      5  C   UNL     1       3.619   6.079  19.410  0.00  0.00    +0.000 A 
ATOM      6  C   UNL     1       4.088   4.777  19.166  0.00  0.00    +0.000 A 
ENDROOT
BRANCH   4   7
ATOM      7  C   UNL     1       1.786   7.686  20.172  0.00  0.00    +0.000 A 
ATOM      8  C   UNL     1       1.267   8.045  21.442  0.00  0.00    +0.000 A 
ATOM      9  C   UNL     1       0.566   9.239  21.669  0.00  0.00    +0.000 A 
ATOM     10  C   UNL     1      -0.094   9.514  22.988  0.00  0.00    +0.000 C 
ATOM     11  C   UNL     1       0.430  10.145  20.622  0.00  0.00    +0.000 A 
ATOM     12  C   UNL     1       0.972   9.851  19.373  0.00  0.00    +0.000 A 
ATOM     13  C   UNL     1       1.623   8.625  19.123  0.00  0.00    +0.000 A 
ATOM     14  C   UNL     1       2.098   8.392  17.711  0.00  0.00    +0.000 C 
ENDBRANCH   4   7
BRANCH   1  16
ATOM     15  C   UNL     1       3.481   1.669  18.300  0.00  0.00    +0.000 C 
ATOM     16  O   UNL     1       3.914   2.431  19.422  0.00  0.00    +0.000 OA
ENDBRANCH   1  16
BRANCH   6  17
ATOM     17  O   UNL     1       5.331   4.710  18.576  0.00  0.00    +0.000 OA
BRANCH  17  18
ATOM     18  C   UNL     1       5.727   5.804  17.704  0.00  0.00    +0.000 C 
ATOM     19  C   UNL     1       7.203   6.238  17.867  0.00  0.00    +0.000 C 
ATOM     20  N   UNL     1       7.380   6.211  16.409  0.00  0.00    +0.000 NA
ATOM     21  C   UNL     1       6.148   5.423  16.265  0.00  0.00    +0.000 C 
ATOM     22  H   UNL     1       8.218   5.719  16.098  0.00  0.00    +0.000 HD
ENDBRANCH  17  18
ENDBRANCH   6  17
TORSDOF 4
ENDMDL
MODEL 2
REMARK VINA RESULT:      -7.4      1.031      1.050
REMARK  Name = 
REMARK  7 active torsions:
REMARK  status: ('A' for Active; 'I' for Inactive)
REMARK    1  A    between atoms: C_1  and  O_2
REMARK    2  A    between atoms: O_2  and  C_3
REMARK    3  A    between atoms: C_6  and  C_7
REMARK    4  A    between atoms: C_9  and  C_10
REMARK    5  A    between atoms: C_13  and  C_14
REMARK    6  A    between atoms: C_16  and  O_17
REMARK    7  A    between atoms: O_17  and  C_18
REMARK                            x       y       z     vdW  Elec       q    Type
REMARK                         _______ _______ _______ _____ _____    ______ ____
ROOT
ATOM      1  C   UNL     1       3.223   4.093  19.215  0.00  0.00    +0.000 A 
ATOM      2  C   UNL     1       2.261   4.270  20.208  0.00  0.00    +0.000 A 
ATOM      3  C   UNL     1       1.769   5.547  20.509  0.00  0.00    +0.000 A 
ATOM      4  C   UNL     1       2.218   6.700  19.838  0.00  0.00    +0.000 A 
ATOM      5  C   UNL     1       3.204   6.502  18.859  0.00  0.00    +0.000 A 
ATOM      6  C   UNL     1       3.662   5.220  18.511  0.00  0.00    +0.000 A 
ENDROOT
BRANCH   4   7
ATOM      7  C   UNL     1       1.630   8.033  20.162  0.00  0.00    +0.000 A 
ATOM      8  C   UNL     1       1.188   8.281  21.487  0.00  0.00    +0.000 A 
ATOM      9  C   UNL     1       0.484   9.438  21.851  0.00  0.00    +0.000 A 
ATOM     10  C   UNL     1      -0.093   9.595  23.228  0.00  0.00    +0.000 C 
ATOM     11  C   UNL     1       0.266  10.420  20.890  0.00  0.00    +0.000 A 
ATOM     12  C   UNL     1       0.730  10.237  19.590  0.00  0.00    +0.000 A 
ATOM     13  C   UNL     1       1.384   9.048  19.203  0.00  0.00    +0.000 A 
ATOM     14  C   UNL     1       1.770   8.937  17.750  0.00  0.00    +0.000 C 
ENDBRANCH   4   7
BRANCH   1  16
ATOM     15  C   UNL     1       4.406   2.154  19.945  0.00  0.00    +0.000 C 
ATOM     16  O   UNL     1       3.781   2.888  18.897  0.00  0.00    +0.000 OA
ENDBRANCH   1  16
BRANCH   6  17
ATOM     17  O   UNL     1       4.620   5.195  17.522  0.00  0.00    +0.000 OA
BRANCH  17  18
ATOM     18  C   UNL     1       5.947   5.691  17.851  0.00  0.00    +0.000 C 
ATOM     19  C   UNL     1       6.436   5.295  19.265  0.00  0.00    +0.000 C 
ATOM     20  N   UNL     1       7.723   4.863  18.707  0.00  0.00    +0.000 NA
ATOM     21  C   UNL     1       7.143   4.842  17.358  0.00  0.00    +0.000 C 
ATOM     22  H   UNL     1       8.035   3.947  19.032  0.00  0.00    +0.000 HD
ENDBRANCH  17  18
ENDBRANCH   6  17
TORSDOF 4
ENDMDL
MODEL 3
REMARK VINA RESULT:      -7.4      0.993      1.002
REMARK  Name = 
REMARK  7 active torsions:
REMARK  status: ('A' for Active; 'I' for Inactive)
REMARK    1  A    between atoms: C_1  and  O_2
REMARK    2  A    between atoms: O_2  and  C_3
REMARK    3  A    between atoms: C_6  and  C_7
REMARK    4  A    between atoms: C_9  and  C_10
REMARK    5  A    between atoms: C_13  and  C_14
REMARK    6  A    between atoms: C_16  and  O_17
REMARK    7  A    between atoms: O_17  and  C_18
REMARK                            x       y       z     vdW  Elec       q    Type
REMARK                         _______ _______ _______ _____ _____    ______ ____
ROOT
ATOM      1  C   UNL     1       3.479   3.196  19.854  0.00  0.00    +0.000 A 
ATOM      2  C   UNL     1       2.199   3.505  20.311  0.00  0.00    +0.000 A 
ATOM      3  C   UNL     1       1.751   4.833  20.343  0.00  0.00    +0.000 A 
ATOM      4  C   UNL     1       2.560   5.907  19.927  0.00  0.00    +0.000 A 
ATOM      5  C   UNL     1       3.853   5.576  19.493  0.00  0.00    +0.000 A 
ATOM      6  C   UNL     1       4.291   4.244  19.404  0.00  0.00    +0.000 A 
ENDROOT
BRANCH   4   7
ATOM      7  C   UNL     1       2.021   7.299  19.936  0.00  0.00    +0.000 A 
ATOM      8  C   UNL     1       1.304   7.746  21.075  0.00  0.00    +0.000 A 
ATOM      9  C   UNL     1       0.630   8.975  21.115  0.00  0.00    +0.000 A 
ATOM     10  C   UNL     1      -0.239   9.347  22.282  0.00  0.00    +0.000 C 
ATOM     11  C   UNL     1       0.721   9.827  20.019  0.00  0.00    +0.000 A 
ATOM     12  C   UNL     1       1.460   9.446  18.902  0.00  0.00    +0.000 A 
ATOM     13  C   UNL     1       2.089   8.185  18.831  0.00  0.00    +0.000 A 
ATOM     14  C   UNL     1       2.793   7.858  17.539  0.00  0.00    +0.000 C 
ENDBRANCH   4   7
BRANCH   1  16
ATOM     15  C   UNL     1       4.894   1.576  20.885  0.00  0.00    +0.000 C 
ATOM     16  O   UNL     1       4.001   1.935  19.835  0.00  0.00    +0.000 OA
ENDBRANCH   1  16
BRANCH   6  17
ATOM     17  O   UNL     1       5.581   4.087  18.946  0.00  0.00    +0.000 OA
BRANCH  17  18
ATOM     18  C   UNL     1       6.017   4.931  17.846  0.00  0.00    +0.000 C 
ATOM     19  C   UNL     1       7.553   5.018  17.687  0.00  0.00    +0.000 C 
ATOM     20  N   UNL     1       7.427   4.758  16.247  0.00  0.00    +0.000 NA
ATOM     21  C   UNL     1       6.054   4.275  16.445  0.00  0.00    +0.000 C 
ATOM     22  H   UNL     1       8.064   4.045  15.892  0.00  0.00    +0.000 HD
ENDBRANCH  17  18
ENDBRANCH   6  17
TORSDOF 4
ENDMDL
MODEL 4
REMARK VINA RESULT:      -7.3      2.805      4.619
REMARK  Name = 
REMARK  7 active torsions:
REMARK  status: ('A' for Active; 'I' for Inactive)
REMARK    1  A    between atoms: C_1  and  O_2
REMARK    2  A    between atoms: O_2  and  C_3
REMARK    3  A    between atoms: C_6  and  C_7
REMARK    4  A    between atoms: C_9  and  C_10
REMARK    5  A    between atoms: C_13  and  C_14
REMARK    6  A    between atoms: C_16  and  O_17
REMARK    7  A    between atoms: O_17  and  C_18
REMARK                            x       y       z     vdW  Elec       q    Type
REMARK                         _______ _______ _______ _____ _____    ______ ____
ROOT
ATOM      1  C   UNL     1       6.515   5.144  15.617  0.00  0.00    +0.000 A 
ATOM      2  C   UNL     1       5.483   4.209  15.689  0.00  0.00    +0.000 A 
ATOM      3  C   UNL     1       4.572   4.229  16.753  0.00  0.00    +0.000 A 
ATOM      4  C   UNL     1       4.653   5.175  17.792  0.00  0.00    +0.000 A 
ATOM      5  C   UNL     1       5.714   6.092  17.713  0.00  0.00    +0.000 A 
ATOM      6  C   UNL     1       6.598   6.115  16.621  0.00  0.00    +0.000 A 
ENDROOT
BRANCH   4   7
ATOM      7  C   UNL     1       3.631   5.185  18.879  0.00  0.00    +0.000 A 
ATOM      8  C   UNL     1       3.530   4.056  19.731  0.00  0.00    +0.000 A 
ATOM      9  C   UNL     1       2.506   3.905  20.677  0.00  0.00    +0.000 A 
ATOM     10  C   UNL     1       2.349   2.631  21.456  0.00  0.00    +0.000 C 
ATOM     11  C   UNL     1       1.585   4.935  20.838  0.00  0.00    +0.000 A 
ATOM     12  C   UNL     1       1.682   6.083  20.056  0.00  0.00    +0.000 A 
ATOM     13  C   UNL     1       2.673   6.214  19.060  0.00  0.00    +0.000 A 
ATOM     14  C   UNL     1       2.626   7.470  18.228  0.00  0.00    +0.000 C 
ENDBRANCH   4   7
BRANCH   1  16
ATOM     15  C   UNL     1       7.111   4.624  13.367  0.00  0.00    +0.000 C 
ATOM     16  O   UNL     1       7.466   5.160  14.637  0.00  0.00    +0.000 OA
ENDBRANCH   1  16
BRANCH   6  17
ATOM     17  O   UNL     1       7.575   7.084  16.687  0.00  0.00    +0.000 OA
BRANCH  17  18
ATOM     18  C   UNL     1       7.521   8.027  17.793  0.00  0.00    +0.000 C 
ATOM     19  C   UNL     1       8.529   7.727  18.928  0.00  0.00    +0.000 C 
ATOM     20  N   UNL     1       8.951   9.134  18.935  0.00  0.00    +0.000 NA
ATOM     21  C   UNL     1       8.323   9.339  17.623  0.00  0.00    +0.000 C 
ATOM     22  H   UNL     1       9.962   9.269  18.930  0.00  0.00    +0.000 HD
ENDBRANCH  17  18
ENDBRANCH   6  17
TORSDOF 4
ENDMDL
MODEL 5
REMARK VINA RESULT:      -7.3      2.668      6.774
REMARK  Name = 
REMARK  7 active torsions:
REMARK  status: ('A' for Active; 'I' for Inactive)
REMARK    1  A    between atoms: C_1  and  O_2
REMARK    2  A    between atoms: O_2  and  C_3
REMARK    3  A    between atoms: C_6  and  C_7
REMARK    4  A    between atoms: C_9  and  C_10
REMARK    5  A    between atoms: C_13  and  C_14
REMARK    6  A    between atoms: C_16  and  O_17
REMARK    7  A    between atoms: O_17  and  C_18
REMARK                            x       y       z     vdW  Elec       q    Type
REMARK                         _______ _______ _______ _____ _____    ______ ____
ROOT
ATOM      1  C   UNL     1       2.499   6.464  19.537  0.00  0.00    +0.000 A 
ATOM      2  C   UNL     1       2.750   7.353  18.492  0.00  0.00    +0.000 A 
ATOM      3  C   UNL     1       3.702   7.053  17.509  0.00  0.00    +0.000 A 
ATOM      4  C   UNL     1       4.447   5.859  17.527  0.00  0.00    +0.000 A 
ATOM      5  C   UNL     1       4.197   4.989  18.600  0.00  0.00    +0.000 A 
ATOM      6  C   UNL     1       3.205   5.256  19.559  0.00  0.00    +0.000 A 
ENDROOT
BRANCH   4   7
ATOM      7  C   UNL     1       5.416   5.563  16.431  0.00  0.00    +0.000 A 
ATOM      8  C   UNL     1       4.948   4.905  15.265  0.00  0.00    +0.000 A 
ATOM      9  C   UNL     1       5.805   4.447  14.254  0.00  0.00    +0.000 A 
ATOM     10  C   UNL     1       5.286   3.626  13.109  0.00  0.00    +0.000 C 
ATOM     11  C   UNL     1       7.168   4.706  14.361  0.00  0.00    +0.000 A 
ATOM     12  C   UNL     1       7.659   5.396  15.467  0.00  0.00    +0.000 A 
ATOM     13  C   UNL     1       6.811   5.805  16.517  0.00  0.00    +0.000 A 
ATOM     14  C   UNL     1       7.473   6.473  17.694  0.00  0.00    +0.000 C 
ENDBRANCH   4   7
BRANCH   1  16
ATOM     15  C   UNL     1       1.423   8.061  20.944  0.00  0.00    +0.000 C 
ATOM     16  O   UNL     1       1.621   6.706  20.554  0.00  0.00    +0.000 OA
ENDBRANCH   1  16
BRANCH   6  17
ATOM     17  O   UNL     1       3.074   4.296  20.540  0.00  0.00    +0.000 OA
BRANCH  17  18
ATOM     18  C   UNL     1       2.312   3.100  20.219  0.00  0.00    +0.000 C 
ATOM     19  C   UNL     1       1.024   2.928  21.060  0.00  0.00    +0.000 C 
ATOM     20  N   UNL     1       0.255   2.648  19.840  0.00  0.00    +0.000 NA
ATOM     21  C   UNL     1       1.341   3.201  19.018  0.00  0.00    +0.000 C 
ATOM     22  H   UNL     1      -0.619   3.170  19.767  0.00  0.00    +0.000 HD
ENDBRANCH  17  18
ENDBRANCH   6  17
TORSDOF 4
ENDMDL
MODEL 6
REMARK VINA RESULT:      -7.2      0.875      1.049
REMARK  Name = 
REMARK  7 active torsions:
REMARK  status: ('A' for Active; 'I' for Inactive)
REMARK    1  A    between atoms: C_1  and  O_2
REMARK    2  A    between atoms: O_2  and  C_3
REMARK    3  A    between atoms: C_6  and  C_7
REMARK    4  A    between atoms: C_9  and  C_10
REMARK    5  A    between atoms: C_13  and  C_14
REMARK    6  A    between atoms: C_16  and  O_17
REMARK    7  A    between atoms: O_17  and  C_18
REMARK                            x       y       z     vdW  Elec       q    Type
REMARK                         _______ _______ _______ _____ _____    ______ ____
ROOT
ATOM      1  C   UNL     1       3.135   4.322  18.964  0.00  0.00    +0.000 A 
ATOM      2  C   UNL     1       2.328   4.465  20.092  0.00  0.00    +0.000 A 
ATOM      3  C   UNL     1       1.840   5.724  20.469  0.00  0.00    +0.000 A 
ATOM      4  C   UNL     1       2.141   6.891  19.743  0.00  0.00    +0.000 A 
ATOM      5  C   UNL     1       2.975   6.729  18.625  0.00  0.00    +0.000 A 
ATOM      6  C   UNL     1       3.422   5.464  18.207  0.00  0.00    +0.000 A 
ENDROOT
BRANCH   4   7
ATOM      7  C   UNL     1       1.560   8.202  20.157  0.00  0.00    +0.000 A 
ATOM      8  C   UNL     1       1.152   8.373  21.505  0.00  0.00    +0.000 A 
ATOM      9  C   UNL     1       0.457   9.506  21.953  0.00  0.00    +0.000 A 
ATOM     10  C   UNL     1      -0.085   9.583  23.351  0.00  0.00    +0.000 C 
ATOM     11  C   UNL     1       0.212  10.540  21.055  0.00  0.00    +0.000 A 
ATOM     12  C   UNL     1       0.643  10.432  19.735  0.00  0.00    +0.000 A 
ATOM     13  C   UNL     1       1.288   9.269  19.264  0.00  0.00    +0.000 A 
ATOM     14  C   UNL     1       1.635   9.242  17.798  0.00  0.00    +0.000 C 
ENDBRANCH   4   7
BRANCH   1  16
ATOM     15  C   UNL     1       2.908   1.958  18.742  0.00  0.00    +0.000 C 
ATOM     16  O   UNL     1       3.683   3.138  18.560  0.00  0.00    +0.000 OA
ENDBRANCH   1  16
BRANCH   6  17
ATOM     17  O   UNL     1       4.220   5.473  17.085  0.00  0.00    +0.000 OA
BRANCH  17  18
ATOM     18  C   UNL     1       5.660   5.389  17.276  0.00  0.00    +0.000 C 
ATOM     19  C   UNL     1       6.460   5.197  15.967  0.00  0.00    +0.000 C 
ATOM     20  N   UNL     1       7.381   6.270  16.364  0.00  0.00    +0.000 NA
ATOM     21  C   UNL     1       6.422   6.731  17.377  0.00  0.00    +0.000 C 
ATOM     22  H   UNL     1       7.565   6.958  15.632  0.00  0.00    +0.000 HD
ENDBRANCH  17  18
ENDBRANCH   6  17
TORSDOF 4
ENDMDL
MODEL 7
REMARK VINA RESULT:      -7.1      2.433      4.748
REMARK  Name = 
REMARK  7 active torsions:
REMARK  status: ('A' for Active; 'I' for Inactive)
REMARK    1  A    between atoms: C_1  and  O_2
REMARK    2  A    between atoms: O_2  and  C_3
REMARK    3  A    between atoms: C_6  and  C_7
REMARK    4  A    between atoms: C_9  and  C_10
REMARK    5  A    between atoms: C_13  and  C_14
REMARK    6  A    between atoms: C_16  and  O_17
REMARK    7  A    between atoms: O_17  and  C_18
REMARK                            x       y       z     vdW  Elec       q    Type
REMARK                         _______ _______ _______ _____ _____    ______ ____
ROOT
ATOM      1  C   UNL     1       6.492   5.081  15.387  0.00  0.00    +0.000 A 
ATOM      2  C   UNL     1       5.424   4.186  15.335  0.00  0.00    +0.000 A 
ATOM      3  C   UNL     1       4.502   4.109  16.388  0.00  0.00    +0.000 A 
ATOM      4  C   UNL     1       4.609   4.915  17.537  0.00  0.00    +0.000 A 
ATOM      5  C   UNL     1       5.704   5.792  17.579  0.00  0.00    +0.000 A 
ATOM      6  C   UNL     1       6.601   5.916  16.505  0.00  0.00    +0.000 A 
ENDROOT
BRANCH   4   7
ATOM      7  C   UNL     1       3.576   4.830  18.611  0.00  0.00    +0.000 A 
ATOM      8  C   UNL     1       2.942   6.023  19.044  0.00  0.00    +0.000 A 
ATOM      9  C   UNL     1       2.077   6.068  20.148  0.00  0.00    +0.000 A 
ATOM     10  C   UNL     1       1.543   7.373  20.663  0.00  0.00    +0.000 C 
ATOM     11  C   UNL     1       1.771   4.883  20.809  0.00  0.00    +0.000 A 
ATOM     12  C   UNL     1       2.334   3.683  20.381  0.00  0.00    +0.000 A 
ATOM     13  C   UNL     1       3.252   3.641  19.311  0.00  0.00    +0.000 A 
ATOM     14  C   UNL     1       3.851   2.294  18.993  0.00  0.00    +0.000 C 
ENDBRANCH   4   7
BRANCH   1  16
ATOM     15  C   UNL     1       7.166   4.619  13.146  0.00  0.00    +0.000 C 
ATOM     16  O   UNL     1       7.453   5.181  14.422  0.00  0.00    +0.000 OA
ENDBRANCH   1  16
BRANCH   6  17
ATOM     17  O   UNL     1       7.614   6.830  16.697  0.00  0.00    +0.000 OA
BRANCH  17  18
ATOM     18  C   UNL     1       7.476   7.772  17.796  0.00  0.00    +0.000 C 
ATOM     19  C   UNL     1       8.501   7.564  18.937  0.00  0.00    +0.000 C 
ATOM     20  N   UNL     1       8.805   9.001  18.936  0.00  0.00    +0.000 NA
ATOM     21  C   UNL     1       8.169   9.144  17.619  0.00  0.00    +0.000 C 
ATOM     22  H   UNL     1       9.802   9.219  18.934  0.00  0.00    +0.000 HD
ENDBRANCH  17  18
ENDBRANCH   6  17
TORSDOF 4
ENDMDL
MODEL 8
REMARK VINA RESULT:      -7.1      2.648      6.783
REMARK  Name = 
REMARK  7 active torsions:
REMARK  status: ('A' for Active; 'I' for Inactive)
REMARK    1  A    between atoms: C_1  and  O_2
REMARK    2  A    between atoms: O_2  and  C_3
REMARK    3  A    between atoms: C_6  and  C_7
REMARK    4  A    between atoms: C_9  and  C_10
REMARK    5  A    between atoms: C_13  and  C_14
REMARK    6  A    between atoms: C_16  and  O_17
REMARK    7  A    between atoms: O_17  and  C_18
REMARK                            x       y       z     vdW  Elec       q    Type
REMARK                         _______ _______ _______ _____ _____    ______ ____
ROOT
ATOM      1  C   UNL     1       2.195   7.367  19.475  0.00  0.00    +0.000 A 
ATOM      2  C   UNL     1       2.691   8.054  18.368  0.00  0.00    +0.000 A 
ATOM      3  C   UNL     1       3.706   7.500  17.576  0.00  0.00    +0.000 A 
ATOM      4  C   UNL     1       4.272   6.243  17.856  0.00  0.00    +0.000 A 
ATOM      5  C   UNL     1       3.776   5.578  18.989  0.00  0.00    +0.000 A 
ATOM      6  C   UNL     1       2.720   6.100  19.755  0.00  0.00    +0.000 A 
ENDROOT
BRANCH   4   7
ATOM      7  C   UNL     1       5.319   5.674  16.956  0.00  0.00    +0.000 A 
ATOM      8  C   UNL     1       4.938   5.226  15.665  0.00  0.00    +0.000 A 
ATOM      9  C   UNL     1       5.812   4.538  14.810  0.00  0.00    +0.000 A 
ATOM     10  C   UNL     1       5.330   3.951  13.515  0.00  0.00    +0.000 C 
ATOM     11  C   UNL     1       7.129   4.343  15.213  0.00  0.00    +0.000 A 
ATOM     12  C   UNL     1       7.554   4.816  16.452  0.00  0.00    +0.000 A 
ATOM     13  C   UNL     1       6.665   5.453  17.342  0.00  0.00    +0.000 A 
ATOM     14  C   UNL     1       7.226   5.849  18.684  0.00  0.00    +0.000 C 
ENDBRANCH   4   7
BRANCH   1  16
ATOM     15  C   UNL     1       0.896   9.235  20.189  0.00  0.00    +0.000 C 
ATOM     16  O   UNL     1       1.240   7.859  20.317  0.00  0.00    +0.000 OA
ENDBRANCH   1  16
BRANCH   6  17
ATOM     17  O   UNL     1       2.339   5.320  20.825  0.00  0.00    +0.000 OA
BRANCH  17  18
ATOM     18  C   UNL     1       1.231   4.398  20.631  0.00  0.00    +0.000 C 
ATOM     19  C   UNL     1       1.220   3.708  19.246  0.00  0.00    +0.000 C 
ATOM     20  N   UNL     1       1.008   2.404  19.889  0.00  0.00    +0.000 NA
ATOM     21  C   UNL     1       1.421   2.965  21.183  0.00  0.00    +0.000 C 
ATOM     22  H   UNL     1       1.624   1.665  19.549  0.00  0.00    +0.000 HD
ENDBRANCH  17  18
ENDBRANCH   6  17
TORSDOF 4
ENDMDL
MODEL 9
REMARK VINA RESULT:      -7.0      3.789      7.098
REMARK  Name = 
REMARK  7 active torsions:
REMARK  status: ('A' for Active; 'I' for Inactive)
REMARK    1  A    between atoms: C_1  and  O_2
REMARK    2  A    between atoms: O_2  and  C_3
REMARK    3  A    between atoms: C_6  and  C_7
REMARK    4  A    between atoms: C_9  and  C_10
REMARK    5  A    between atoms: C_13  and  C_14
REMARK    6  A    between atoms: C_16  and  O_17
REMARK    7  A    between atoms: O_17  and  C_18
REMARK                            x       y       z     vdW  Elec       q    Type
REMARK                         _______ _______ _______ _____ _____    ______ ____
ROOT
ATOM      1  C   UNL     1       1.291   9.865  18.871  0.00  0.00    +0.000 A 
ATOM      2  C   UNL     1       1.666   9.057  17.798  0.00  0.00    +0.000 A 
ATOM      3  C   UNL     1       2.097   7.740  18.010  0.00  0.00    +0.000 A 
ATOM      4  C   UNL     1       2.177   7.175  19.297  0.00  0.00    +0.000 A 
ATOM      5  C   UNL     1       1.818   8.014  20.364  0.00  0.00    +0.000 A 
ATOM      6  C   UNL     1       1.331   9.316  20.158  0.00  0.00    +0.000 A 
ENDROOT
BRANCH   4   7
ATOM      7  C   UNL     1       2.597   5.753  19.468  0.00  0.00    +0.000 A 
ATOM      8  C   UNL     1       1.798   4.897  20.266  0.00  0.00    +0.000 A 
ATOM      9  C   UNL     1       2.188   3.595  20.613  0.00  0.00    +0.000 A 
ATOM     10  C   UNL     1       1.384   2.774  21.579  0.00  0.00    +0.000 C 
ATOM     11  C   UNL     1       3.378   3.092  20.097  0.00  0.00    +0.000 A 
ATOM     12  C   UNL     1       4.166   3.885  19.266  0.00  0.00    +0.000 A 
ATOM     13  C   UNL     1       3.810   5.217  18.965  0.00  0.00    +0.000 A 
ATOM     14  C   UNL     1       4.782   5.997  18.119  0.00  0.00    +0.000 C 
ENDBRANCH   4   7
BRANCH   1  16
ATOM     15  C   UNL     1       1.922  12.139  18.526  0.00  0.00    +0.000 C 
ATOM     16  O   UNL     1       0.904  11.168  18.748  0.00  0.00    +0.000 OA
ENDBRANCH   1  16
BRANCH   6  17
ATOM     17  O   UNL     1       1.009  10.004  21.307  0.00  0.00    +0.000 OA
BRANCH  17  18
ATOM     18  C   UNL     1      -0.393  10.068  21.688  0.00  0.00    +0.000 C 
ATOM     19  C   UNL     1      -0.639   9.954  23.211  0.00  0.00    +0.000 C 
ATOM     20  N   UNL     1      -1.534  11.117  23.161  0.00  0.00    +0.000 NA
ATOM     21  C   UNL     1      -1.002  11.482  21.841  0.00  0.00    +0.000 C 
ATOM     22  H   UNL     1      -1.354  11.816  23.882  0.00  0.00    +0.000 HD
ENDBRANCH  17  18
ENDBRANCH   6  17
TORSDOF 4
ENDMDL
