MODEL 1
REMARK VINA RESULT:      -7.3      0.000      0.000
REMARK  Name = 
REMARK  4 active torsions:
REMARK  status: ('A' for Active; 'I' for Inactive)
REMARK    1  A    between atoms: C_2  and  C_3
REMARK    2  A    between atoms: C_4  and  C_5
REMARK    3  A    between atoms: N_13  and  C_14
REMARK    4  A    between atoms: C_14  and  C_15
REMARK                            x       y       z     vdW  Elec       q    Type
REMARK                         _______ _______ _______ _____ _____    ______ ____
ROOT
ATOM      1  O   UNL     1       7.801   5.005  18.542  0.00  0.00    +0.000 OA
ATOM      2  C   UNL     1       6.681   4.866  18.068  0.00  0.00    +0.000 C 
ATOM      3  N   UNL     1       6.372   5.040  16.745  0.00  0.00    +0.000 N 
ATOM      4  H   UNL     1       5.426   4.926  16.413  0.00  0.00    +0.000 HD
ENDROOT
BRANCH   2   5
ATOM      5  C   UNL     1       5.507   4.473  18.889  0.00  0.00    +0.000 C 
ATOM      6  C   UNL     1       4.309   4.311  18.308  0.00  0.00    +0.000 C 
BRANCH   6   7
ATOM      7  C   UNL     1       3.116   3.942  19.089  0.00  0.00    +0.000 A 
ATOM      8  C   UNL     1       2.336   4.925  19.728  0.00  0.00    +0.000 A 
ATOM      9 CL   UNL     1       2.703   6.613  19.595  0.00  0.00    +0.000 Cl
ATOM     10  C   UNL     1       1.223   4.572  20.502  0.00  0.00    +0.000 A 
ATOM     11  C   UNL     1       0.866   3.235  20.648  0.00  0.00    +0.000 A 
ATOM     12  C   UNL     1       1.615   2.248  20.012  0.00  0.00    +0.000 A 
ATOM     13  C   UNL     1       2.730   2.597  19.238  0.00  0.00    +0.000 A 
ATOM     14 CL   UNL     1       3.602   1.305  18.481  0.00  0.00    +0.000 Cl
ENDBRANCH   6   7
ENDBRANCH   2   5
BRANCH   3  15
ATOM     15  C   UNL     1       7.370   5.392  15.762  0.00  0.00    +0.000 C 
BRANCH  15  16
ATOM     16  C   UNL     1       6.990   4.780  14.465  0.00  0.00    +0.000 A 
ATOM     17  C   UNL     1       6.080   3.807  14.111  0.00  0.00    +0.000 A 
ATOM     18  C   UNL     1       6.176   3.660  12.706  0.00  0.00    +0.000 A 
ATOM     19  C   UNL     1       7.140   4.550  12.294  0.00  0.00    +0.000 A 
ATOM     20  O   UNL     1       7.646   5.232  13.355  0.00  0.00    +0.000 OA
ENDBRANCH  15  16
ENDBRANCH   3  15
TORSDOF 4
ENDMDL
MODEL 2
REMARK VINA RESULT:      -7.2      1.175      2.527
REMARK  Name = 
REMARK  4 active torsions:
REMARK  status: ('A' for Active; 'I' for Inactive)
REMARK    1  A    between atoms: C_2  and  C_3
REMARK    2  A    between atoms: C_4  and  C_5
REMARK    3  A    between atoms: N_13  and  C_14
REMARK    4  A    between atoms: C_14  and  C_15
REMARK                            x       y       z     vdW  Elec       q    Type
REMARK                         _______ _______ _______ _____ _____    ______ ____
ROOT
ATOM      1  O   UNL     1       7.917   4.355  17.042  0.00  0.00    +0.000 OA
ATOM      2  C   UNL     1       6.719   4.454  16.814  0.00  0.00    +0.000 C 
ATOM      3  N   UNL     1       6.182   4.688  15.575  0.00  0.00    +0.000 N 
ATOM      4  H   UNL     1       5.185   4.776  15.449  0.00  0.00    +0.000 HD
ENDROOT
BRANCH   2   5
ATOM      5  C   UNL     1       5.687   4.317  17.873  0.00  0.00    +0.000 C 
ATOM      6  C   UNL     1       4.399   4.150  17.536  0.00  0.00    +0.000 C 
BRANCH   6   7
ATOM      7  C   UNL     1       3.344   4.031  18.556  0.00  0.00    +0.000 A 
ATOM      8  C   UNL     1       2.930   2.770  19.026  0.00  0.00    +0.000 A 
ATOM      9 CL   UNL     1       3.663   1.301  18.473  0.00  0.00    +0.000 Cl
ATOM     10  C   UNL     1       1.900   2.655  19.969  0.00  0.00    +0.000 A 
ATOM     11  C   UNL     1       1.269   3.793  20.463  0.00  0.00    +0.000 A 
ATOM     12  C   UNL     1       1.674   5.051  20.021  0.00  0.00    +0.000 A 
ATOM     13  C   UNL     1       2.702   5.171  19.078  0.00  0.00    +0.000 A 
ATOM     14 CL   UNL     1       3.143   6.773  18.588  0.00  0.00    +0.000 Cl
ENDBRANCH   6   7
ENDBRANCH   2   5
BRANCH   3  15
ATOM     15  C   UNL     1       7.004   4.822  14.394  0.00  0.00    +0.000 C 
BRANCH  15  16
ATOM     16  C   UNL     1       6.370   4.058  13.291  0.00  0.00    +0.000 A 
ATOM     17  C   UNL     1       6.873   3.380  12.201  0.00  0.00    +0.000 A 
ATOM     18  C   UNL     1       5.758   2.846  11.511  0.00  0.00    +0.000 A 
ATOM     19  C   UNL     1       4.646   3.233  12.224  0.00  0.00    +0.000 A 
ATOM     20  O   UNL     1       5.006   3.975  13.303  0.00  0.00    +0.000 OA
ENDBRANCH  15  16
ENDBRANCH   3  15
TORSDOF 4
ENDMDL
MODEL 3
REMARK VINA RESULT:      -7.2      1.450      1.762
REMARK  Name = 
REMARK  4 active torsions:
REMARK  status: ('A' for Active; 'I' for Inactive)
REMARK    1  A    between atoms: C_2  and  C_3
REMARK    2  A    between atoms: C_4  and  C_5
REMARK    3  A    between atoms: N_13  and  C_14
REMARK    4  A    between atoms: C_14  and  C_15
REMARK                            x       y       z     vdW  Elec       q    Type
REMARK                         _______ _______ _______ _____ _____    ______ ____
ROOT
ATOM      1  O   UNL     1       7.784   4.377  16.515  0.00  0.00    +0.000 OA
ATOM      2  C   UNL     1       6.573   4.365  16.342  0.00  0.00    +0.000 C 
ATOM      3  N   UNL     1       5.965   4.401  15.115  0.00  0.00    +0.000 N 
ATOM      4  H   UNL     1       4.959   4.404  15.033  0.00  0.00    +0.000 HD
ENDROOT
BRANCH   2   5
ATOM      5  C   UNL     1       5.603   4.296  17.465  0.00  0.00    +0.000 C 
ATOM      6  C   UNL     1       4.288   4.222  17.211  0.00  0.00    +0.000 C 
BRANCH   6   7
ATOM      7  C   UNL     1       3.294   4.173  18.296  0.00  0.00    +0.000 A 
ATOM      8  C   UNL     1       2.731   5.354  18.815  0.00  0.00    +0.000 A 
ATOM      9 CL   UNL     1       3.135   6.916  18.183  0.00  0.00    +0.000 Cl
ATOM     10  C   UNL     1       1.812   5.311  19.872  0.00  0.00    +0.000 A 
ATOM     11  C   UNL     1       1.436   4.090  20.426  0.00  0.00    +0.000 A 
ATOM     12  C   UNL     1       1.971   2.909  19.916  0.00  0.00    +0.000 A 
ATOM     13  C   UNL     1       2.891   2.948  18.860  0.00  0.00    +0.000 A 
ATOM     14 CL   UNL     1       3.501   1.432  18.287  0.00  0.00    +0.000 Cl
ENDBRANCH   6   7
ENDBRANCH   2   5
BRANCH   3  15
ATOM     15  C   UNL     1       6.719   4.438  13.883  0.00  0.00    +0.000 C 
BRANCH  15  16
ATOM     16  C   UNL     1       5.975   3.672  12.853  0.00  0.00    +0.000 A 
ATOM     17  C   UNL     1       4.680   3.734  12.382  0.00  0.00    +0.000 A 
ATOM     18  C   UNL     1       4.569   2.737  11.383  0.00  0.00    +0.000 A 
ATOM     19  C   UNL     1       5.802   2.131  11.309  0.00  0.00    +0.000 A 
ATOM     20  O   UNL     1       6.661   2.686  12.202  0.00  0.00    +0.000 OA
ENDBRANCH  15  16
ENDBRANCH   3  15
TORSDOF 4
ENDMDL
MODEL 4
REMARK VINA RESULT:      -7.1      1.514      1.773
REMARK  Name = 
REMARK  4 active torsions:
REMARK  status: ('A' for Active; 'I' for Inactive)
REMARK    1  A    between atoms: C_2  and  C_3
REMARK    2  A    between atoms: C_4  and  C_5
REMARK    3  A    between atoms: N_13  and  C_14
REMARK    4  A    between atoms: C_14  and  C_15
REMARK                            x       y       z     vdW  Elec       q    Type
REMARK                         _______ _______ _______ _____ _____    ______ ____
ROOT
ATOM      1  O   UNL     1       5.357   6.611  15.792  0.00  0.00    +0.000 OA
ATOM      2  C   UNL     1       5.456   5.462  16.200  0.00  0.00    +0.000 C 
ATOM      3  N   UNL     1       6.194   4.483  15.589  0.00  0.00    +0.000 N 
ATOM      4  H   UNL     1       6.227   3.546  15.963  0.00  0.00    +0.000 HD
ENDROOT
BRANCH   2   5
ATOM      5  C   UNL     1       4.782   4.989  17.436  0.00  0.00    +0.000 C 
ATOM      6  C   UNL     1       3.453   4.808  17.448  0.00  0.00    +0.000 C 
BRANCH   6   7
ATOM      7  C   UNL     1       2.745   4.360  18.659  0.00  0.00    +0.000 A 
ATOM      8  C   UNL     1       2.239   5.290  19.587  0.00  0.00    +0.000 A 
ATOM      9 CL   UNL     1       2.375   6.999  19.337  0.00  0.00    +0.000 Cl
ATOM     10  C   UNL     1       1.598   4.865  20.757  0.00  0.00    +0.000 A 
ATOM     11  C   UNL     1       1.447   3.506  21.021  0.00  0.00    +0.000 A 
ATOM     12  C   UNL     1       1.929   2.570  20.109  0.00  0.00    +0.000 A 
ATOM     13  C   UNL     1       2.571   2.991  18.937  0.00  0.00    +0.000 A 
ATOM     14 CL   UNL     1       3.135   1.759  17.858  0.00  0.00    +0.000 Cl
ENDBRANCH   6   7
ENDBRANCH   2   5
BRANCH   3  15
ATOM     15  C   UNL     1       6.959   4.733  14.388  0.00  0.00    +0.000 C 
BRANCH  15  16
ATOM     16  C   UNL     1       6.327   3.995  13.267  0.00  0.00    +0.000 A 
ATOM     17  C   UNL     1       6.834   3.283  12.199  0.00  0.00    +0.000 A 
ATOM     18  C   UNL     1       5.718   2.803  11.471  0.00  0.00    +0.000 A 
ATOM     19  C   UNL     1       4.603   3.254  12.139  0.00  0.00    +0.000 A 
ATOM     20  O   UNL     1       4.962   3.984  13.227  0.00  0.00    +0.000 OA
ENDBRANCH  15  16
ENDBRANCH   3  15
TORSDOF 4
ENDMDL
MODEL 5
REMARK VINA RESULT:      -7.1      1.573      2.791
REMARK  Name = 
REMARK  4 active torsions:
REMARK  status: ('A' for Active; 'I' for Inactive)
REMARK    1  A    between atoms: C_2  and  C_3
REMARK    2  A    between atoms: C_4  and  C_5
REMARK    3  A    between atoms: N_13  and  C_14
REMARK    4  A    between atoms: C_14  and  C_15
REMARK                            x       y       z     vdW  Elec       q    Type
REMARK                         _______ _______ _______ _____ _____    ______ ____
ROOT
ATOM      1  O   UNL     1       5.266   6.623  15.617  0.00  0.00    +0.000 OA
ATOM      2  C   UNL     1       5.420   5.494  16.064  0.00  0.00    +0.000 C 
ATOM      3  N   UNL     1       6.198   4.529  15.481  0.00  0.00    +0.000 N 
ATOM      4  H   UNL     1       6.275   3.608  15.887  0.00  0.00    +0.000 HD
ENDROOT
BRANCH   2   5
ATOM      5  C   UNL     1       4.775   5.034  17.321  0.00  0.00    +0.000 C 
ATOM      6  C   UNL     1       3.447   4.854  17.366  0.00  0.00    +0.000 C 
BRANCH   6   7
ATOM      7  C   UNL     1       2.768   4.419  18.598  0.00  0.00    +0.000 A 
ATOM      8  C   UNL     1       2.583   3.051  18.878  0.00  0.00    +0.000 A 
ATOM      9 CL   UNL     1       3.179   1.812  17.824  0.00  0.00    +0.000 Cl
ATOM     10  C   UNL     1       1.905   2.637  20.032  0.00  0.00    +0.000 A 
ATOM     11  C   UNL     1       1.404   3.578  20.927  0.00  0.00    +0.000 A 
ATOM     12  C   UNL     1       1.590   4.935  20.675  0.00  0.00    +0.000 A 
ATOM     13  C   UNL     1       2.266   5.353  19.522  0.00  0.00    +0.000 A 
ATOM     14 CL   UNL     1       2.454   7.060  19.291  0.00  0.00    +0.000 Cl
ENDBRANCH   6   7
ENDBRANCH   2   5
BRANCH   3  15
ATOM     15  C   UNL     1       6.943   4.771  14.267  0.00  0.00    +0.000 C 
BRANCH  15  16
ATOM     16  C   UNL     1       6.335   3.972  13.174  0.00  0.00    +0.000 A 
ATOM     17  C   UNL     1       6.864   3.234  12.136  0.00  0.00    +0.000 A 
ATOM     18  C   UNL     1       5.764   2.694  11.427  0.00  0.00    +0.000 A 
ATOM     19  C   UNL     1       4.635   3.138  12.076  0.00  0.00    +0.000 A 
ATOM     20  O   UNL     1       4.970   3.920  13.135  0.00  0.00    +0.000 OA
ENDBRANCH  15  16
ENDBRANCH   3  15
TORSDOF 4
ENDMDL
MODEL 6
REMARK VINA RESULT:      -7.1      1.383      1.601
REMARK  Name = 
REMARK  4 active torsions:
REMARK  status: ('A' for Active; 'I' for Inactive)
REMARK    1  A    between atoms: C_2  and  C_3
REMARK    2  A    between atoms: C_4  and  C_5
REMARK    3  A    between atoms: N_13  and  C_14
REMARK    4  A    between atoms: C_14  and  C_15
REMARK                            x       y       z     vdW  Elec       q    Type
REMARK                         _______ _______ _______ _____ _____    ______ ____
ROOT
ATOM      1  O   UNL     1       5.129   6.779  15.670  0.00  0.00    +0.000 OA
ATOM      2  C   UNL     1       5.094   5.667  16.179  0.00  0.00    +0.000 C 
ATOM      3  N   UNL     1       6.094   4.737  16.079  0.00  0.00    +0.000 N 
ATOM      4  H   UNL     1       6.004   3.828  16.508  0.00  0.00    +0.000 HD
ENDROOT
BRANCH   2   5
ATOM      5  C   UNL     1       3.944   5.193  16.992  0.00  0.00    +0.000 C 
ATOM      6  C   UNL     1       4.157   4.641  18.195  0.00  0.00    +0.000 C 
BRANCH   6   7
ATOM      7  C   UNL     1       3.046   4.140  19.022  0.00  0.00    +0.000 A 
ATOM      8  C   UNL     1       2.280   5.017  19.813  0.00  0.00    +0.000 A 
ATOM      9 CL   UNL     1       2.565   6.726  19.824  0.00  0.00    +0.000 Cl
ATOM     10  C   UNL     1       1.246   4.537  20.628  0.00  0.00    +0.000 A 
ATOM     11  C   UNL     1       0.956   3.176  20.665  0.00  0.00    +0.000 A 
ATOM     12  C   UNL     1       1.693   2.293  19.878  0.00  0.00    +0.000 A 
ATOM     13  C   UNL     1       2.728   2.769  19.063  0.00  0.00    +0.000 A 
ATOM     14 CL   UNL     1       3.589   1.602  18.116  0.00  0.00    +0.000 Cl
ENDBRANCH   6   7
ENDBRANCH   2   5
BRANCH   3  15
ATOM     15  C   UNL     1       7.320   5.000  15.361  0.00  0.00    +0.000 C 
BRANCH  15  16
ATOM     16  C   UNL     1       7.132   4.600  13.945  0.00  0.00    +0.000 A 
ATOM     17  C   UNL     1       7.699   5.021  12.761  0.00  0.00    +0.000 A 
ATOM     18  C   UNL     1       7.106   4.246  11.734  0.00  0.00    +0.000 A 
ATOM     19  C   UNL     1       6.215   3.404  12.357  0.00  0.00    +0.000 A 
ATOM     20  O   UNL     1       6.218   3.615  13.699  0.00  0.00    +0.000 OA
ENDBRANCH  15  16
ENDBRANCH   3  15
TORSDOF 4
ENDMDL
MODEL 7
REMARK VINA RESULT:      -7.1      1.020      2.089
REMARK  Name = 
REMARK  4 active torsions:
REMARK  status: ('A' for Active; 'I' for Inactive)
REMARK    1  A    between atoms: C_2  and  C_3
REMARK    2  A    between atoms: C_4  and  C_5
REMARK    3  A    between atoms: N_13  and  C_14
REMARK    4  A    between atoms: C_14  and  C_15
REMARK                            x       y       z     vdW  Elec       q    Type
REMARK                         _______ _______ _______ _____ _____    ______ ____
ROOT
ATOM      1  O   UNL     1       8.058   4.469  17.896  0.00  0.00    +0.000 OA
ATOM      2  C   UNL     1       6.874   4.593  17.615  0.00  0.00    +0.000 C 
ATOM      3  N   UNL     1       6.398   4.835  16.354  0.00  0.00    +0.000 N 
ATOM      4  H   UNL     1       5.409   4.944  16.184  0.00  0.00    +0.000 HD
ENDROOT
BRANCH   2   5
ATOM      5  C   UNL     1       5.794   4.484  18.629  0.00  0.00    +0.000 C 
ATOM      6  C   UNL     1       4.604   3.969  18.287  0.00  0.00    +0.000 C 
BRANCH   6   7
ATOM      7  C   UNL     1       3.501   3.862  19.257  0.00  0.00    +0.000 A 
ATOM      8  C   UNL     1       3.494   2.851  20.236  0.00  0.00    +0.000 A 
ATOM      9 CL   UNL     1       4.793   1.714  20.387  0.00  0.00    +0.000 Cl
ATOM     10  C   UNL     1       2.428   2.726  21.136  0.00  0.00    +0.000 A 
ATOM     11  C   UNL     1       1.353   3.609  21.078  0.00  0.00    +0.000 A 
ATOM     12  C   UNL     1       1.347   4.625  20.125  0.00  0.00    +0.000 A 
ATOM     13  C   UNL     1       2.411   4.753  19.223  0.00  0.00    +0.000 A 
ATOM     14 CL   UNL     1       2.323   6.047  18.075  0.00  0.00    +0.000 Cl
ENDBRANCH   6   7
ENDBRANCH   2   5
BRANCH   3  15
ATOM     15  C   UNL     1       7.272   4.946  15.210  0.00  0.00    +0.000 C 
BRANCH  15  16
ATOM     16  C   UNL     1       6.588   4.352  14.035  0.00  0.00    +0.000 A 
ATOM     17  C   UNL     1       5.287   3.961  13.797  0.00  0.00    +0.000 A 
ATOM     18  C   UNL     1       5.252   3.469  12.470  0.00  0.00    +0.000 A 
ATOM     19  C   UNL     1       6.533   3.589  11.984  0.00  0.00    +0.000 A 
ATOM     20  O   UNL     1       7.354   4.118  12.928  0.00  0.00    +0.000 OA
ENDBRANCH  15  16
ENDBRANCH   3  15
TORSDOF 4
ENDMDL
MODEL 8
REMARK VINA RESULT:      -7.0      1.259      2.485
REMARK  Name = 
REMARK  4 active torsions:
REMARK  status: ('A' for Active; 'I' for Inactive)
REMARK    1  A    between atoms: C_2  and  C_3
REMARK    2  A    between atoms: C_4  and  C_5
REMARK    3  A    between atoms: N_13  and  C_14
REMARK    4  A    between atoms: C_14  and  C_15
REMARK                            x       y       z     vdW  Elec       q    Type
REMARK                         _______ _______ _______ _____ _____    ______ ____
ROOT
ATOM      1  O   UNL     1       5.105   6.796  15.792  0.00  0.00    +0.000 OA
ATOM      2  C   UNL     1       5.079   5.671  16.271  0.00  0.00    +0.000 C 
ATOM      3  N   UNL     1       6.086   4.751  16.147  0.00  0.00    +0.000 N 
ATOM      4  H   UNL     1       6.002   3.831  16.552  0.00  0.00    +0.000 HD
ENDROOT
BRANCH   2   5
ATOM      5  C   UNL     1       3.932   5.167  17.071  0.00  0.00    +0.000 C 
ATOM      6  C   UNL     1       4.138   4.678  18.303  0.00  0.00    +0.000 C 
BRANCH   6   7
ATOM      7  C   UNL     1       3.032   4.151  19.118  0.00  0.00    +0.000 A 
ATOM      8  C   UNL     1       2.738   2.774  19.136  0.00  0.00    +0.000 A 
ATOM      9 CL   UNL     1       3.683   1.625  18.247  0.00  0.00    +0.000 Cl
ATOM     10  C   UNL     1       1.663   2.275  19.883  0.00  0.00    +0.000 A 
ATOM     11  C   UNL     1       0.865   3.139  20.627  0.00  0.00    +0.000 A 
ATOM     12  C   UNL     1       1.148   4.503  20.634  0.00  0.00    +0.000 A 
ATOM     13  C   UNL     1       2.221   5.006  19.888  0.00  0.00    +0.000 A 
ATOM     14 CL   UNL     1       2.501   6.714  19.958  0.00  0.00    +0.000 Cl
ENDBRANCH   6   7
ENDBRANCH   2   5
BRANCH   3  15
ATOM     15  C   UNL     1       7.310   5.042  15.437  0.00  0.00    +0.000 C 
BRANCH  15  16
ATOM     16  C   UNL     1       7.131   4.659  14.015  0.00  0.00    +0.000 A 
ATOM     17  C   UNL     1       6.357   3.709  13.382  0.00  0.00    +0.000 A 
ATOM     18  C   UNL     1       6.619   3.835  11.996  0.00  0.00    +0.000 A 
ATOM     19  C   UNL     1       7.537   4.853  11.872  0.00  0.00    +0.000 A 
ATOM     20  O   UNL     1       7.859   5.356  13.092  0.00  0.00    +0.000 OA
ENDBRANCH  15  16
ENDBRANCH   3  15
TORSDOF 4
ENDMDL
MODEL 9
REMARK VINA RESULT:      -6.8      0.695      2.279
REMARK  Name = 
REMARK  4 active torsions:
REMARK  status: ('A' for Active; 'I' for Inactive)
REMARK    1  A    between atoms: C_2  and  C_3
REMARK    2  A    between atoms: C_4  and  C_5
REMARK    3  A    between atoms: N_13  and  C_14
REMARK    4  A    between atoms: C_14  and  C_15
REMARK                            x       y       z     vdW  Elec       q    Type
REMARK                         _______ _______ _______ _____ _____    ______ ____
ROOT
ATOM      1  O   UNL     1       7.633   5.417  18.386  0.00  0.00    +0.000 OA
ATOM      2  C   UNL     1       6.582   5.024  17.899  0.00  0.00    +0.000 C 
ATOM      3  N   UNL     1       6.329   4.955  16.554  0.00  0.00    +0.000 N 
ATOM      4  H   UNL     1       5.436   4.636  16.209  0.00  0.00    +0.000 HD
ENDROOT
BRANCH   2   5
ATOM      5  C   UNL     1       5.440   4.556  18.726  0.00  0.00    +0.000 C 
ATOM      6  C   UNL     1       4.222   4.435  18.178  0.00  0.00    +0.000 C 
BRANCH   6   7
ATOM      7  C   UNL     1       3.060   3.994  18.969  0.00  0.00    +0.000 A 
ATOM      8  C   UNL     1       2.699   2.635  19.028  0.00  0.00    +0.000 A 
ATOM      9 CL   UNL     1       3.619   1.407  18.222  0.00  0.00    +0.000 Cl
ATOM     10  C   UNL     1       1.573   2.218  19.750  0.00  0.00    +0.000 A 
ATOM     11  C   UNL     1       0.791   3.149  20.428  0.00  0.00    +0.000 A 
ATOM     12  C   UNL     1       1.139   4.497  20.393  0.00  0.00    +0.000 A 
ATOM     13  C   UNL     1       2.264   4.917  19.672  0.00  0.00    +0.000 A 
ATOM     14 CL   UNL     1       2.625   6.612  19.686  0.00  0.00    +0.000 Cl
ENDBRANCH   6   7
ENDBRANCH   2   5
BRANCH   3  15
ATOM     15  C   UNL     1       7.313   5.331  15.566  0.00  0.00    +0.000 C 
BRANCH  15  16
ATOM     16  C   UNL     1       6.937   4.716  14.269  0.00  0.00    +0.000 A 
ATOM     17  C   UNL     1       7.471   4.787  12.999  0.00  0.00    +0.000 A 
ATOM     18  C   UNL     1       6.662   3.964  12.178  0.00  0.00    +0.000 A 
ATOM     19  C   UNL     1       5.687   3.446  12.998  0.00  0.00    +0.000 A 
ATOM     20  O   UNL     1       5.841   3.901  14.269  0.00  0.00    +0.000 OA
ENDBRANCH  15  16
ENDBRANCH   3  15
TORSDOF 4
ENDMDL
