MODEL 1
REMARK VINA RESULT:      -8.7      0.000      0.000
REMARK  Name = 
REMARK  6 active torsions:
REMARK  status: ('A' for Active; 'I' for Inactive)
REMARK    1  A    between atoms: C_1  and  O_2
REMARK    2  A    between atoms: O_2  and  C_3
REMARK    3  A    between atoms: C_6  and  N_7
REMARK    4  A    between atoms: N_7  and  C_8
REMARK    5  A    between atoms: C_13  and  C_14
REMARK    6  A    between atoms: C_16  and  C_17
REMARK                            x       y       z     vdW  Elec       q    Type
REMARK                         _______ _______ _______ _____ _____    ______ ____
ROOT
ATOM      1  C   UNL     1       2.775   4.650  19.649  0.00  0.00    +0.000 A 
ATOM      2  C   UNL     1       1.512   4.126  19.968  0.00  0.00    +0.000 A 
ATOM      3  C   UNL     1       1.162   2.832  19.607  0.00  0.00    +0.000 A 
ATOM      4  C   UNL     1       2.072   2.101  18.872  0.00  0.00    +0.000 A 
ATOM      5  N   UNL     1       3.272   2.575  18.481  0.00  0.00    +0.000 NA
ATOM      6  C   UNL     1       3.630   3.845  18.857  0.00  0.00    +0.000 A 
ENDROOT
BRANCH   6   7
ATOM      7  C   UNL     1       4.982   4.280  18.427  0.00  0.00    +0.000 A 
ATOM      8  N   UNL     1       5.280   4.177  17.121  0.00  0.00    +0.000 NA
ATOM      9  C   UNL     1       6.490   4.621  16.786  0.00  0.00    +0.000 A 
ATOM     10  C   UNL     1       6.874   4.574  15.340  0.00  0.00    +0.000 C 
ATOM     11  N   UNL     1       7.389   5.099  17.646  0.00  0.00    +0.000 NA
ATOM     12  C   UNL     1       7.009   5.116  18.914  0.00  0.00    +0.000 A 
ATOM     13  N   UNL     1       7.921   5.570  19.845  0.00  0.00    +0.000 N 
ATOM     14  N   UNL     1       5.820   4.751  19.356  0.00  0.00    +0.000 NA
ATOM     15  H   UNL     1       8.602   6.177  19.412  0.00  0.00    +0.000 HD
ATOM     16  H   UNL     1       7.441   5.912  20.666  0.00  0.00    +0.000 HD
ENDBRANCH   6   7
BRANCH   1  17
ATOM     17  N   UNL     1       3.110   5.973  20.076  0.00  0.00    +0.000 N 
ATOM     18  H   UNL     1       3.149   6.005  21.102  0.00  0.00    +0.000 HD
BRANCH  17  22
ATOM     19  C   UNL     1       1.145   9.415  18.794  0.00  0.00    +0.000 A 
ATOM     20  C   UNL     1       1.882   8.697  17.862  0.00  0.00    +0.000 A 
ATOM     21  C   UNL     1       2.548   7.544  18.289  0.00  0.00    +0.000 A 
ATOM     22  C   UNL     1       2.436   7.131  19.616  0.00  0.00    +0.000 A 
ATOM     23  C   UNL     1       1.711   7.962  20.471  0.00  0.00    +0.000 A 
ATOM     24  N   UNL     1       1.052   9.071  20.091  0.00  0.00    +0.000 NA
BRANCH  19  26
ATOM     25  C   UNL     1      -0.528  10.953  19.281  0.00  0.00    +0.000 C 
ATOM     26  O   UNL     1       0.489  10.550  18.363  0.00  0.00    +0.000 OA
ENDBRANCH  19  26
ENDBRANCH  17  22
ENDBRANCH   1  17
TORSDOF 4
ENDMDL
MODEL 2
REMARK VINA RESULT:      -8.5      0.624      1.032
REMARK  Name = 
REMARK  6 active torsions:
REMARK  status: ('A' for Active; 'I' for Inactive)
REMARK    1  A    between atoms: C_1  and  O_2
REMARK    2  A    between atoms: O_2  and  C_3
REMARK    3  A    between atoms: C_6  and  N_7
REMARK    4  A    between atoms: N_7  and  C_8
REMARK    5  A    between atoms: C_13  and  C_14
REMARK    6  A    between atoms: C_16  and  C_17
REMARK                            x       y       z     vdW  Elec       q    Type
REMARK                         _______ _______ _______ _____ _____    ______ ____
ROOT
ATOM      1  C   UNL     1       2.714   4.749  19.708  0.00  0.00    +0.000 A 
ATOM      2  C   UNL     1       1.440   4.268  20.048  0.00  0.00    +0.000 A 
ATOM      3  C   UNL     1       1.048   2.981  19.708  0.00  0.00    +0.000 A 
ATOM      4  C   UNL     1       1.926   2.214  18.971  0.00  0.00    +0.000 A 
ATOM      5  N   UNL     1       3.135   2.647  18.560  0.00  0.00    +0.000 NA
ATOM      6  C   UNL     1       3.535   3.910  18.915  0.00  0.00    +0.000 A 
ENDROOT
BRANCH   6   7
ATOM      7  C   UNL     1       4.894   4.300  18.464  0.00  0.00    +0.000 A 
ATOM      8  N   UNL     1       5.179   4.153  17.159  0.00  0.00    +0.000 NA
ATOM      9  C   UNL     1       6.397   4.559  16.803  0.00  0.00    +0.000 A 
ATOM     10  C   UNL     1       6.768   4.463  15.357  0.00  0.00    +0.000 C 
ATOM     11  N   UNL     1       7.314   5.037  17.643  0.00  0.00    +0.000 NA
ATOM     12  C   UNL     1       6.944   5.098  18.913  0.00  0.00    +0.000 A 
ATOM     13  N   UNL     1       7.874   5.554  19.825  0.00  0.00    +0.000 N 
ATOM     14  N   UNL     1       5.751   4.775  19.374  0.00  0.00    +0.000 NA
ATOM     15  H   UNL     1       8.567   6.132  19.370  0.00  0.00    +0.000 HD
ATOM     16  H   UNL     1       7.410   5.930  20.640  0.00  0.00    +0.000 HD
ENDBRANCH   6   7
BRANCH   1  17
ATOM     17  N   UNL     1       3.093   6.067  20.114  0.00  0.00    +0.000 N 
ATOM     18  H   UNL     1       3.191   6.098  21.137  0.00  0.00    +0.000 HD
BRANCH  17  22
ATOM     19  C   UNL     1       1.079   9.469  18.802  0.00  0.00    +0.000 A 
ATOM     20  C   UNL     1       0.947   9.104  20.135  0.00  0.00    +0.000 A 
ATOM     21  C   UNL     1       1.616   7.959  20.579  0.00  0.00    +0.000 A 
ATOM     22  C   UNL     1       2.413   7.236  19.692  0.00  0.00    +0.000 A 
ATOM     23  C   UNL     1       2.427   7.670  18.366  0.00  0.00    +0.000 A 
ATOM     24  N   UNL     1       1.802   8.770  17.910  0.00  0.00    +0.000 NA
BRANCH  19  26
ATOM     25  C   UNL     1      -1.001  10.432  18.417  0.00  0.00    +0.000 C 
ATOM     26  O   UNL     1       0.416  10.601  18.374  0.00  0.00    +0.000 OA
ENDBRANCH  19  26
ENDBRANCH  17  22
ENDBRANCH   1  17
TORSDOF 4
ENDMDL
MODEL 3
REMARK VINA RESULT:      -8.5      0.764      1.742
REMARK  Name = 
REMARK  6 active torsions:
REMARK  status: ('A' for Active; 'I' for Inactive)
REMARK    1  A    between atoms: C_1  and  O_2
REMARK    2  A    between atoms: O_2  and  C_3
REMARK    3  A    between atoms: C_6  and  N_7
REMARK    4  A    between atoms: N_7  and  C_8
REMARK    5  A    between atoms: C_13  and  C_14
REMARK    6  A    between atoms: C_16  and  C_17
REMARK                            x       y       z     vdW  Elec       q    Type
REMARK                         _______ _______ _______ _____ _____    ______ ____
ROOT
ATOM      1  C   UNL     1       2.595   4.750  19.738  0.00  0.00    +0.000 A 
ATOM      2  C   UNL     1       1.369   4.315  20.265  0.00  0.00    +0.000 A 
ATOM      3  C   UNL     1       0.911   3.024  20.040  0.00  0.00    +0.000 A 
ATOM      4  C   UNL     1       1.669   2.205  19.228  0.00  0.00    +0.000 A 
ATOM      5  N   UNL     1       2.820   2.591  18.641  0.00  0.00    +0.000 NA
ATOM      6  C   UNL     1       3.287   3.858  18.882  0.00  0.00    +0.000 A 
ENDROOT
BRANCH   6   7
ATOM      7  C   UNL     1       4.580   4.195  18.238  0.00  0.00    +0.000 A 
ATOM      8  N   UNL     1       5.492   4.844  18.981  0.00  0.00    +0.000 NA
ATOM      9  C   UNL     1       6.650   5.082  18.366  0.00  0.00    +0.000 A 
ATOM     10  C   UNL     1       7.726   5.766  19.148  0.00  0.00    +0.000 C 
ATOM     11  N   UNL     1       6.917   4.762  17.101  0.00  0.00    +0.000 NA
ATOM     12  C   UNL     1       5.933   4.164  16.446  0.00  0.00    +0.000 A 
ATOM     13  N   UNL     1       6.153   3.846  15.121  0.00  0.00    +0.000 N 
ATOM     14  N   UNL     1       4.766   3.832  16.965  0.00  0.00    +0.000 NA
ATOM     15  H   UNL     1       7.142   3.760  14.933  0.00  0.00    +0.000 HD
ATOM     16  H   UNL     1       5.553   3.082  14.841  0.00  0.00    +0.000 HD
ENDBRANCH   6   7
BRANCH   1  17
ATOM     17  N   UNL     1       3.049   6.074  20.029  0.00  0.00    +0.000 N 
ATOM     18  H   UNL     1       3.243   6.159  21.034  0.00  0.00    +0.000 HD
BRANCH  17  22
ATOM     19  C   UNL     1       1.059   9.539  18.850  0.00  0.00    +0.000 A 
ATOM     20  C   UNL     1       1.797   8.852  17.897  0.00  0.00    +0.000 A 
ATOM     21  C   UNL     1       2.471   7.692  18.289  0.00  0.00    +0.000 A 
ATOM     22  C   UNL     1       2.366   7.241  19.604  0.00  0.00    +0.000 A 
ATOM     23  C   UNL     1       1.639   8.043  20.485  0.00  0.00    +0.000 A 
ATOM     24  N   UNL     1       0.973   9.159  20.137  0.00  0.00    +0.000 NA
BRANCH  19  26
ATOM     25  C   UNL     1      -0.820  10.867  19.182  0.00  0.00    +0.000 C 
ATOM     26  O   UNL     1       0.395  10.682  18.453  0.00  0.00    +0.000 OA
ENDBRANCH  19  26
ENDBRANCH  17  22
ENDBRANCH   1  17
TORSDOF 4
ENDMDL
MODEL 4
REMARK VINA RESULT:      -8.4      3.490      5.275
REMARK  Name = 
REMARK  6 active torsions:
REMARK  status: ('A' for Active; 'I' for Inactive)
REMARK    1  A    between atoms: C_1  and  O_2
REMARK    2  A    between atoms: O_2  and  C_3
REMARK    3  A    between atoms: C_6  and  N_7
REMARK    4  A    between atoms: N_7  and  C_8
REMARK    5  A    between atoms: C_13  and  C_14
REMARK    6  A    between atoms: C_16  and  C_17
REMARK                            x       y       z     vdW  Elec       q    Type
REMARK                         _______ _______ _______ _____ _____    ______ ____
ROOT
ATOM      1  C   UNL     1       5.251   5.183  15.852  0.00  0.00    +0.000 A 
ATOM      2  C   UNL     1       4.770   4.543  14.699  0.00  0.00    +0.000 A 
ATOM      3  C   UNL     1       5.641   4.075  13.725  0.00  0.00    +0.000 A 
ATOM      4  C   UNL     1       6.989   4.316  13.897  0.00  0.00    +0.000 A 
ATOM      5  N   UNL     1       7.501   4.983  14.951  0.00  0.00    +0.000 NA
ATOM      6  C   UNL     1       6.645   5.425  15.927  0.00  0.00    +0.000 A 
ENDROOT
BRANCH   6   7
ATOM      7  C   UNL     1       7.286   6.111  17.075  0.00  0.00    +0.000 A 
ATOM      8  N   UNL     1       7.568   7.418  16.938  0.00  0.00    +0.000 NA
ATOM      9  C   UNL     1       8.103   7.993  18.014  0.00  0.00    +0.000 A 
ATOM     10  C   UNL     1       8.405   9.456  17.946  0.00  0.00    +0.000 C 
ATOM     11  N   UNL     1       8.397   7.356  19.148  0.00  0.00    +0.000 NA
ATOM     12  C   UNL     1       8.119   6.062  19.161  0.00  0.00    +0.000 A 
ATOM     13  N   UNL     1       8.439   5.354  20.302  0.00  0.00    +0.000 N 
ATOM     14  N   UNL     1       7.542   5.398  18.176  0.00  0.00    +0.000 NA
ATOM     15  H   UNL     1       8.486   5.969  21.102  0.00  0.00    +0.000 HD
ATOM     16  H   UNL     1       7.859   4.530  20.376  0.00  0.00    +0.000 HD
ENDBRANCH   6   7
BRANCH   1  17
ATOM     17  N   UNL     1       4.322   5.613  16.850  0.00  0.00    +0.000 N 
ATOM     18  H   UNL     1       4.747   6.353  17.422  0.00  0.00    +0.000 HD
BRANCH  17  22
ATOM     19  C   UNL     1       2.350   3.012  19.438  0.00  0.00    +0.000 A 
ATOM     20  C   UNL     1       1.613   3.611  18.426  0.00  0.00    +0.000 A 
ATOM     21  C   UNL     1       2.269   4.490  17.558  0.00  0.00    +0.000 A 
ATOM     22  C   UNL     1       3.636   4.719  17.709  0.00  0.00    +0.000 A 
ATOM     23  C   UNL     1       4.259   4.101  18.794  0.00  0.00    +0.000 A 
ATOM     24  N   UNL     1       3.659   3.245  19.641  0.00  0.00    +0.000 NA
BRANCH  19  26
ATOM     25  C   UNL     1       1.748   2.592  21.644  0.00  0.00    +0.000 C 
ATOM     26  O   UNL     1       1.694   2.145  20.288  0.00  0.00    +0.000 OA
ENDBRANCH  19  26
ENDBRANCH  17  22
ENDBRANCH   1  17
TORSDOF 4
ENDMDL
MODEL 5
REMARK VINA RESULT:      -8.1      1.060      2.066
REMARK  Name = 
REMARK  6 active torsions:
REMARK  status: ('A' for Active; 'I' for Inactive)
REMARK    1  A    between atoms: C_1  and  O_2
REMARK    2  A    between atoms: O_2  and  C_3
REMARK    3  A    between atoms: C_6  and  N_7
REMARK    4  A    between atoms: N_7  and  C_8
REMARK    5  A    between atoms: C_13  and  C_14
REMARK    6  A    between atoms: C_16  and  C_17
REMARK                            x       y       z     vdW  Elec       q    Type
REMARK                         _______ _______ _______ _____ _____    ______ ____
ROOT
ATOM      1  C   UNL     1       2.420   4.840  19.754  0.00  0.00    +0.000 A 
ATOM      2  C   UNL     1       1.247   4.192  20.173  0.00  0.00    +0.000 A 
ATOM      3  C   UNL     1       0.900   2.945  19.671  0.00  0.00    +0.000 A 
ATOM      4  C   UNL     1       1.711   2.394  18.700  0.00  0.00    +0.000 A 
ATOM      5  N   UNL     1       2.812   3.001  18.212  0.00  0.00    +0.000 NA
ATOM      6  C   UNL     1       3.171   4.221  18.724  0.00  0.00    +0.000 A 
ENDROOT
BRANCH   6   7
ATOM      7  C   UNL     1       4.417   4.805  18.169  0.00  0.00    +0.000 A 
ATOM      8  N   UNL     1       5.431   5.025  19.023  0.00  0.00    +0.000 NA
ATOM      9  C   UNL     1       6.539   5.509  18.463  0.00  0.00    +0.000 A 
ATOM     10  C   UNL     1       7.723   5.741  19.348  0.00  0.00    +0.000 C 
ATOM     11  N   UNL     1       6.669   5.811  17.172  0.00  0.00    +0.000 NA
ATOM     12  C   UNL     1       5.594   5.596  16.428  0.00  0.00    +0.000 A 
ATOM     13  N   UNL     1       5.670   5.927  15.091  0.00  0.00    +0.000 N 
ATOM     14  N   UNL     1       4.462   5.073  16.861  0.00  0.00    +0.000 NA
ATOM     15  H   UNL     1       6.630   5.928  14.777  0.00  0.00    +0.000 HD
ATOM     16  H   UNL     1       5.002   5.387  14.558  0.00  0.00    +0.000 HD
ENDBRANCH   6   7
BRANCH   1  17
ATOM     17  N   UNL     1       2.761   6.104  20.328  0.00  0.00    +0.000 N 
ATOM     18  H   UNL     1       2.694   6.048  21.352  0.00  0.00    +0.000 HD
BRANCH  17  22
ATOM     19  C   UNL     1       1.061   9.674  19.017  0.00  0.00    +0.000 A 
ATOM     20  C   UNL     1       0.823   9.278  20.326  0.00  0.00    +0.000 A 
ATOM     21  C   UNL     1       1.387   8.077  20.769  0.00  0.00    +0.000 A 
ATOM     22  C   UNL     1       2.187   7.329  19.907  0.00  0.00    +0.000 A 
ATOM     23  C   UNL     1       2.312   7.801  18.600  0.00  0.00    +0.000 A 
ATOM     24  N   UNL     1       1.790   8.955  18.145  0.00  0.00    +0.000 NA
BRANCH  19  26
ATOM     25  C   UNL     1      -0.830  11.024  19.077  0.00  0.00    +0.000 C 
ATOM     26  O   UNL     1       0.503  10.862  18.590  0.00  0.00    +0.000 OA
ENDBRANCH  19  26
ENDBRANCH  17  22
ENDBRANCH   1  17
TORSDOF 4
ENDMDL
MODEL 6
REMARK VINA RESULT:      -8.0      1.218      1.344
REMARK  Name = 
REMARK  6 active torsions:
REMARK  status: ('A' for Active; 'I' for Inactive)
REMARK    1  A    between atoms: C_1  and  O_2
REMARK    2  A    between atoms: O_2  and  C_3
REMARK    3  A    between atoms: C_6  and  N_7
REMARK    4  A    between atoms: N_7  and  C_8
REMARK    5  A    between atoms: C_13  and  C_14
REMARK    6  A    between atoms: C_16  and  C_17
REMARK                            x       y       z     vdW  Elec       q    Type
REMARK                         _______ _______ _______ _____ _____    ______ ____
ROOT
ATOM      1  C   UNL     1       3.114   4.905  19.230  0.00  0.00    +0.000 A 
ATOM      2  C   UNL     1       1.938   4.169  19.019  0.00  0.00    +0.000 A 
ATOM      3  C   UNL     1       1.955   2.987  18.290  0.00  0.00    +0.000 A 
ATOM      4  C   UNL     1       3.152   2.595  17.728  0.00  0.00    +0.000 A 
ATOM      5  N   UNL     1       4.298   3.297  17.843  0.00  0.00    +0.000 NA
ATOM      6  C   UNL     1       4.289   4.452  18.583  0.00  0.00    +0.000 A 
ENDROOT
BRANCH   6   7
ATOM      7  C   UNL     1       5.596   5.145  18.700  0.00  0.00    +0.000 A 
ATOM      8  N   UNL     1       5.914   6.034  17.743  0.00  0.00    +0.000 NA
ATOM      9  C   UNL     1       7.078   6.657  17.921  0.00  0.00    +0.000 A 
ATOM     10  C   UNL     1       7.477   7.689  16.915  0.00  0.00    +0.000 C 
ATOM     11  N   UNL     1       7.918   6.422  18.928  0.00  0.00    +0.000 NA
ATOM     12  C   UNL     1       7.527   5.496  19.790  0.00  0.00    +0.000 A 
ATOM     13  N   UNL     1       8.383   5.194  20.830  0.00  0.00    +0.000 N 
ATOM     14  N   UNL     1       6.376   4.852  19.744  0.00  0.00    +0.000 NA
ATOM     15  H   UNL     1       9.005   5.967  21.017  0.00  0.00    +0.000 HD
ATOM     16  H   UNL     1       7.865   4.809  21.608  0.00  0.00    +0.000 HD
ENDBRANCH   6   7
BRANCH   1  17
ATOM     17  N   UNL     1       3.059   6.095  20.022  0.00  0.00    +0.000 N 
ATOM     18  H   UNL     1       2.757   5.860  20.976  0.00  0.00    +0.000 HD
BRANCH  17  22
ATOM     19  C   UNL     1       1.084   9.584  18.891  0.00  0.00    +0.000 A 
ATOM     20  C   UNL     1       1.843   8.922  17.935  0.00  0.00    +0.000 A 
ATOM     21  C   UNL     1       2.513   7.754  18.312  0.00  0.00    +0.000 A 
ATOM     22  C   UNL     1       2.382   7.270  19.613  0.00  0.00    +0.000 A 
ATOM     23  C   UNL     1       1.635   8.048  20.498  0.00  0.00    +0.000 A 
ATOM     24  N   UNL     1       0.973   9.171  20.166  0.00  0.00    +0.000 NA
BRANCH  19  26
ATOM     25  C   UNL     1      -0.961  10.493  18.265  0.00  0.00    +0.000 C 
ATOM     26  O   UNL     1       0.425  10.735  18.510  0.00  0.00    +0.000 OA
ENDBRANCH  19  26
ENDBRANCH  17  22
ENDBRANCH   1  17
TORSDOF 4
ENDMDL
MODEL 7
REMARK VINA RESULT:      -8.0      1.114      1.167
REMARK  Name = 
REMARK  6 active torsions:
REMARK  status: ('A' for Active; 'I' for Inactive)
REMARK    1  A    between atoms: C_1  and  O_2
REMARK    2  A    between atoms: O_2  and  C_3
REMARK    3  A    between atoms: C_6  and  N_7
REMARK    4  A    between atoms: N_7  and  C_8
REMARK    5  A    between atoms: C_13  and  C_14
REMARK    6  A    between atoms: C_16  and  C_17
REMARK                            x       y       z     vdW  Elec       q    Type
REMARK                         _______ _______ _______ _____ _____    ______ ____
ROOT
ATOM      1  C   UNL     1       2.511   4.940  19.971  0.00  0.00    +0.000 A 
ATOM      2  C   UNL     1       1.387   4.384  20.601  0.00  0.00    +0.000 A 
ATOM      3  C   UNL     1       0.990   3.080  20.337  0.00  0.00    +0.000 A 
ATOM      4  C   UNL     1       1.698   2.372  19.388  0.00  0.00    +0.000 A 
ATOM      5  N   UNL     1       2.745   2.878  18.703  0.00  0.00    +0.000 NA
ATOM      6  C   UNL     1       3.154   4.157  18.980  0.00  0.00    +0.000 A 
ENDROOT
BRANCH   6   7
ATOM      7  C   UNL     1       4.338   4.627  18.219  0.00  0.00    +0.000 A 
ATOM      8  N   UNL     1       4.115   5.404  17.145  0.00  0.00    +0.000 NA
ATOM      9  C   UNL     1       5.214   5.832  16.526  0.00  0.00    +0.000 A 
ATOM     10  C   UNL     1       5.042   6.735  15.346  0.00  0.00    +0.000 C 
ATOM     11  N   UNL     1       6.458   5.508  16.877  0.00  0.00    +0.000 NA
ATOM     12  C   UNL     1       6.562   4.702  17.922  0.00  0.00    +0.000 A 
ATOM     13  N   UNL     1       7.831   4.311  18.300  0.00  0.00    +0.000 N 
ATOM     14  N   UNL     1       5.550   4.258  18.643  0.00  0.00    +0.000 NA
ATOM     15  H   UNL     1       8.520   4.978  17.982  0.00  0.00    +0.000 HD
ATOM     16  H   UNL     1       7.841   4.055  19.277  0.00  0.00    +0.000 HD
ENDBRANCH   6   7
BRANCH   1  17
ATOM     17  N   UNL     1       2.910   6.272  20.303  0.00  0.00    +0.000 N 
ATOM     18  H   UNL     1       3.122   6.328  21.307  0.00  0.00    +0.000 HD
BRANCH  17  22
ATOM     19  C   UNL     1       0.734   9.679  19.298  0.00  0.00    +0.000 A 
ATOM     20  C   UNL     1       1.535   9.103  18.322  0.00  0.00    +0.000 A 
ATOM     21  C   UNL     1       2.273   7.963  18.656  0.00  0.00    +0.000 A 
ATOM     22  C   UNL     1       2.166   7.421  19.936  0.00  0.00    +0.000 A 
ATOM     23  C   UNL     1       1.370   8.116  20.847  0.00  0.00    +0.000 A 
ATOM     24  N   UNL     1       0.643   9.210  20.555  0.00  0.00    +0.000 NA
BRANCH  19  26
ATOM     25  C   UNL     1       0.856  11.930  18.731  0.00  0.00    +0.000 C 
ATOM     26  O   UNL     1       0.009  10.803  18.958  0.00  0.00    +0.000 OA
ENDBRANCH  19  26
ENDBRANCH  17  22
ENDBRANCH   1  17
TORSDOF 4
ENDMDL
MODEL 8
REMARK VINA RESULT:      -7.9      1.640      1.889
REMARK  Name = 
REMARK  6 active torsions:
REMARK  status: ('A' for Active; 'I' for Inactive)
REMARK    1  A    between atoms: C_1  and  O_2
REMARK    2  A    between atoms: O_2  and  C_3
REMARK    3  A    between atoms: C_6  and  N_7
REMARK    4  A    between atoms: N_7  and  C_8
REMARK    5  A    between atoms: C_13  and  C_14
REMARK    6  A    between atoms: C_16  and  C_17
REMARK                            x       y       z     vdW  Elec       q    Type
REMARK                         _______ _______ _______ _____ _____    ______ ____
ROOT
ATOM      1  C   UNL     1       3.233   5.191  18.082  0.00  0.00    +0.000 A 
ATOM      2  C   UNL     1       2.076   4.414  17.915  0.00  0.00    +0.000 A 
ATOM      3  C   UNL     1       2.079   3.056  18.203  0.00  0.00    +0.000 A 
ATOM      4  C   UNL     1       3.271   2.485  18.598  0.00  0.00    +0.000 A 
ATOM      5  N   UNL     1       4.428   3.169  18.711  0.00  0.00    +0.000 NA
ATOM      6  C   UNL     1       4.422   4.515  18.450  0.00  0.00    +0.000 A 
ENDROOT
BRANCH   6   7
ATOM      7  C   UNL     1       5.721   5.207  18.639  0.00  0.00    +0.000 A 
ATOM      8  N   UNL     1       6.054   6.154  17.745  0.00  0.00    +0.000 NA
ATOM      9  C   UNL     1       7.209   6.772  17.988  0.00  0.00    +0.000 A 
ATOM     10  C   UNL     1       7.623   7.866  17.056  0.00  0.00    +0.000 C 
ATOM     11  N   UNL     1       8.028   6.482  18.998  0.00  0.00    +0.000 NA
ATOM     12  C   UNL     1       7.624   5.502  19.793  0.00  0.00    +0.000 A 
ATOM     13  N   UNL     1       8.458   5.143  20.833  0.00  0.00    +0.000 N 
ATOM     14  N   UNL     1       6.479   4.856  19.682  0.00  0.00    +0.000 NA
ATOM     15  H   UNL     1       9.071   5.907  21.080  0.00  0.00    +0.000 HD
ATOM     16  H   UNL     1       7.926   4.709  21.573  0.00  0.00    +0.000 HD
ENDBRANCH   6   7
BRANCH   1  17
ATOM     17  N   UNL     1       3.175   6.594  17.813  0.00  0.00    +0.000 N 
ATOM     18  H   UNL     1       4.128   6.968  17.723  0.00  0.00    +0.000 HD
BRANCH  17  22
ATOM     19  C   UNL     1       0.963   9.248  20.140  0.00  0.00    +0.000 A 
ATOM     20  C   UNL     1       1.174   9.567  18.806  0.00  0.00    +0.000 A 
ATOM     21  C   UNL     1       1.921   8.683  18.022  0.00  0.00    +0.000 A 
ATOM     22  C   UNL     1       2.407   7.502  18.583  0.00  0.00    +0.000 A 
ATOM     23  C   UNL     1       2.175   7.315  19.946  0.00  0.00    +0.000 A 
ATOM     24  N   UNL     1       1.454   8.141  20.725  0.00  0.00    +0.000 NA
BRANCH  19  26
ATOM     25  C   UNL     1      -0.015   9.613  22.217  0.00  0.00    +0.000 C 
ATOM     26  O   UNL     1       0.222  10.126  20.906  0.00  0.00    +0.000 OA
ENDBRANCH  19  26
ENDBRANCH  17  22
ENDBRANCH   1  17
TORSDOF 4
ENDMDL
MODEL 9
REMARK VINA RESULT:      -7.9      1.530      2.216
REMARK  Name = 
REMARK  6 active torsions:
REMARK  status: ('A' for Active; 'I' for Inactive)
REMARK    1  A    between atoms: C_1  and  O_2
REMARK    2  A    between atoms: O_2  and  C_3
REMARK    3  A    between atoms: C_6  and  N_7
REMARK    4  A    between atoms: N_7  and  C_8
REMARK    5  A    between atoms: C_13  and  C_14
REMARK    6  A    between atoms: C_16  and  C_17
REMARK                            x       y       z     vdW  Elec       q    Type
REMARK                         _______ _______ _______ _____ _____    ______ ____
ROOT
ATOM      1  C   UNL     1       2.994   5.382  18.388  0.00  0.00    +0.000 A 
ATOM      2  C   UNL     1       1.772   4.796  18.753  0.00  0.00    +0.000 A 
ATOM      3  C   UNL     1       1.449   3.507  18.352  0.00  0.00    +0.000 A 
ATOM      4  C   UNL     1       2.340   2.846  17.531  0.00  0.00    +0.000 A 
ATOM      5  N   UNL     1       3.497   3.384  17.095  0.00  0.00    +0.000 NA
ATOM      6  C   UNL     1       3.830   4.649  17.510  0.00  0.00    +0.000 A 
ENDROOT
BRANCH   6   7
ATOM      7  C   UNL     1       5.137   5.156  17.025  0.00  0.00    +0.000 A 
ATOM      8  N   UNL     1       5.878   5.877  17.883  0.00  0.00    +0.000 NA
ATOM      9  C   UNL     1       7.060   6.270  17.410  0.00  0.00    +0.000 A 
ATOM     10  C   UNL     1       7.956   7.043  18.325  0.00  0.00    +0.000 C 
ATOM     11  N   UNL     1       7.501   6.030  16.175  0.00  0.00    +0.000 NA
ATOM     12  C   UNL     1       6.673   5.348  15.398  0.00  0.00    +0.000 A 
ATOM     13  N   UNL     1       7.073   5.107  14.100  0.00  0.00    +0.000 N 
ATOM     14  N   UNL     1       5.504   4.865  15.773  0.00  0.00    +0.000 NA
ATOM     15  H   UNL     1       8.080   5.142  14.024  0.00  0.00    +0.000 HD
ATOM     16  H   UNL     1       6.603   4.291  13.735  0.00  0.00    +0.000 HD
ENDBRANCH   6   7
BRANCH   1  17
ATOM     17  N   UNL     1       3.305   6.696  18.858  0.00  0.00    +0.000 N 
ATOM     18  H   UNL     1       3.812   6.633  19.749  0.00  0.00    +0.000 HD
BRANCH  17  22
ATOM     19  C   UNL     1       0.510   9.762  19.229  0.00  0.00    +0.000 A 
ATOM     20  C   UNL     1       1.050   9.518  17.974  0.00  0.00    +0.000 A 
ATOM     21  C   UNL     1       1.993   8.494  17.845  0.00  0.00    +0.000 A 
ATOM     22  C   UNL     1       2.344   7.733  18.959  0.00  0.00    +0.000 A 
ATOM     23  C   UNL     1       1.774   8.104  20.178  0.00  0.00    +0.000 A 
ATOM     24  N   UNL     1       0.859   9.078  20.333  0.00  0.00    +0.000 NA
BRANCH  19  26
ATOM     25  C   UNL     1      -0.429  11.336  20.659  0.00  0.00    +0.000 C 
ATOM     26  O   UNL     1      -0.422  10.774  19.346  0.00  0.00    +0.000 OA
ENDBRANCH  19  26
ENDBRANCH  17  22
ENDBRANCH   1  17
TORSDOF 4
ENDMDL
