MODEL 1
REMARK VINA RESULT:      -8.5      0.000      0.000
REMARK  Name = 
REMARK  6 active torsions:
REMARK  status: ('A' for Active; 'I' for Inactive)
REMARK    1  A    between atoms: N_1  and  C_2
REMARK    2  A    between atoms: C_9  and  C_10
REMARK    3  A    between atoms: C_12  and  C_13
REMARK    4  A    between atoms: N_15  and  CA_16
REMARK    5  A    between atoms: CA_16  and  C_17
REMARK    6  A    between atoms: C_17  and  O_18
REMARK                            x       y       z     vdW  Elec       q    Type
REMARK                         _______ _______ _______ _____ _____    ______ ____
ROOT
ATOM      1  C   UNK A   1       2.639   7.259  18.424  0.00  0.00    +0.000 A 
ATOM      2  N   UNK A   1       3.554   7.262  17.390  0.00  0.00    +0.000 NA
ATOM      3  C   UNK A   1       4.385   6.197  17.220  0.00  0.00    +0.000 A 
ATOM      4  C   UNK A   1       4.491   5.146  18.101  0.00  0.00    +0.000 A 
ATOM      5  C   UNK A   1       3.490   5.065  19.064  0.00  0.00    +0.000 A 
ATOM      6  C   UNK A   1       2.502   6.050  19.133  0.00  0.00    +0.000 A 
ATOM      7  N   UNK A   1       1.524   5.537  19.972  0.00  0.00    +0.000 N 
ATOM      8  C   UNK A   1       1.888   4.277  20.428  0.00  0.00    +0.000 A 
ATOM      9  C   UNK A   1       1.189   3.282  21.126  0.00  0.00    +0.000 A 
ATOM     10  C   UNK A   1       1.913   2.152  21.548  0.00  0.00    +0.000 A 
ATOM     11  C   UNK A   1       3.284   2.040  21.325  0.00  0.00    +0.000 A 
ATOM     12  C   UNK A   1       3.943   2.996  20.558  0.00  0.00    +0.000 A 
ATOM     13  C   UNK A   1       3.214   4.090  20.054  0.00  0.00    +0.000 A 
ATOM     14  H   UNK A   1       0.630   5.980  20.142  0.00  0.00    +0.000 HD
ENDROOT
BRANCH   1  22
ATOM     15  C   UNK A   1      -0.519  11.438  21.821  0.00  0.00    +0.000 C 
ATOM     16  C   UNK A   1      -0.348  12.479  21.005  0.00  0.00    +0.000 C 
ATOM     17  C   UNK A   1       0.379  12.361  19.730  0.00  0.00    +0.000 C 
ATOM     18  O   UNK A   1       0.497  13.338  18.991  0.00  0.00    +0.000 OA
ATOM     19  C   UNK A   1       0.955  11.056  19.388  0.00  0.00    +0.000 A 
ATOM     20  C   UNK A   1       1.692  10.913  18.220  0.00  0.00    +0.000 A 
ATOM     21  C   UNK A   1       2.213   9.661  17.905  0.00  0.00    +0.000 A 
ATOM     22  C   UNK A   1       1.998   8.555  18.745  0.00  0.00    +0.000 A 
ATOM     23  N   UNK A   1       1.290   8.694  19.899  0.00  0.00    +0.000 NA
ATOM     24  C   UNK A   1       0.784   9.942  20.190  0.00  0.00    +0.000 A 
ATOM     25  C   UNK A   1       0.006  10.066  21.448  0.00  0.00    +0.000 C 
ATOM     26  O   UNK A   1      -0.239   9.102  22.162  0.00  0.00    +0.000 OA
BRANCH  15  27
ATOM     27  N   UNK A   1      -1.188  11.528  23.039  0.00  0.00    +0.000 N 
ATOM     28  H   UNK A   1      -0.876  10.873  23.751  0.00  0.00    +0.000 HD
ATOM     29  H   UNK A   1      -1.233  12.496  23.369  0.00  0.00    +0.000 HD
ENDBRANCH  15  27
ENDBRANCH   1  22
BRANCH   3  30
ATOM     30  C   UNK A   1       5.175   6.116  15.951  0.00  0.00    +0.000 C 
ATOM     31  O   UNK A   1       5.144   7.024  15.127  0.00  0.00    +0.000 OA
ATOM     32  N   GLY A   2       5.960   4.995  15.802  0.00  0.00    +0.000 N 
ATOM     33  H   GLY A   2       5.951   4.309  16.547  0.00  0.00    +0.000 HD
BRANCH  32  34
ATOM     34  CA  GLY A   2       6.805   4.815  14.633  0.00  0.00    +0.000 C 
BRANCH  34  35
ATOM     35  C   GLY A   2       6.179   3.882  13.596  0.00  0.00    +0.000 C 
BRANCH  35  36
ATOM     36  O   GLY A   2       6.884   3.974  12.359  0.00  0.00    +0.000 OA
ATOM     37  H   GLY A   2       7.571   4.650  12.494  0.00  0.00    +0.000 HD
ENDBRANCH  35  36
ENDBRANCH  34  35
ENDBRANCH  32  34
ENDBRANCH   3  30
TORSDOF 6
ENDMDL
MODEL 2
REMARK VINA RESULT:      -7.7      3.374      8.896
REMARK  Name = 
REMARK  6 active torsions:
REMARK  status: ('A' for Active; 'I' for Inactive)
REMARK    1  A    between atoms: N_1  and  C_2
REMARK    2  A    between atoms: C_9  and  C_10
REMARK    3  A    between atoms: C_12  and  C_13
REMARK    4  A    between atoms: N_15  and  CA_16
REMARK    5  A    between atoms: CA_16  and  C_17
REMARK    6  A    between atoms: C_17  and  O_18
REMARK                            x       y       z     vdW  Elec       q    Type
REMARK                         _______ _______ _______ _____ _____    ______ ____
ROOT
ATOM      1  C   UNK A   1       1.309   9.489  17.935  0.00  0.00    +0.000 A 
ATOM      2  N   UNK A   1      -0.013   9.236  17.629  0.00  0.00    +0.000 NA
ATOM      3  C   UNK A   1      -0.936  10.230  17.747  0.00  0.00    +0.000 A 
ATOM      4  C   UNK A   1      -0.681  11.465  18.296  0.00  0.00    +0.000 A 
ATOM      5  C   UNK A   1       0.663  11.776  18.481  0.00  0.00    +0.000 A 
ATOM      6  C   UNK A   1       1.649  10.835  18.176  0.00  0.00    +0.000 A 
ATOM      7  N   UNK A   1       2.846  11.534  18.186  0.00  0.00    +0.000 N 
ATOM      8  C   UNK A   1       2.625  12.868  18.500  0.00  0.00    +0.000 A 
ATOM      9  C   UNK A   1       3.450  14.002  18.457  0.00  0.00    +0.000 A 
ATOM     10  C   UNK A   1       2.932  15.203  18.974  0.00  0.00    +0.000 A 
ATOM     11  C   UNK A   1       1.665  15.262  19.551  0.00  0.00    +0.000 A 
ATOM     12  C   UNK A   1       0.830  14.149  19.508  0.00  0.00    +0.000 A 
ATOM     13  C   UNK A   1       1.303  12.963  18.915  0.00  0.00    +0.000 A 
ATOM     14  H   UNK A   1       3.737  11.143  17.905  0.00  0.00    +0.000 HD
ENDROOT
BRANCH   1  22
ATOM     15  C   UNK A   1       5.986   5.575  16.598  0.00  0.00    +0.000 C 
ATOM     16  C   UNK A   1       5.884   4.814  17.689  0.00  0.00    +0.000 C 
ATOM     17  C   UNK A   1       4.847   5.047  18.709  0.00  0.00    +0.000 C 
ATOM     18  O   UNK A   1       4.768   4.310  19.692  0.00  0.00    +0.000 OA
ATOM     19  C   UNK A   1       3.936   6.180  18.514  0.00  0.00    +0.000 A 
ATOM     20  C   UNK A   1       2.976   6.466  19.475  0.00  0.00    +0.000 A 
ATOM     21  C   UNK A   1       2.108   7.533  19.261  0.00  0.00    +0.000 A 
ATOM     22  C   UNK A   1       2.191   8.309  18.092  0.00  0.00    +0.000 A 
ATOM     23  N   UNK A   1       3.140   8.042  17.153  0.00  0.00    +0.000 NA
ATOM     24  C   UNK A   1       3.987   6.981  17.387  0.00  0.00    +0.000 A 
ATOM     25  C   UNK A   1       5.006   6.703  16.345  0.00  0.00    +0.000 C 
ATOM     26  O   UNK A   1       5.056   7.332  15.295  0.00  0.00    +0.000 OA
BRANCH  15  27
ATOM     27  N   UNK A   1       6.967   5.385  15.629  0.00  0.00    +0.000 N 
ATOM     28  H   UNK A   1       7.731   4.772  15.903  0.00  0.00    +0.000 HD
ATOM     29  H   UNK A   1       6.556   5.141  14.723  0.00  0.00    +0.000 HD
ENDBRANCH  15  27
ENDBRANCH   1  22
BRANCH   3  30
ATOM     30  C   UNK A   1      -2.296  10.000  17.167  0.00  0.00    +0.000 C 
ATOM     31  O   UNK A   1      -3.168   9.424  17.808  0.00  0.00    +0.000 OA
ATOM     32  N   GLY A   2      -2.508  10.513  15.908  0.00  0.00    +0.000 N 
ATOM     33  H   GLY A   2      -1.741  11.005  15.462  0.00  0.00    +0.000 HD
BRANCH  32  34
ATOM     34  CA  GLY A   2      -3.798  10.392  15.249  0.00  0.00    +0.000 C 
BRANCH  34  35
ATOM     35  C   GLY A   2      -3.670   9.976  13.783  0.00  0.00    +0.000 C 
BRANCH  35  36
ATOM     36  O   GLY A   2      -4.943   9.595  13.264  0.00  0.00    +0.000 OA
ATOM     37  H   GLY A   2      -5.587   9.795  13.966  0.00  0.00    +0.000 HD
ENDBRANCH  35  36
ENDBRANCH  34  35
ENDBRANCH  32  34
ENDBRANCH   3  30
TORSDOF 6
ENDMDL
MODEL 3
REMARK VINA RESULT:      -7.7      2.877      5.305
REMARK  Name = 
REMARK  6 active torsions:
REMARK  status: ('A' for Active; 'I' for Inactive)
REMARK    1  A    between atoms: N_1  and  C_2
REMARK    2  A    between atoms: C_9  and  C_10
REMARK    3  A    between atoms: C_12  and  C_13
REMARK    4  A    between atoms: N_15  and  CA_16
REMARK    5  A    between atoms: CA_16  and  C_17
REMARK    6  A    between atoms: C_17  and  O_18
REMARK                            x       y       z     vdW  Elec       q    Type
REMARK                         _______ _______ _______ _____ _____    ______ ____
ROOT
ATOM      1  C   UNK A   1       3.004   5.961  19.605  0.00  0.00    +0.000 A 
ATOM      2  N   UNK A   1       2.907   4.876  20.453  0.00  0.00    +0.000 NA
ATOM      3  C   UNK A   1       3.384   3.664  20.057  0.00  0.00    +0.000 A 
ATOM      4  C   UNK A   1       3.843   3.387  18.791  0.00  0.00    +0.000 A 
ATOM      5  C   UNK A   1       4.071   4.493  17.978  0.00  0.00    +0.000 A 
ATOM      6  C   UNK A   1       3.772   5.777  18.440  0.00  0.00    +0.000 A 
ATOM      7  N   UNK A   1       4.372   6.644  17.540  0.00  0.00    +0.000 N 
ATOM      8  C   UNK A   1       5.016   5.933  16.537  0.00  0.00    +0.000 A 
ATOM      9  C   UNK A   1       5.905   6.318  15.521  0.00  0.00    +0.000 A 
ATOM     10  C   UNK A   1       6.276   5.342  14.579  0.00  0.00    +0.000 A 
ATOM     11  C   UNK A   1       5.750   4.053  14.617  0.00  0.00    +0.000 A 
ATOM     12  C   UNK A   1       4.938   3.666  15.679  0.00  0.00    +0.000 A 
ATOM     13  C   UNK A   1       4.626   4.607  16.679  0.00  0.00    +0.000 A 
ATOM     14  H   UNK A   1       4.416   7.649  17.659  0.00  0.00    +0.000 HD
ENDROOT
BRANCH   1  22
ATOM     15  C   UNK A   1       0.397  11.583  18.845  0.00  0.00    +0.000 C 
ATOM     16  C   UNK A   1      -0.351  11.570  19.950  0.00  0.00    +0.000 C 
ATOM     17  C   UNK A   1      -0.325  10.443  20.898  0.00  0.00    +0.000 C 
ATOM     18  O   UNK A   1      -1.012  10.477  21.919  0.00  0.00    +0.000 OA
ATOM     19  C   UNK A   1       0.528   9.296  20.575  0.00  0.00    +0.000 A 
ATOM     20  C   UNK A   1       0.544   8.190  21.414  0.00  0.00    +0.000 A 
ATOM     21  C   UNK A   1       1.377   7.120  21.100  0.00  0.00    +0.000 A 
ATOM     22  C   UNK A   1       2.195   7.152  19.957  0.00  0.00    +0.000 A 
ATOM     23  N   UNK A   1       2.172   8.226  19.122  0.00  0.00    +0.000 NA
ATOM     24  C   UNK A   1       1.340   9.273  19.454  0.00  0.00    +0.000 A 
ATOM     25  C   UNK A   1       1.340  10.438  18.535  0.00  0.00    +0.000 C 
ATOM     26  O   UNK A   1       2.088  10.507  17.568  0.00  0.00    +0.000 OA
BRANCH  15  27
ATOM     27  N   UNK A   1       0.378  12.629  17.927  0.00  0.00    +0.000 N 
ATOM     28  H   UNK A   1       1.289  12.908  17.573  0.00  0.00    +0.000 HD
ATOM     29  H   UNK A   1      -0.312  12.466  17.188  0.00  0.00    +0.000 HD
ENDBRANCH  15  27
ENDBRANCH   1  22
BRANCH   3  30
ATOM     30  C   UNK A   1       3.498   2.582  21.085  0.00  0.00    +0.000 C 
ATOM     31  O   UNK A   1       2.635   2.430  21.943  0.00  0.00    +0.000 OA
ATOM     32  N   GLY A   2       4.594   1.758  20.972  0.00  0.00    +0.000 N 
ATOM     33  H   GLY A   2       5.243   1.935  20.213  0.00  0.00    +0.000 HD
BRANCH  32  34
ATOM     34  CA  GLY A   2       4.801   0.645  21.884  0.00  0.00    +0.000 C 
BRANCH  34  35
ATOM     35  C   GLY A   2       6.270   0.234  21.982  0.00  0.00    +0.000 C 
BRANCH  35  36
ATOM     36  O   GLY A   2       6.995   1.174  22.774  0.00  0.00    +0.000 OA
ATOM     37  H   GLY A   2       6.377   1.905  22.949  0.00  0.00    +0.000 HD
ENDBRANCH  35  36
ENDBRANCH  34  35
ENDBRANCH  32  34
ENDBRANCH   3  30
TORSDOF 6
ENDMDL
MODEL 4
REMARK VINA RESULT:      -7.7      3.240      9.331
REMARK  Name = 
REMARK  6 active torsions:
REMARK  status: ('A' for Active; 'I' for Inactive)
REMARK    1  A    between atoms: N_1  and  C_2
REMARK    2  A    between atoms: C_9  and  C_10
REMARK    3  A    between atoms: C_12  and  C_13
REMARK    4  A    between atoms: N_15  and  CA_16
REMARK    5  A    between atoms: CA_16  and  C_17
REMARK    6  A    between atoms: C_17  and  O_18
REMARK                            x       y       z     vdW  Elec       q    Type
REMARK                         _______ _______ _______ _____ _____    ______ ____
ROOT
ATOM      1  C   UNK A   1       1.049   9.841  18.076  0.00  0.00    +0.000 A 
ATOM      2  N   UNK A   1      -0.310   9.654  17.927  0.00  0.00    +0.000 NA
ATOM      3  C   UNK A   1      -1.157  10.710  18.068  0.00  0.00    +0.000 A 
ATOM      4  C   UNK A   1      -0.775  11.959  18.499  0.00  0.00    +0.000 A 
ATOM      5  C   UNK A   1       0.596  12.195  18.521  0.00  0.00    +0.000 A 
ATOM      6  C   UNK A   1       1.489  11.175  18.185  0.00  0.00    +0.000 A 
ATOM      7  N   UNK A   1       2.717  11.795  18.022  0.00  0.00    +0.000 N 
ATOM      8  C   UNK A   1       2.608  13.158  18.261  0.00  0.00    +0.000 A 
ATOM      9  C   UNK A   1       3.487  14.232  18.053  0.00  0.00    +0.000 A 
ATOM     10  C   UNK A   1       3.096  15.495  18.534  0.00  0.00    +0.000 A 
ATOM     11  C   UNK A   1       1.904  15.672  19.232  0.00  0.00    +0.000 A 
ATOM     12  C   UNK A   1       1.007  14.615  19.354  0.00  0.00    +0.000 A 
ATOM     13  C   UNK A   1       1.345  13.364  18.802  0.00  0.00    +0.000 A 
ATOM     14  H   UNK A   1       3.550  11.331  17.680  0.00  0.00    +0.000 HD
ENDROOT
BRANCH   1  22
ATOM     15  C   UNK A   1       5.545   5.726  16.722  0.00  0.00    +0.000 C 
ATOM     16  C   UNK A   1       5.402   4.960  17.805  0.00  0.00    +0.000 C 
ATOM     17  C   UNK A   1       4.371   5.231  18.822  0.00  0.00    +0.000 C 
ATOM     18  O   UNK A   1       4.252   4.489  19.797  0.00  0.00    +0.000 OA
ATOM     19  C   UNK A   1       3.515   6.407  18.634  0.00  0.00    +0.000 A 
ATOM     20  C   UNK A   1       2.565   6.728  19.594  0.00  0.00    +0.000 A 
ATOM     21  C   UNK A   1       1.749   7.837  19.386  0.00  0.00    +0.000 A 
ATOM     22  C   UNK A   1       1.874   8.619  18.225  0.00  0.00    +0.000 A 
ATOM     23  N   UNK A   1       2.814   8.318  17.289  0.00  0.00    +0.000 NA
ATOM     24  C   UNK A   1       3.610   7.216  17.516  0.00  0.00    +0.000 A 
ATOM     25  C   UNK A   1       4.620   6.901  16.476  0.00  0.00    +0.000 C 
ATOM     26  O   UNK A   1       4.705   7.537  15.433  0.00  0.00    +0.000 OA
BRANCH  15  27
ATOM     27  N   UNK A   1       6.522   5.500  15.756  0.00  0.00    +0.000 N 
ATOM     28  H   UNK A   1       6.524   4.565  15.357  0.00  0.00    +0.000 HD
ATOM     29  H   UNK A   1       6.529   6.243  15.051  0.00  0.00    +0.000 HD
ENDBRANCH  15  27
ENDBRANCH   1  22
BRANCH   3  30
ATOM     30  C   UNK A   1      -2.583  10.531  17.649  0.00  0.00    +0.000 C 
ATOM     31  O   UNK A   1      -3.147   9.449  17.771  0.00  0.00    +0.000 OA
ATOM     32  N   GLY A   2      -3.215  11.656  17.170  0.00  0.00    +0.000 N 
ATOM     33  H   GLY A   2      -2.683  12.518  17.133  0.00  0.00    +0.000 HD
BRANCH  32  34
ATOM     34  CA  GLY A   2      -4.611  11.625  16.766  0.00  0.00    +0.000 C 
BRANCH  34  35
ATOM     35  C   GLY A   2      -5.565  11.848  17.940  0.00  0.00    +0.000 C 
BRANCH  35  36
ATOM     36  O   GLY A   2      -5.965  10.596  18.497  0.00  0.00    +0.000 OA
ATOM     37  H   GLY A   2      -6.269  10.057  17.747  0.00  0.00    +0.000 HD
ENDBRANCH  35  36
ENDBRANCH  34  35
ENDBRANCH  32  34
ENDBRANCH   3  30
TORSDOF 6
ENDMDL
MODEL 5
REMARK VINA RESULT:      -7.6      2.554      4.930
REMARK  Name = 
REMARK  6 active torsions:
REMARK  status: ('A' for Active; 'I' for Inactive)
REMARK    1  A    between atoms: N_1  and  C_2
REMARK    2  A    between atoms: C_9  and  C_10
REMARK    3  A    between atoms: C_12  and  C_13
REMARK    4  A    between atoms: N_15  and  CA_16
REMARK    5  A    between atoms: CA_16  and  C_17
REMARK    6  A    between atoms: C_17  and  O_18
REMARK                            x       y       z     vdW  Elec       q    Type
REMARK                         _______ _______ _______ _____ _____    ______ ____
ROOT
ATOM      1  C   UNK A   1       3.202   6.195  18.759  0.00  0.00    +0.000 A 
ATOM      2  N   UNK A   1       2.982   5.200  19.691  0.00  0.00    +0.000 NA
ATOM      3  C   UNK A   1       3.461   3.946  19.467  0.00  0.00    +0.000 A 
ATOM      4  C   UNK A   1       4.043   3.536  18.290  0.00  0.00    +0.000 A 
ATOM      5  C   UNK A   1       4.390   4.552  17.404  0.00  0.00    +0.000 A 
ATOM      6  C   UNK A   1       4.083   5.881  17.706  0.00  0.00    +0.000 A 
ATOM      7  N   UNK A   1       4.800   6.643  16.797  0.00  0.00    +0.000 N 
ATOM      8  C   UNK A   1       5.525   5.824  15.942  0.00  0.00    +0.000 A 
ATOM      9  C   UNK A   1       6.527   6.089  14.997  0.00  0.00    +0.000 A 
ATOM     10  C   UNK A   1       6.966   5.018  14.197  0.00  0.00    +0.000 A 
ATOM     11  C   UNK A   1       6.400   3.749  14.302  0.00  0.00    +0.000 A 
ATOM     12  C   UNK A   1       5.469   3.486  15.302  0.00  0.00    +0.000 A 
ATOM     13  C   UNK A   1       5.082   4.527  16.168  0.00  0.00    +0.000 A 
ATOM     14  H   UNK A   1       4.862   7.653  16.824  0.00  0.00    +0.000 HD
ENDROOT
BRANCH   1  22
ATOM     15  C   UNK A   1      -0.144  10.575  21.691  0.00  0.00    +0.000 C 
ATOM     16  C   UNK A   1      -0.263  11.412  20.659  0.00  0.00    +0.000 C 
ATOM     17  C   UNK A   1       0.297  11.102  19.333  0.00  0.00    +0.000 C 
ATOM     18  O   UNK A   1       0.147  11.887  18.398  0.00  0.00    +0.000 OA
ATOM     19  C   UNK A   1       1.038   9.845  19.179  0.00  0.00    +0.000 A 
ATOM     20  C   UNK A   1       1.626   9.537  17.960  0.00  0.00    +0.000 A 
ATOM     21  C   UNK A   1       2.307   8.330  17.829  0.00  0.00    +0.000 A 
ATOM     22  C   UNK A   1       2.397   7.430  18.905  0.00  0.00    +0.000 A 
ATOM     23  N   UNK A   1       1.836   7.734  20.107  0.00  0.00    +0.000 NA
ATOM     24  C   UNK A   1       1.167   8.935  20.212  0.00  0.00    +0.000 A 
ATOM     25  C   UNK A   1       0.554   9.239  21.529  0.00  0.00    +0.000 C 
ATOM     26  O   UNK A   1       0.574   8.443  22.459  0.00  0.00    +0.000 OA
BRANCH  15  27
ATOM     27  N   UNK A   1      -0.650  10.853  22.958  0.00  0.00    +0.000 N 
ATOM     28  H   UNK A   1      -1.111  10.073  23.418  0.00  0.00    +0.000 HD
ATOM     29  H   UNK A   1       0.047  11.318  23.546  0.00  0.00    +0.000 HD
ENDBRANCH  15  27
ENDBRANCH   1  22
BRANCH   3  30
ATOM     30  C   UNK A   1       3.433   2.969  20.600  0.00  0.00    +0.000 C 
ATOM     31  O   UNK A   1       2.473   2.908  21.360  0.00  0.00    +0.000 OA
ATOM     32  N   GLY A   2       4.519   2.128  20.697  0.00  0.00    +0.000 N 
ATOM     33  H   GLY A   2       5.256   2.226  20.007  0.00  0.00    +0.000 HD
BRANCH  32  34
ATOM     34  CA  GLY A   2       4.596   1.108  21.729  0.00  0.00    +0.000 C 
BRANCH  34  35
ATOM     35  C   GLY A   2       5.941   0.380  21.734  0.00  0.00    +0.000 C 
BRANCH  35  36
ATOM     36  O   GLY A   2       6.818   0.970  22.692  0.00  0.00    +0.000 OA
ATOM     37  H   GLY A   2       6.359   0.908  23.547  0.00  0.00    +0.000 HD
ENDBRANCH  35  36
ENDBRANCH  34  35
ENDBRANCH  32  34
ENDBRANCH   3  30
TORSDOF 6
ENDMDL
MODEL 6
REMARK VINA RESULT:      -7.6      4.934     11.624
REMARK  Name = 
REMARK  6 active torsions:
REMARK  status: ('A' for Active; 'I' for Inactive)
REMARK    1  A    between atoms: N_1  and  C_2
REMARK    2  A    between atoms: C_9  and  C_10
REMARK    3  A    between atoms: C_12  and  C_13
REMARK    4  A    between atoms: N_15  and  CA_16
REMARK    5  A    between atoms: CA_16  and  C_17
REMARK    6  A    between atoms: C_17  and  O_18
REMARK                            x       y       z     vdW  Elec       q    Type
REMARK                         _______ _______ _______ _____ _____    ______ ____
ROOT
ATOM      1  C   UNK A   1      -1.852  12.867  23.440  0.00  0.00    +0.000 A 
ATOM      2  N   UNK A   1      -1.030  13.839  23.974  0.00  0.00    +0.000 NA
ATOM      3  C   UNK A   1      -1.570  15.000  24.435  0.00  0.00    +0.000 A 
ATOM      4  C   UNK A   1      -2.889  15.359  24.282  0.00  0.00    +0.000 A 
ATOM      5  C   UNK A   1      -3.745  14.341  23.872  0.00  0.00    +0.000 A 
ATOM      6  C   UNK A   1      -3.238  13.073  23.581  0.00  0.00    +0.000 A 
ATOM      7  N   UNK A   1      -4.344  12.242  23.496  0.00  0.00    +0.000 N 
ATOM      8  C   UNK A   1      -5.510  12.962  23.712  0.00  0.00    +0.000 A 
ATOM      9  C   UNK A   1      -6.843  12.573  23.915  0.00  0.00    +0.000 A 
ATOM     10  C   UNK A   1      -7.814  13.588  23.979  0.00  0.00    +0.000 A 
ATOM     11  C   UNK A   1      -7.481  14.929  23.802  0.00  0.00    +0.000 A 
ATOM     12  C   UNK A   1      -6.145  15.302  23.687  0.00  0.00    +0.000 A 
ATOM     13  C   UNK A   1      -5.152  14.305  23.708  0.00  0.00    +0.000 A 
ATOM     14  H   UNK A   1      -4.294  11.236  23.391  0.00  0.00    +0.000 HD
ENDROOT
BRANCH   1  22
ATOM     15  C   UNK A   1       1.377  10.243  18.784  0.00  0.00    +0.000 C 
ATOM     16  C   UNK A   1       1.504   9.033  19.331  0.00  0.00    +0.000 C 
ATOM     17  C   UNK A   1       0.912   8.701  20.638  0.00  0.00    +0.000 C 
ATOM     18  O   UNK A   1       1.029   7.566  21.101  0.00  0.00    +0.000 OA
ATOM     19  C   UNK A   1       0.199   9.761  21.358  0.00  0.00    +0.000 A 
ATOM     20  C   UNK A   1      -0.330   9.506  22.615  0.00  0.00    +0.000 A 
ATOM     21  C   UNK A   1      -1.020  10.521  23.272  0.00  0.00    +0.000 A 
ATOM     22  C   UNK A   1      -1.188  11.783  22.677  0.00  0.00    +0.000 A 
ATOM     23  N   UNK A   1      -0.658  12.044  21.452  0.00  0.00    +0.000 NA
ATOM     24  C   UNK A   1       0.021  11.024  20.821  0.00  0.00    +0.000 A 
ATOM     25  C   UNK A   1       0.581  11.329  19.480  0.00  0.00    +0.000 C 
ATOM     26  O   UNK A   1       0.395  12.403  18.924  0.00  0.00    +0.000 OA
BRANCH  15  27
ATOM     27  N   UNK A   1       1.941  10.586  17.559  0.00  0.00    +0.000 N 
ATOM     28  H   UNK A   1       1.876  11.571  17.315  0.00  0.00    +0.000 HD
ATOM     29  H   UNK A   1       2.886  10.206  17.462  0.00  0.00    +0.000 HD
ENDBRANCH  15  27
ENDBRANCH   1  22
BRANCH   3  30
ATOM     30  C   UNK A   1      -0.695  15.914  25.236  0.00  0.00    +0.000 C 
ATOM     31  O   UNK A   1       0.290  16.446  24.735  0.00  0.00    +0.000 OA
ATOM     32  N   GLY A   2      -1.095  16.147  26.532  0.00  0.00    +0.000 N 
ATOM     33  H   GLY A   2      -1.941  15.691  26.855  0.00  0.00    +0.000 HD
BRANCH  32  34
ATOM     34  CA  GLY A   2      -0.354  17.045  27.402  0.00  0.00    +0.000 C 
BRANCH  34  35
ATOM     35  C   GLY A   2       0.796  16.343  28.125  0.00  0.00    +0.000 C 
BRANCH  35  36
ATOM     36  O   GLY A   2       1.981  16.392  27.333  0.00  0.00    +0.000 OA
ATOM     37  H   GLY A   2       2.629  16.898  27.854  0.00  0.00    +0.000 HD
ENDBRANCH  35  36
ENDBRANCH  34  35
ENDBRANCH  32  34
ENDBRANCH   3  30
TORSDOF 6
ENDMDL
MODEL 7
REMARK VINA RESULT:      -7.6      3.334      9.071
REMARK  Name = 
REMARK  6 active torsions:
REMARK  status: ('A' for Active; 'I' for Inactive)
REMARK    1  A    between atoms: N_1  and  C_2
REMARK    2  A    between atoms: C_9  and  C_10
REMARK    3  A    between atoms: C_12  and  C_13
REMARK    4  A    between atoms: N_15  and  CA_16
REMARK    5  A    between atoms: CA_16  and  C_17
REMARK    6  A    between atoms: C_17  and  O_18
REMARK                            x       y       z     vdW  Elec       q    Type
REMARK                         _______ _______ _______ _____ _____    ______ ____
ROOT
ATOM      1  C   UNK A   1       1.036   9.988  18.120  0.00  0.00    +0.000 A 
ATOM      2  N   UNK A   1      -0.314   9.752  17.952  0.00  0.00    +0.000 NA
ATOM      3  C   UNK A   1      -1.200  10.778  18.079  0.00  0.00    +0.000 A 
ATOM      4  C   UNK A   1      -0.869  12.040  18.512  0.00  0.00    +0.000 A 
ATOM      5  C   UNK A   1       0.493  12.325  18.553  0.00  0.00    +0.000 A 
ATOM      6  C   UNK A   1       1.426  11.337  18.231  0.00  0.00    +0.000 A 
ATOM      7  N   UNK A   1       2.634  12.001  18.084  0.00  0.00    +0.000 N 
ATOM      8  C   UNK A   1       2.472  13.359  18.318  0.00  0.00    +0.000 A 
ATOM      9  C   UNK A   1       3.315  14.463  18.120  0.00  0.00    +0.000 A 
ATOM     10  C   UNK A   1       2.873  15.712  18.593  0.00  0.00    +0.000 A 
ATOM     11  C   UNK A   1       1.665  15.848  19.274  0.00  0.00    +0.000 A 
ATOM     12  C   UNK A   1       0.805  14.759  19.386  0.00  0.00    +0.000 A 
ATOM     13  C   UNK A   1       1.195  13.521  18.841  0.00  0.00    +0.000 A 
ATOM     14  H   UNK A   1       3.487  11.566  17.754  0.00  0.00    +0.000 HD
ENDROOT
BRANCH   1  22
ATOM     15  C   UNK A   1       2.853   4.453  20.364  0.00  0.00    +0.000 C 
ATOM     16  C   UNK A   1       3.895   4.277  19.550  0.00  0.00    +0.000 C 
ATOM     17  C   UNK A   1       4.283   5.285  18.549  0.00  0.00    +0.000 C 
ATOM     18  O   UNK A   1       5.265   5.099  17.830  0.00  0.00    +0.000 OA
ATOM     19  C   UNK A   1       3.459   6.493  18.437  0.00  0.00    +0.000 A 
ATOM     20  C   UNK A   1       3.757   7.445  17.473  0.00  0.00    +0.000 A 
ATOM     21  C   UNK A   1       2.974   8.594  17.398  0.00  0.00    +0.000 A 
ATOM     22  C   UNK A   1       1.902   8.797  18.283  0.00  0.00    +0.000 A 
ATOM     23  N   UNK A   1       1.595   7.859  19.220  0.00  0.00    +0.000 NA
ATOM     24  C   UNK A   1       2.384   6.731  19.275  0.00  0.00    +0.000 A 
ATOM     25  C   UNK A   1       2.036   5.728  20.313  0.00  0.00    +0.000 C 
ATOM     26  O   UNK A   1       1.142   5.914  21.128  0.00  0.00    +0.000 OA
BRANCH  15  27
ATOM     27  N   UNK A   1       2.458   3.508  21.307  0.00  0.00    +0.000 N 
ATOM     28  H   UNK A   1       1.945   3.881  22.101  0.00  0.00    +0.000 HD
ATOM     29  H   UNK A   1       1.996   2.708  20.865  0.00  0.00    +0.000 HD
ENDBRANCH  15  27
ENDBRANCH   1  22
BRANCH   3  30
ATOM     30  C   UNK A   1      -2.612  10.547  17.640  0.00  0.00    +0.000 C 
ATOM     31  O   UNK A   1      -3.145   9.450  17.772  0.00  0.00    +0.000 OA
ATOM     32  N   GLY A   2      -3.271  11.643  17.132  0.00  0.00    +0.000 N 
ATOM     33  H   GLY A   2      -2.766  12.521  17.088  0.00  0.00    +0.000 HD
BRANCH  32  34
ATOM     34  CA  GLY A   2      -4.659  11.561  16.707  0.00  0.00    +0.000 C 
BRANCH  34  35
ATOM     35  C   GLY A   2      -5.616  12.215  17.704  0.00  0.00    +0.000 C 
BRANCH  35  36
ATOM     36  O   GLY A   2      -6.954  12.164  17.210  0.00  0.00    +0.000 OA
ATOM     37  H   GLY A   2      -7.051  11.289  16.794  0.00  0.00    +0.000 HD
ENDBRANCH  35  36
ENDBRANCH  34  35
ENDBRANCH  32  34
ENDBRANCH   3  30
TORSDOF 6
ENDMDL
MODEL 8
REMARK VINA RESULT:      -7.5      4.737      7.217
REMARK  Name = 
REMARK  6 active torsions:
REMARK  status: ('A' for Active; 'I' for Inactive)
REMARK    1  A    between atoms: N_1  and  C_2
REMARK    2  A    between atoms: C_9  and  C_10
REMARK    3  A    between atoms: C_12  and  C_13
REMARK    4  A    between atoms: N_15  and  CA_16
REMARK    5  A    between atoms: CA_16  and  C_17
REMARK    6  A    between atoms: C_17  and  O_18
REMARK                            x       y       z     vdW  Elec       q    Type
REMARK                         _______ _______ _______ _____ _____    ______ ____
ROOT
ATOM      1  C   UNK A   1      -1.572  11.419  19.880  0.00  0.00    +0.000 A 
ATOM      2  N   UNK A   1      -2.359  11.609  18.762  0.00  0.00    +0.000 NA
ATOM      3  C   UNK A   1      -2.055  10.962  17.604  0.00  0.00    +0.000 A 
ATOM      4  C   UNK A   1      -0.914  10.219  17.406  0.00  0.00    +0.000 A 
ATOM      5  C   UNK A   1      -0.189   9.912  18.554  0.00  0.00    +0.000 A 
ATOM      6  C   UNK A   1      -0.598  10.406  19.794  0.00  0.00    +0.000 A 
ATOM      7  N   UNK A   1       0.134   9.698  20.735  0.00  0.00    +0.000 N 
ATOM      8  C   UNK A   1       0.986   8.798  20.110  0.00  0.00    +0.000 A 
ATOM      9  C   UNK A   1       1.777   7.746  20.595  0.00  0.00    +0.000 A 
ATOM     10  C   UNK A   1       2.634   7.102  19.684  0.00  0.00    +0.000 A 
ATOM     11  C   UNK A   1       2.733   7.519  18.357  0.00  0.00    +0.000 A 
ATOM     12  C   UNK A   1       1.880   8.507  17.875  0.00  0.00    +0.000 A 
ATOM     13  C   UNK A   1       0.956   9.102  18.754  0.00  0.00    +0.000 A 
ATOM     14  H   UNK A   1      -0.010   9.762  21.735  0.00  0.00    +0.000 HD
ENDROOT
BRANCH   1  22
ATOM     15  C   UNK A   1      -4.696  14.968  23.958  0.00  0.00    +0.000 C 
ATOM     16  C   UNK A   1      -3.644  15.357  24.680  0.00  0.00    +0.000 C 
ATOM     17  C   UNK A   1      -2.271  14.943  24.345  0.00  0.00    +0.000 C 
ATOM     18  O   UNK A   1      -1.322  15.340  25.021  0.00  0.00    +0.000 OA
ATOM     19  C   UNK A   1      -2.085  14.045  23.201  0.00  0.00    +0.000 A 
ATOM     20  C   UNK A   1      -0.814  13.590  22.881  0.00  0.00    +0.000 A 
ATOM     21  C   UNK A   1      -0.657  12.754  21.778  0.00  0.00    +0.000 A 
ATOM     22  C   UNK A   1      -1.761  12.378  20.994  0.00  0.00    +0.000 A 
ATOM     23  N   UNK A   1      -3.012  12.809  21.313  0.00  0.00    +0.000 NA
ATOM     24  C   UNK A   1      -3.142  13.635  22.408  0.00  0.00    +0.000 A 
ATOM     25  C   UNK A   1      -4.514  14.101  22.729  0.00  0.00    +0.000 C 
ATOM     26  O   UNK A   1      -5.478  13.829  22.024  0.00  0.00    +0.000 OA
BRANCH  15  27
ATOM     27  N   UNK A   1      -6.004  15.332  24.264  0.00  0.00    +0.000 N 
ATOM     28  H   UNK A   1      -6.098  16.003  25.022  0.00  0.00    +0.000 HD
ATOM     29  H   UNK A   1      -6.526  15.594  23.423  0.00  0.00    +0.000 HD
ENDBRANCH  15  27
ENDBRANCH   1  22
BRANCH   3  30
ATOM     30  C   UNK A   1      -3.063  10.984  16.498  0.00  0.00    +0.000 C 
ATOM     31  O   UNK A   1      -4.105  11.623  16.605  0.00  0.00    +0.000 OA
ATOM     32  N   GLY A   2      -2.723  10.290  15.359  0.00  0.00    +0.000 N 
ATOM     33  H   GLY A   2      -1.827   9.816  15.344  0.00  0.00    +0.000 HD
BRANCH  32  34
ATOM     34  CA  GLY A   2      -3.599  10.266  14.199  0.00  0.00    +0.000 C 
BRANCH  34  35
ATOM     35  C   GLY A   2      -2.963   9.561  13.000  0.00  0.00    +0.000 C 
BRANCH  35  36
ATOM     36  O   GLY A   2      -3.740   9.787  11.825  0.00  0.00    +0.000 OA
ATOM     37  H   GLY A   2      -3.153   9.587  11.076  0.00  0.00    +0.000 HD
ENDBRANCH  35  36
ENDBRANCH  34  35
ENDBRANCH  32  34
ENDBRANCH   3  30
TORSDOF 6
ENDMDL
MODEL 9
REMARK VINA RESULT:      -7.5      3.419      8.522
REMARK  Name = 
REMARK  6 active torsions:
REMARK  status: ('A' for Active; 'I' for Inactive)
REMARK    1  A    between atoms: N_1  and  C_2
REMARK    2  A    between atoms: C_9  and  C_10
REMARK    3  A    between atoms: C_12  and  C_13
REMARK    4  A    between atoms: N_15  and  CA_16
REMARK    5  A    between atoms: CA_16  and  C_17
REMARK    6  A    between atoms: C_17  and  O_18
REMARK                            x       y       z     vdW  Elec       q    Type
REMARK                         _______ _______ _______ _____ _____    ______ ____
ROOT
ATOM      1  C   UNK A   1       1.273   9.580  18.031  0.00  0.00    +0.000 A 
ATOM      2  N   UNK A   1      -0.044   9.313  17.712  0.00  0.00    +0.000 NA
ATOM      3  C   UNK A   1      -0.978  10.296  17.820  0.00  0.00    +0.000 A 
ATOM      4  C   UNK A   1      -0.742  11.534  18.370  0.00  0.00    +0.000 A 
ATOM      5  C   UNK A   1       0.596  11.860  18.568  0.00  0.00    +0.000 A 
ATOM      6  C   UNK A   1       1.595  10.929  18.275  0.00  0.00    +0.000 A 
ATOM      7  N   UNK A   1       2.784  11.641  18.297  0.00  0.00    +0.000 N 
ATOM      8  C   UNK A   1       2.546  12.973  18.607  0.00  0.00    +0.000 A 
ATOM      9  C   UNK A   1       3.360  14.116  18.572  0.00  0.00    +0.000 A 
ATOM     10  C   UNK A   1       2.824  15.311  19.082  0.00  0.00    +0.000 A 
ATOM     11  C   UNK A   1       1.550  15.358  19.646  0.00  0.00    +0.000 A 
ATOM     12  C   UNK A   1       0.728  14.236  19.595  0.00  0.00    +0.000 A 
ATOM     13  C   UNK A   1       1.219  13.054  19.008  0.00  0.00    +0.000 A 
ATOM     14  H   UNK A   1       3.682  11.260  18.025  0.00  0.00    +0.000 HD
ENDROOT
BRANCH   1  22
ATOM     15  C   UNK A   1       3.130   4.009  20.153  0.00  0.00    +0.000 C 
ATOM     16  C   UNK A   1       4.224   3.900  19.398  0.00  0.00    +0.000 C 
ATOM     17  C   UNK A   1       4.638   4.962  18.465  0.00  0.00    +0.000 C 
ATOM     18  O   UNK A   1       5.667   4.836  17.801  0.00  0.00    +0.000 OA
ATOM     19  C   UNK A   1       3.784   6.148  18.353  0.00  0.00    +0.000 A 
ATOM     20  C   UNK A   1       4.109   7.149  17.449  0.00  0.00    +0.000 A 
ATOM     21  C   UNK A   1       3.295   8.276  17.373  0.00  0.00    +0.000 A 
ATOM     22  C   UNK A   1       2.165   8.409  18.198  0.00  0.00    +0.000 A 
ATOM     23  N   UNK A   1       1.832   7.423  19.075  0.00  0.00    +0.000 NA
ATOM     24  C   UNK A   1       2.653   6.317  19.133  0.00  0.00    +0.000 A 
ATOM     25  C   UNK A   1       2.276   5.261  20.104  0.00  0.00    +0.000 C 
ATOM     26  O   UNK A   1       1.329   5.385  20.870  0.00  0.00    +0.000 OA
BRANCH  15  27
ATOM     27  N   UNK A   1       2.709   3.013  21.030  0.00  0.00    +0.000 N 
ATOM     28  H   UNK A   1       1.717   3.024  21.249  0.00  0.00    +0.000 HD
ATOM     29  H   UNK A   1       3.052   2.092  20.742  0.00  0.00    +0.000 HD
ENDBRANCH  15  27
ENDBRANCH   1  22
BRANCH   3  30
ATOM     30  C   UNK A   1      -2.330  10.052  17.226  0.00  0.00    +0.000 C 
ATOM     31  O   UNK A   1      -3.220   9.515  17.877  0.00  0.00    +0.000 OA
ATOM     32  N   GLY A   2      -2.514  10.506  15.940  0.00  0.00    +0.000 N 
ATOM     33  H   GLY A   2      -1.734  10.968  15.485  0.00  0.00    +0.000 HD
BRANCH  32  34
ATOM     34  CA  GLY A   2      -3.792  10.365  15.263  0.00  0.00    +0.000 C 
BRANCH  34  35
ATOM     35  C   GLY A   2      -3.636  10.005  13.786  0.00  0.00    +0.000 C 
BRANCH  35  36
ATOM     36  O   GLY A   2      -4.897   9.627  13.233  0.00  0.00    +0.000 OA
ATOM     37  H   GLY A   2      -5.538  10.280  13.563  0.00  0.00    +0.000 HD
ENDBRANCH  35  36
ENDBRANCH  34  35
ENDBRANCH  32  34
ENDBRANCH   3  30
TORSDOF 6
ENDMDL
