MODEL 1
REMARK VINA RESULT:      -6.9      0.000      0.000
REMARK  Name = 
REMARK  3 active torsions:
REMARK  status: ('A' for Active; 'I' for Inactive)
REMARK    1  A    between atoms: N_1  and  C_2
REMARK    2  A    between atoms: C_7  and  S_8
REMARK    3  A    between atoms: S_8  and  C_9
REMARK                            x       y       z     vdW  Elec       q    Type
REMARK                         _______ _______ _______ _____ _____    ______ ____
ROOT
ATOM      1  C   UNL     1       3.684   2.712  20.027  0.00  0.00    +0.000 A 
ATOM      2  C   UNL     1       2.954   2.766  21.223  0.00  0.00    +0.000 A 
ATOM      3  C   UNL     1       1.783   3.520  21.315  0.00  0.00    +0.000 A 
ATOM      4  C   UNL     1       1.299   4.194  20.197  0.00  0.00    +0.000 A 
ATOM      5  C   UNL     1       1.974   4.091  18.980  0.00  0.00    +0.000 A 
ATOM      6  C   UNL     1       3.147   3.328  18.877  0.00  0.00    +0.000 A 
ENDROOT
BRANCH   1   7
ATOM      7  N   UNL     1       4.817   1.874  19.967  0.00  0.00    +0.000 N 
ATOM      8  H   UNL     1       5.532   2.211  19.330  0.00  0.00    +0.000 HD
ATOM      9  H   UNL     1       4.552   0.908  19.777  0.00  0.00    +0.000 HD
ENDBRANCH   1   7
BRANCH   6  10
ATOM     10  S   UNL     1       3.977   3.255  17.285  0.00  0.00    +0.000 S 
BRANCH  10  11
ATOM     11  C   UNL     1       5.077   4.655  17.413  0.00  0.00    +0.000 A 
ATOM     12  C   UNL     1       6.297   4.554  18.093  0.00  0.00    +0.000 A 
ATOM     13  C   UNL     1       7.160   5.654  18.165  0.00  0.00    +0.000 A 
ATOM     14  C   UNL     1       6.807   6.851  17.545  0.00  0.00    +0.000 A 
ATOM     15 CL   UNL     1       7.861   8.209  17.640  0.00  0.00    +0.000 Cl
ATOM     16  C   UNL     1       5.605   6.956  16.849  0.00  0.00    +0.000 A 
ATOM     17  C   UNL     1       4.743   5.858  16.782  0.00  0.00    +0.000 A 
ENDBRANCH  10  11
ENDBRANCH   6  10
TORSDOF 3
ENDMDL
MODEL 2
REMARK VINA RESULT:      -6.8      0.240      1.242
REMARK  Name = 
REMARK  3 active torsions:
REMARK  status: ('A' for Active; 'I' for Inactive)
REMARK    1  A    between atoms: N_1  and  C_2
REMARK    2  A    between atoms: C_7  and  S_8
REMARK    3  A    between atoms: S_8  and  C_9
REMARK                            x       y       z     vdW  Elec       q    Type
REMARK                         _______ _______ _______ _____ _____    ______ ____
ROOT
ATOM      1  C   UNL     1       3.619   2.809  20.004  0.00  0.00    +0.000 A 
ATOM      2  C   UNL     1       2.922   2.882  21.218  0.00  0.00    +0.000 A 
ATOM      3  C   UNL     1       1.716   3.579  21.311  0.00  0.00    +0.000 A 
ATOM      4  C   UNL     1       1.167   4.175  20.179  0.00  0.00    +0.000 A 
ATOM      5  C   UNL     1       1.812   4.049  18.948  0.00  0.00    +0.000 A 
ATOM      6  C   UNL     1       3.019   3.343  18.844  0.00  0.00    +0.000 A 
ENDROOT
BRANCH   1   7
ATOM      7  N   UNL     1       4.792   2.027  19.947  0.00  0.00    +0.000 N 
ATOM      8  H   UNL     1       4.730   1.257  19.289  0.00  0.00    +0.000 HD
ATOM      9  H   UNL     1       5.077   1.722  20.876  0.00  0.00    +0.000 HD
ENDBRANCH   1   7
BRANCH   6  10
ATOM     10  S   UNL     1       3.806   3.236  17.233  0.00  0.00    +0.000 S 
BRANCH  10  11
ATOM     11  C   UNL     1       4.931   4.620  17.314  0.00  0.00    +0.000 A 
ATOM     12  C   UNL     1       4.490   5.924  17.055  0.00  0.00    +0.000 A 
ATOM     13  C   UNL     1       5.379   7.002  17.146  0.00  0.00    +0.000 A 
ATOM     14  C   UNL     1       6.705   6.776  17.509  0.00  0.00    +0.000 A 
ATOM     15 CL   UNL     1       7.803   8.098  17.611  0.00  0.00    +0.000 Cl
ATOM     16  C   UNL     1       7.149   5.486  17.788  0.00  0.00    +0.000 A 
ATOM     17  C   UNL     1       6.261   4.410  17.693  0.00  0.00    +0.000 A 
ENDBRANCH  10  11
ENDBRANCH   6  10
TORSDOF 3
ENDMDL
MODEL 3
REMARK VINA RESULT:      -6.7      2.038      2.233
REMARK  Name = 
REMARK  3 active torsions:
REMARK  status: ('A' for Active; 'I' for Inactive)
REMARK    1  A    between atoms: N_1  and  C_2
REMARK    2  A    between atoms: C_7  and  S_8
REMARK    3  A    between atoms: S_8  and  C_9
REMARK                            x       y       z     vdW  Elec       q    Type
REMARK                         _______ _______ _______ _____ _____    ______ ____
ROOT
ATOM      1  C   UNL     1       3.633   2.743  19.349  0.00  0.00    +0.000 A 
ATOM      2  C   UNL     1       2.592   1.831  19.124  0.00  0.00    +0.000 A 
ATOM      3  C   UNL     1       1.330   2.269  18.718  0.00  0.00    +0.000 A 
ATOM      4  C   UNL     1       1.105   3.624  18.487  0.00  0.00    +0.000 A 
ATOM      5  C   UNL     1       2.150   4.536  18.636  0.00  0.00    +0.000 A 
ATOM      6  C   UNL     1       3.423   4.102  19.035  0.00  0.00    +0.000 A 
ENDROOT
BRANCH   1   7
ATOM      7  N   UNL     1       4.908   2.240  19.683  0.00  0.00    +0.000 N 
ATOM      8  H   UNL     1       5.577   2.307  18.923  0.00  0.00    +0.000 HD
ATOM      9  H   UNL     1       4.845   1.297  20.062  0.00  0.00    +0.000 HD
ENDBRANCH   1   7
BRANCH   6  10
ATOM     10  S   UNL     1       4.719   5.332  19.227  0.00  0.00    +0.000 S 
BRANCH  10  11
ATOM     11  C   UNL     1       5.506   5.244  17.627  0.00  0.00    +0.000 A 
ATOM     12  C   UNL     1       6.738   4.599  17.464  0.00  0.00    +0.000 A 
ATOM     13  C   UNL     1       7.332   4.517  16.198  0.00  0.00    +0.000 A 
ATOM     14  C   UNL     1       6.686   5.072  15.094  0.00  0.00    +0.000 A 
ATOM     15 CL   UNL     1       7.419   4.983  13.540  0.00  0.00    +0.000 Cl
ATOM     16  C   UNL     1       5.452   5.699  15.242  0.00  0.00    +0.000 A 
ATOM     17  C   UNL     1       4.862   5.782  16.507  0.00  0.00    +0.000 A 
ENDBRANCH  10  11
ENDBRANCH   6  10
TORSDOF 3
ENDMDL
MODEL 4
REMARK VINA RESULT:      -6.6      2.040      2.554
REMARK  Name = 
REMARK  3 active torsions:
REMARK  status: ('A' for Active; 'I' for Inactive)
REMARK    1  A    between atoms: N_1  and  C_2
REMARK    2  A    between atoms: C_7  and  S_8
REMARK    3  A    between atoms: S_8  and  C_9
REMARK                            x       y       z     vdW  Elec       q    Type
REMARK                         _______ _______ _______ _____ _____    ______ ____
ROOT
ATOM      1  C   UNL     1       3.575   2.720  19.341  0.00  0.00    +0.000 A 
ATOM      2  C   UNL     1       2.503   1.843  19.122  0.00  0.00    +0.000 A 
ATOM      3  C   UNL     1       1.260   2.320  18.702  0.00  0.00    +0.000 A 
ATOM      4  C   UNL     1       1.085   3.678  18.452  0.00  0.00    +0.000 A 
ATOM      5  C   UNL     1       2.161   4.555  18.595  0.00  0.00    +0.000 A 
ATOM      6  C   UNL     1       3.416   4.082  19.008  0.00  0.00    +0.000 A 
ENDROOT
BRANCH   1   7
ATOM      7  N   UNL     1       4.830   2.177  19.688  0.00  0.00    +0.000 N 
ATOM      8  H   UNL     1       5.549   2.352  18.994  0.00  0.00    +0.000 HD
ATOM      9  H   UNL     1       4.751   1.189  19.925  0.00  0.00    +0.000 HD
ENDBRANCH   1   7
BRANCH   6  10
ATOM     10  S   UNL     1       4.753   5.267  19.190  0.00  0.00    +0.000 S 
BRANCH  10  11
ATOM     11  C   UNL     1       5.507   5.176  17.575  0.00  0.00    +0.000 A 
ATOM     12  C   UNL     1       4.841   5.653  16.440  0.00  0.00    +0.000 A 
ATOM     13  C   UNL     1       5.455   5.596  15.182  0.00  0.00    +0.000 A 
ATOM     14  C   UNL     1       6.741   5.072  15.064  0.00  0.00    +0.000 A 
ATOM     15 CL   UNL     1       7.495   4.991  13.519  0.00  0.00    +0.000 Cl
ATOM     16  C   UNL     1       7.420   4.613  16.190  0.00  0.00    +0.000 A 
ATOM     17  C   UNL     1       6.804   4.667  17.444  0.00  0.00    +0.000 A 
ENDBRANCH  10  11
ENDBRANCH   6  10
TORSDOF 3
ENDMDL
MODEL 5
REMARK VINA RESULT:      -6.6      3.252      5.645
REMARK  Name = 
REMARK  3 active torsions:
REMARK  status: ('A' for Active; 'I' for Inactive)
REMARK    1  A    between atoms: N_1  and  C_2
REMARK    2  A    between atoms: C_7  and  S_8
REMARK    3  A    between atoms: S_8  and  C_9
REMARK                            x       y       z     vdW  Elec       q    Type
REMARK                         _______ _______ _______ _____ _____    ______ ____
ROOT
ATOM      1  C   UNL     1       6.187   6.441  16.619  0.00  0.00    +0.000 A 
ATOM      2  C   UNL     1       7.021   7.353  17.281  0.00  0.00    +0.000 A 
ATOM      3  C   UNL     1       7.832   6.945  18.341  0.00  0.00    +0.000 A 
ATOM      4  C   UNL     1       7.855   5.607  18.725  0.00  0.00    +0.000 A 
ATOM      5  C   UNL     1       7.085   4.673  18.030  0.00  0.00    +0.000 A 
ATOM      6  C   UNL     1       6.274   5.074  16.957  0.00  0.00    +0.000 A 
ENDROOT
BRANCH   1   7
ATOM      7  N   UNL     1       5.447   6.890  15.506  0.00  0.00    +0.000 N 
ATOM      8  H   UNL     1       4.507   7.192  15.743  0.00  0.00    +0.000 HD
ATOM      9  H   UNL     1       5.455   6.201  14.755  0.00  0.00    +0.000 HD
ENDBRANCH   1   7
BRANCH   6  10
ATOM     10  S   UNL     1       5.295   3.824  16.118  0.00  0.00    +0.000 S 
BRANCH  10  11
ATOM     11  C   UNL     1       3.948   3.619  17.272  0.00  0.00    +0.000 A 
ATOM     12  C   UNL     1       3.677   2.373  17.851  0.00  0.00    +0.000 A 
ATOM     13  C   UNL     1       2.632   2.233  18.772  0.00  0.00    +0.000 A 
ATOM     14  C   UNL     1       1.867   3.344  19.123  0.00  0.00    +0.000 A 
ATOM     15 CL   UNL     1       0.575   3.174  20.248  0.00  0.00    +0.000 Cl
ATOM     16  C   UNL     1       2.140   4.592  18.569  0.00  0.00    +0.000 A 
ATOM     17  C   UNL     1       3.182   4.729  17.646  0.00  0.00    +0.000 A 
ENDBRANCH  10  11
ENDBRANCH   6  10
TORSDOF 3
ENDMDL
MODEL 6
REMARK VINA RESULT:      -6.5      2.348      2.572
REMARK  Name = 
REMARK  3 active torsions:
REMARK  status: ('A' for Active; 'I' for Inactive)
REMARK    1  A    between atoms: N_1  and  C_2
REMARK    2  A    between atoms: C_7  and  S_8
REMARK    3  A    between atoms: S_8  and  C_9
REMARK                            x       y       z     vdW  Elec       q    Type
REMARK                         _______ _______ _______ _____ _____    ______ ____
ROOT
ATOM      1  C   UNL     1       3.859   3.045  19.851  0.00  0.00    +0.000 A 
ATOM      2  C   UNL     1       2.567   2.532  20.035  0.00  0.00    +0.000 A 
ATOM      3  C   UNL     1       1.460   3.380  20.095  0.00  0.00    +0.000 A 
ATOM      4  C   UNL     1       1.625   4.752  19.926  0.00  0.00    +0.000 A 
ATOM      5  C   UNL     1       2.894   5.272  19.670  0.00  0.00    +0.000 A 
ATOM      6  C   UNL     1       4.010   4.425  19.599  0.00  0.00    +0.000 A 
ENDROOT
BRANCH   1   7
ATOM      7  N   UNL     1       4.932   2.139  19.719  0.00  0.00    +0.000 N 
ATOM      8  H   UNL     1       4.905   1.608  18.855  0.00  0.00    +0.000 HD
ATOM      9  H   UNL     1       5.011   1.540  20.540  0.00  0.00    +0.000 HD
ENDBRANCH   1   7
BRANCH   6  10
ATOM     10  S   UNL     1       5.618   5.162  19.285  0.00  0.00    +0.000 S 
BRANCH  10  11
ATOM     11  C   UNL     1       5.822   4.801  17.548  0.00  0.00    +0.000 A 
ATOM     12  C   UNL     1       7.093   4.772  16.962  0.00  0.00    +0.000 A 
ATOM     13  C   UNL     1       7.239   4.463  15.604  0.00  0.00    +0.000 A 
ATOM     14  C   UNL     1       6.113   4.172  14.836  0.00  0.00    +0.000 A 
ATOM     15 CL   UNL     1       6.287   3.803  13.164  0.00  0.00    +0.000 Cl
ATOM     16  C   UNL     1       4.846   4.178  15.414  0.00  0.00    +0.000 A 
ATOM     17  C   UNL     1       4.702   4.490  16.769  0.00  0.00    +0.000 A 
ENDBRANCH  10  11
ENDBRANCH   6  10
TORSDOF 3
ENDMDL
MODEL 7
REMARK VINA RESULT:      -6.5      1.160      1.212
REMARK  Name = 
REMARK  3 active torsions:
REMARK  status: ('A' for Active; 'I' for Inactive)
REMARK    1  A    between atoms: N_1  and  C_2
REMARK    2  A    between atoms: C_7  and  S_8
REMARK    3  A    between atoms: S_8  and  C_9
REMARK                            x       y       z     vdW  Elec       q    Type
REMARK                         _______ _______ _______ _____ _____    ______ ____
ROOT
ATOM      1  C   UNL     1       2.206   2.709  19.097  0.00  0.00    +0.000 A 
ATOM      2  C   UNL     1       1.313   2.972  20.145  0.00  0.00    +0.000 A 
ATOM      3  C   UNL     1       1.190   4.257  20.677  0.00  0.00    +0.000 A 
ATOM      4  C   UNL     1       1.927   5.307  20.137  0.00  0.00    +0.000 A 
ATOM      5  C   UNL     1       2.766   5.077  19.046  0.00  0.00    +0.000 A 
ATOM      6  C   UNL     1       2.888   3.790  18.499  0.00  0.00    +0.000 A 
ENDROOT
BRANCH   1   7
ATOM      7  N   UNL     1       2.233   1.411  18.545  0.00  0.00    +0.000 N 
ATOM      8  H   UNL     1       2.921   0.804  18.981  0.00  0.00    +0.000 HD
ATOM      9  H   UNL     1       2.331   1.443  17.531  0.00  0.00    +0.000 HD
ENDBRANCH   1   7
BRANCH   6  10
ATOM     10  S   UNL     1       4.000   3.560  17.108  0.00  0.00    +0.000 S 
BRANCH  10  11
ATOM     11  C   UNL     1       5.189   4.856  17.408  0.00  0.00    +0.000 A 
ATOM     12  C   UNL     1       6.250   4.668  18.303  0.00  0.00    +0.000 A 
ATOM     13  C   UNL     1       7.189   5.686  18.511  0.00  0.00    +0.000 A 
ATOM     14  C   UNL     1       7.073   6.887  17.814  0.00  0.00    +0.000 A 
ATOM     15 CL   UNL     1       8.219   8.144  18.075  0.00  0.00    +0.000 Cl
ATOM     16  C   UNL     1       6.033   7.077  16.907  0.00  0.00    +0.000 A 
ATOM     17  C   UNL     1       5.095   6.061  16.703  0.00  0.00    +0.000 A 
ENDBRANCH  10  11
ENDBRANCH   6  10
TORSDOF 3
ENDMDL
MODEL 8
REMARK VINA RESULT:      -6.4      3.172      5.738
REMARK  Name = 
REMARK  3 active torsions:
REMARK  status: ('A' for Active; 'I' for Inactive)
REMARK    1  A    between atoms: N_1  and  C_2
REMARK    2  A    between atoms: C_7  and  S_8
REMARK    3  A    between atoms: S_8  and  C_9
REMARK                            x       y       z     vdW  Elec       q    Type
REMARK                         _______ _______ _______ _____ _____    ______ ____
ROOT
ATOM      1  C   UNL     1       6.042   6.447  16.730  0.00  0.00    +0.000 A 
ATOM      2  C   UNL     1       6.955   7.375  17.250  0.00  0.00    +0.000 A 
ATOM      3  C   UNL     1       7.841   7.019  18.268  0.00  0.00    +0.000 A 
ATOM      4  C   UNL     1       7.857   5.713  18.750  0.00  0.00    +0.000 A 
ATOM      5  C   UNL     1       7.005   4.758  18.194  0.00  0.00    +0.000 A 
ATOM      6  C   UNL     1       6.118   5.106  17.165  0.00  0.00    +0.000 A 
ENDROOT
BRANCH   1   7
ATOM      7  N   UNL     1       5.224   6.838  15.650  0.00  0.00    +0.000 N 
ATOM      8  H   UNL     1       5.486   7.734  15.252  0.00  0.00    +0.000 HD
ATOM      9  H   UNL     1       4.238   6.797  15.901  0.00  0.00    +0.000 HD
ENDBRANCH   1   7
BRANCH   6  10
ATOM     10  S   UNL     1       5.036   3.832  16.507  0.00  0.00    +0.000 S 
BRANCH  10  11
ATOM     11  C   UNL     1       3.972   3.537  17.910  0.00  0.00    +0.000 A 
ATOM     12  C   UNL     1       3.725   4.544  18.852  0.00  0.00    +0.000 A 
ATOM     13  C   UNL     1       2.869   4.305  19.934  0.00  0.00    +0.000 A 
ATOM     14  C   UNL     1       2.251   3.063  20.066  0.00  0.00    +0.000 A 
ATOM     15 CL   UNL     1       1.207   2.763  21.401  0.00  0.00    +0.000 Cl
ATOM     16  C   UNL     1       2.474   2.062  19.124  0.00  0.00    +0.000 A 
ATOM     17  C   UNL     1       3.331   2.300  18.046  0.00  0.00    +0.000 A 
ENDBRANCH  10  11
ENDBRANCH   6  10
TORSDOF 3
ENDMDL
MODEL 9
REMARK VINA RESULT:      -6.4      1.343      1.834
REMARK  Name = 
REMARK  3 active torsions:
REMARK  status: ('A' for Active; 'I' for Inactive)
REMARK    1  A    between atoms: N_1  and  C_2
REMARK    2  A    between atoms: C_7  and  S_8
REMARK    3  A    between atoms: S_8  and  C_9
REMARK                            x       y       z     vdW  Elec       q    Type
REMARK                         _______ _______ _______ _____ _____    ______ ____
ROOT
ATOM      1  C   UNL     1       1.744   3.819  18.854  0.00  0.00    +0.000 A 
ATOM      2  C   UNL     1       1.028   4.021  20.042  0.00  0.00    +0.000 A 
ATOM      3  C   UNL     1       1.443   3.434  21.239  0.00  0.00    +0.000 A 
ATOM      4  C   UNL     1       2.609   2.674  21.273  0.00  0.00    +0.000 A 
ATOM      5  C   UNL     1       3.373   2.523  20.115  0.00  0.00    +0.000 A 
ATOM      6  C   UNL     1       2.967   3.116  18.911  0.00  0.00    +0.000 A 
ENDROOT
BRANCH   1   7
ATOM      7  N   UNL     1       1.325   4.497  17.691  0.00  0.00    +0.000 N 
ATOM      8  H   UNL     1       1.323   3.910  16.863  0.00  0.00    +0.000 HD
ATOM      9  H   UNL     1       1.853   5.358  17.555  0.00  0.00    +0.000 HD
ENDBRANCH   1   7
BRANCH   6  10
ATOM     10  S   UNL     1       3.987   2.866  17.454  0.00  0.00    +0.000 S 
BRANCH  10  11
ATOM     11  C   UNL     1       5.032   4.311  17.522  0.00  0.00    +0.000 A 
ATOM     12  C   UNL     1       5.967   4.477  18.551  0.00  0.00    +0.000 A 
ATOM     13  C   UNL     1       6.797   5.605  18.579  0.00  0.00    +0.000 A 
ATOM     14  C   UNL     1       6.699   6.560  17.569  0.00  0.00    +0.000 A 
ATOM     15 CL   UNL     1       7.710   7.953  17.605  0.00  0.00    +0.000 Cl
ATOM     16  C   UNL     1       5.787   6.395  16.530  0.00  0.00    +0.000 A 
ATOM     17  C   UNL     1       4.957   5.270  16.506  0.00  0.00    +0.000 A 
ENDBRANCH  10  11
ENDBRANCH   6  10
TORSDOF 3
ENDMDL
