MODEL 1
REMARK VINA RESULT:      -7.2      0.000      0.000
REMARK  Name = 
REMARK  4 active torsions:
REMARK  status: ('A' for Active; 'I' for Inactive)
REMARK    1  A    between atoms: C_1  and  C_2
REMARK    2  A    between atoms: C_2  and  O_3
REMARK    3  A    between atoms: C_7  and  C_9
REMARK    4  A    between atoms: C_9  and  C_12
REMARK                            x       y       z     vdW  Elec       q    Type
REMARK                         _______ _______ _______ _____ _____    ______ ____
ROOT
ATOM      1  C   UNL     1       7.515   4.478  16.464  0.00  0.00    +0.000 C 
ATOM      2  C   UNL     1       6.304   5.397  16.418  0.00  0.00    +0.000 C 
ATOM      3  C   UNL     1       6.395   6.576  17.391  0.00  0.00    +0.000 C 
ATOM      4  C   UNL     1       4.940   7.003  17.529  0.00  0.00    +0.000 C 
ATOM      5  N   UNL     1       4.193   5.762  17.455  0.00  0.00    +0.000 N 
ATOM      6  C   UNL     1       2.844   5.700  17.771  0.00  0.00    +0.000 C 
ATOM      7  O   UNL     1       2.237   6.735  18.087  0.00  0.00    +0.000 OA
ATOM      8  C   UNL     1       5.001   4.699  16.853  0.00  0.00    +0.000 C 
ENDROOT
BRANCH   6   9
ATOM      9  C   UNL     1       2.122   4.321  17.758  0.00  0.00    +0.000 C 
ATOM     10  F   UNL     1       0.824   4.438  17.317  0.00  0.00    +0.000 F 
ATOM     11  F   UNL     1       2.702   3.515  16.801  0.00  0.00    +0.000 F 
BRANCH   9  12
ATOM     12  C   UNL     1       2.201   3.664  19.135  0.00  0.00    +0.000 A 
ATOM     13  C   UNL     1       1.113   3.749  20.008  0.00  0.00    +0.000 A 
ATOM     14  C   UNL     1       1.223   3.208  21.286  0.00  0.00    +0.000 A 
ATOM     15  C   UNL     1       2.405   2.583  21.664  0.00  0.00    +0.000 A 
ATOM     16  C   UNL     1       3.435   2.522  20.743  0.00  0.00    +0.000 A 
ATOM     17  N   UNL     1       3.361   3.044  19.499  0.00  0.00    +0.000 NA
ENDBRANCH   9  12
ENDBRANCH   6   9
BRANCH   2  18
ATOM     18  O   UNL     1       6.164   5.900  15.086  0.00  0.00    +0.000 OA
ATOM     19  H   UNL     1       6.882   5.530  14.544  0.00  0.00    +0.000 HD
ENDBRANCH   2  18
TORSDOF 3
ENDMDL
MODEL 2
REMARK VINA RESULT:      -7.2      2.717      5.765
REMARK  Name = 
REMARK  4 active torsions:
REMARK  status: ('A' for Active; 'I' for Inactive)
REMARK    1  A    between atoms: C_1  and  C_2
REMARK    2  A    between atoms: C_2  and  O_3
REMARK    3  A    between atoms: C_7  and  C_9
REMARK    4  A    between atoms: C_9  and  C_12
REMARK                            x       y       z     vdW  Elec       q    Type
REMARK                         _______ _______ _______ _____ _____    ______ ____
ROOT
ATOM      1  C   UNL     1       0.965   2.768  18.704  0.00  0.00    +0.000 C 
ATOM      2  C   UNL     1       2.478   2.621  18.667  0.00  0.00    +0.000 C 
ATOM      3  C   UNL     1       3.117   2.530  20.055  0.00  0.00    +0.000 C 
ATOM      4  C   UNL     1       4.566   2.905  19.776  0.00  0.00    +0.000 C 
ATOM      5  N   UNL     1       4.483   3.901  18.725  0.00  0.00    +0.000 N 
ATOM      6  C   UNL     1       5.581   4.662  18.351  0.00  0.00    +0.000 C 
ATOM      7  O   UNL     1       6.679   4.467  18.892  0.00  0.00    +0.000 OA
ATOM      8  C   UNL     1       3.187   3.840  18.047  0.00  0.00    +0.000 C 
ENDROOT
BRANCH   6   9
ATOM      9  C   UNL     1       5.404   5.776  17.277  0.00  0.00    +0.000 C 
ATOM     10  F   UNL     1       4.110   6.243  17.246  0.00  0.00    +0.000 F 
ATOM     11  F   UNL     1       6.126   6.888  17.656  0.00  0.00    +0.000 F 
BRANCH   9  12
ATOM     12  C   UNL     1       5.864   5.275  15.909  0.00  0.00    +0.000 A 
ATOM     13  C   UNL     1       5.003   4.498  15.129  0.00  0.00    +0.000 A 
ATOM     14  C   UNL     1       5.459   3.989  13.916  0.00  0.00    +0.000 A 
ATOM     15  C   UNL     1       6.753   4.273  13.498  0.00  0.00    +0.000 A 
ATOM     16  C   UNL     1       7.543   5.062  14.313  0.00  0.00    +0.000 A 
ATOM     17  N   UNL     1       7.133   5.564  15.499  0.00  0.00    +0.000 NA
ENDBRANCH   9  12
ENDBRANCH   6   9
BRANCH   2  18
ATOM     18  O   UNL     1       2.802   1.442  17.924  0.00  0.00    +0.000 OA
ATOM     19  H   UNL     1       3.195   0.796  18.536  0.00  0.00    +0.000 HD
ENDBRANCH   2  18
TORSDOF 3
ENDMDL
MODEL 3
REMARK VINA RESULT:      -7.2      1.825      2.255
REMARK  Name = 
REMARK  4 active torsions:
REMARK  status: ('A' for Active; 'I' for Inactive)
REMARK    1  A    between atoms: C_1  and  C_2
REMARK    2  A    between atoms: C_2  and  O_3
REMARK    3  A    between atoms: C_7  and  C_9
REMARK    4  A    between atoms: C_9  and  C_12
REMARK                            x       y       z     vdW  Elec       q    Type
REMARK                         _______ _______ _______ _____ _____    ______ ____
ROOT
ATOM      1  C   UNL     1       7.387   6.562  17.565  0.00  0.00    +0.000 C 
ATOM      2  C   UNL     1       6.615   5.256  17.458  0.00  0.00    +0.000 C 
ATOM      3  C   UNL     1       6.626   4.653  16.051  0.00  0.00    +0.000 C 
ATOM      4  C   UNL     1       5.429   3.712  16.086  0.00  0.00    +0.000 C 
ATOM      5  N   UNL     1       4.462   4.393  16.926  0.00  0.00    +0.000 N 
ATOM      6  C   UNL     1       3.146   3.967  17.018  0.00  0.00    +0.000 C 
ATOM      7  O   UNL     1       2.781   2.953  16.404  0.00  0.00    +0.000 OA
ATOM      8  C   UNL     1       5.110   5.419  17.745  0.00  0.00    +0.000 C 
ENDROOT
BRANCH   6   9
ATOM      9  C   UNL     1       2.136   4.795  17.867  0.00  0.00    +0.000 C 
ATOM     10  F   UNL     1       2.496   6.121  17.924  0.00  0.00    +0.000 F 
ATOM     11  F   UNL     1       0.921   4.831  17.216  0.00  0.00    +0.000 F 
BRANCH   9  12
ATOM     12  C   UNL     1       1.983   4.182  19.259  0.00  0.00    +0.000 A 
ATOM     13  C   UNL     1       2.547   4.825  20.365  0.00  0.00    +0.000 A 
ATOM     14  C   UNL     1       2.462   4.223  21.617  0.00  0.00    +0.000 A 
ATOM     15  C   UNL     1       1.808   3.003  21.746  0.00  0.00    +0.000 A 
ATOM     16  C   UNL     1       1.261   2.433  20.611  0.00  0.00    +0.000 A 
ATOM     17  N   UNL     1       1.334   2.989  19.382  0.00  0.00    +0.000 NA
ENDBRANCH   9  12
ENDBRANCH   6   9
BRANCH   2  18
ATOM     18  O   UNL     1       7.184   4.315  18.375  0.00  0.00    +0.000 OA
ATOM     19  H   UNL     1       8.147   4.447  18.387  0.00  0.00    +0.000 HD
ENDBRANCH   2  18
TORSDOF 3
ENDMDL
MODEL 4
REMARK VINA RESULT:      -7.2      1.677      2.048
REMARK  Name = 
REMARK  4 active torsions:
REMARK  status: ('A' for Active; 'I' for Inactive)
REMARK    1  A    between atoms: C_1  and  C_2
REMARK    2  A    between atoms: C_2  and  O_3
REMARK    3  A    between atoms: C_7  and  C_9
REMARK    4  A    between atoms: C_9  and  C_12
REMARK                            x       y       z     vdW  Elec       q    Type
REMARK                         _______ _______ _______ _____ _____    ______ ____
ROOT
ATOM      1  C   UNL     1       7.512   7.027  17.453  0.00  0.00    +0.000 C 
ATOM      2  C   UNL     1       6.879   5.651  17.319  0.00  0.00    +0.000 C 
ATOM      3  C   UNL     1       6.820   5.144  15.876  0.00  0.00    +0.000 C 
ATOM      4  C   UNL     1       5.740   4.073  15.947  0.00  0.00    +0.000 C 
ATOM      5  N   UNL     1       4.790   4.585  16.917  0.00  0.00    +0.000 N 
ATOM      6  C   UNL     1       3.542   4.007  17.093  0.00  0.00    +0.000 C 
ATOM      7  O   UNL     1       3.231   2.999  16.441  0.00  0.00    +0.000 OA
ATOM      8  C   UNL     1       5.400   5.624  17.749  0.00  0.00    +0.000 C 
ENDROOT
BRANCH   6   9
ATOM      9  C   UNL     1       2.535   4.659  18.086  0.00  0.00    +0.000 C 
ATOM     10  F   UNL     1       2.857   5.972  18.339  0.00  0.00    +0.000 F 
ATOM     11  F   UNL     1       1.300   4.754  17.481  0.00  0.00    +0.000 F 
BRANCH   9  12
ATOM     12  C   UNL     1       2.443   3.835  19.370  0.00  0.00    +0.000 A 
ATOM     13  C   UNL     1       1.207   3.672  20.002  0.00  0.00    +0.000 A 
ATOM     14  C   UNL     1       1.148   2.980  21.208  0.00  0.00    +0.000 A 
ATOM     15  C   UNL     1       2.313   2.452  21.752  0.00  0.00    +0.000 A 
ATOM     16  C   UNL     1       3.497   2.639  21.063  0.00  0.00    +0.000 A 
ATOM     17  N   UNL     1       3.588   3.313  19.896  0.00  0.00    +0.000 NA
ENDBRANCH   9  12
ENDBRANCH   6   9
BRANCH   2  18
ATOM     18  O   UNL     1       7.630   4.726  18.111  0.00  0.00    +0.000 OA
ATOM     19  H   UNL     1       8.232   5.232  18.682  0.00  0.00    +0.000 HD
ENDBRANCH   2  18
TORSDOF 3
ENDMDL
MODEL 5
REMARK VINA RESULT:      -7.1      2.808      6.191
REMARK  Name = 
REMARK  4 active torsions:
REMARK  status: ('A' for Active; 'I' for Inactive)
REMARK    1  A    between atoms: C_1  and  C_2
REMARK    2  A    between atoms: C_2  and  O_3
REMARK    3  A    between atoms: C_7  and  C_9
REMARK    4  A    between atoms: C_9  and  C_12
REMARK                            x       y       z     vdW  Elec       q    Type
REMARK                         _______ _______ _______ _____ _____    ______ ____
ROOT
ATOM      1  C   UNL     1       1.598   4.148  18.408  0.00  0.00    +0.000 C 
ATOM      2  C   UNL     1       2.780   5.101  18.489  0.00  0.00    +0.000 C 
ATOM      3  C   UNL     1       2.503   6.473  17.871  0.00  0.00    +0.000 C 
ATOM      4  C   UNL     1       3.905   7.010  17.616  0.00  0.00    +0.000 C 
ATOM      5  N   UNL     1       4.678   5.836  17.256  0.00  0.00    +0.000 N 
ATOM      6  C   UNL     1       5.955   5.937  16.724  0.00  0.00    +0.000 C 
ATOM      7  O   UNL     1       6.479   7.052  16.586  0.00  0.00    +0.000 OA
ATOM      8  C   UNL     1       4.005   4.611  17.692  0.00  0.00    +0.000 C 
ENDROOT
BRANCH   6   9
ATOM      9  C   UNL     1       6.696   4.643  16.275  0.00  0.00    +0.000 C 
ATOM     10  F   UNL     1       7.901   4.504  16.924  0.00  0.00    +0.000 F 
ATOM     11  F   UNL     1       5.985   3.542  16.704  0.00  0.00    +0.000 F 
BRANCH   9  12
ATOM     12  C   UNL     1       6.858   4.621  14.756  0.00  0.00    +0.000 A 
ATOM     13  C   UNL     1       6.059   3.771  13.986  0.00  0.00    +0.000 A 
ATOM     14  C   UNL     1       6.264   3.707  12.611  0.00  0.00    +0.000 A 
ATOM     15  C   UNL     1       7.247   4.498  12.028  0.00  0.00    +0.000 A 
ATOM     16  C   UNL     1       7.989   5.327  12.850  0.00  0.00    +0.000 A 
ATOM     17  N   UNL     1       7.819   5.405  14.188  0.00  0.00    +0.000 NA
ENDBRANCH   9  12
ENDBRANCH   6   9
BRANCH   2  18
ATOM     18  O   UNL     1       3.134   5.270  19.865  0.00  0.00    +0.000 OA
ATOM     19  H   UNL     1       3.284   4.390  20.251  0.00  0.00    +0.000 HD
ENDBRANCH   2  18
TORSDOF 3
ENDMDL
MODEL 6
REMARK VINA RESULT:      -7.1      1.717      2.057
REMARK  Name = 
REMARK  4 active torsions:
REMARK  status: ('A' for Active; 'I' for Inactive)
REMARK    1  A    between atoms: C_1  and  C_2
REMARK    2  A    between atoms: C_2  and  O_3
REMARK    3  A    between atoms: C_7  and  C_9
REMARK    4  A    between atoms: C_9  and  C_12
REMARK                            x       y       z     vdW  Elec       q    Type
REMARK                         _______ _______ _______ _____ _____    ______ ____
ROOT
ATOM      1  C   UNL     1       6.626   4.149  13.486  0.00  0.00    +0.000 C 
ATOM      2  C   UNL     1       6.314   4.783  14.833  0.00  0.00    +0.000 C 
ATOM      3  C   UNL     1       7.508   4.802  15.790  0.00  0.00    +0.000 C 
ATOM      4  C   UNL     1       6.840   4.981  17.147  0.00  0.00    +0.000 C 
ATOM      5  N   UNL     1       5.598   4.239  17.036  0.00  0.00    +0.000 N 
ATOM      6  C   UNL     1       4.809   3.965  18.143  0.00  0.00    +0.000 C 
ATOM      7  O   UNL     1       5.140   4.395  19.258  0.00  0.00    +0.000 OA
ATOM      8  C   UNL     1       5.250   4.008  15.633  0.00  0.00    +0.000 C 
ENDROOT
BRANCH   6   9
ATOM      9  C   UNL     1       3.534   3.088  17.969  0.00  0.00    +0.000 C 
ATOM     10  F   UNL     1       2.776   3.509  16.901  0.00  0.00    +0.000 F 
ATOM     11  F   UNL     1       3.908   1.813  17.600  0.00  0.00    +0.000 F 
BRANCH   9  12
ATOM     12  C   UNL     1       2.727   3.057  19.267  0.00  0.00    +0.000 A 
ATOM     13  C   UNL     1       1.499   3.720  19.335  0.00  0.00    +0.000 A 
ATOM     14  C   UNL     1       0.807   3.745  20.543  0.00  0.00    +0.000 A 
ATOM     15  C   UNL     1       1.342   3.101  21.651  0.00  0.00    +0.000 A 
ATOM     16  C   UNL     1       2.555   2.452  21.506  0.00  0.00    +0.000 A 
ATOM     17  N   UNL     1       3.253   2.417  20.350  0.00  0.00    +0.000 NA
ENDBRANCH   9  12
ENDBRANCH   6   9
BRANCH   2  18
ATOM     18  O   UNL     1       5.871   6.126  14.611  0.00  0.00    +0.000 OA
ATOM     19  H   UNL     1       6.615   6.725  14.793  0.00  0.00    +0.000 HD
ENDBRANCH   2  18
TORSDOF 3
ENDMDL
MODEL 7
REMARK VINA RESULT:      -7.1      3.010      6.021
REMARK  Name = 
REMARK  4 active torsions:
REMARK  status: ('A' for Active; 'I' for Inactive)
REMARK    1  A    between atoms: C_1  and  C_2
REMARK    2  A    between atoms: C_2  and  O_3
REMARK    3  A    between atoms: C_7  and  C_9
REMARK    4  A    between atoms: C_9  and  C_12
REMARK                            x       y       z     vdW  Elec       q    Type
REMARK                         _______ _______ _______ _____ _____    ______ ____
ROOT
ATOM      1  C   UNL     1       1.398   4.088  18.332  0.00  0.00    +0.000 C 
ATOM      2  C   UNL     1       2.827   3.576  18.228  0.00  0.00    +0.000 C 
ATOM      3  C   UNL     1       3.503   3.373  19.586  0.00  0.00    +0.000 C 
ATOM      4  C   UNL     1       4.982   3.375  19.221  0.00  0.00    +0.000 C 
ATOM      5  N   UNL     1       5.082   4.331  18.134  0.00  0.00    +0.000 N 
ATOM      6  C   UNL     1       6.307   4.791  17.676  0.00  0.00    +0.000 C 
ATOM      7  O   UNL     1       7.355   4.351  18.170  0.00  0.00    +0.000 OA
ATOM      8  C   UNL     1       3.772   4.568  17.523  0.00  0.00    +0.000 C 
ENDROOT
BRANCH   6   9
ATOM      9  C   UNL     1       6.342   5.883  16.566  0.00  0.00    +0.000 C 
ATOM     10  F   UNL     1       5.249   6.713  16.643  0.00  0.00    +0.000 F 
ATOM     11  F   UNL     1       7.398   6.738  16.806  0.00  0.00    +0.000 F 
BRANCH   9  12
ATOM     12  C   UNL     1       6.475   5.238  15.187  0.00  0.00    +0.000 A 
ATOM     13  C   UNL     1       5.487   4.359  14.735  0.00  0.00    +0.000 A 
ATOM     14  C   UNL     1       5.653   3.723  13.508  0.00  0.00    +0.000 A 
ATOM     15  C   UNL     1       6.789   3.984  12.751  0.00  0.00    +0.000 A 
ATOM     16  C   UNL     1       7.717   4.876  13.255  0.00  0.00    +0.000 A 
ATOM     17  N   UNL     1       7.588   5.503  14.445  0.00  0.00    +0.000 NA
ENDBRANCH   9  12
ENDBRANCH   6   9
BRANCH   2  18
ATOM     18  O   UNL     1       2.814   2.332  17.521  0.00  0.00    +0.000 OA
ATOM     19  H   UNL     1       3.343   1.690  18.025  0.00  0.00    +0.000 HD
ENDBRANCH   2  18
TORSDOF 3
ENDMDL
MODEL 8
REMARK VINA RESULT:      -7.1      2.263      2.939
REMARK  Name = 
REMARK  4 active torsions:
REMARK  status: ('A' for Active; 'I' for Inactive)
REMARK    1  A    between atoms: C_1  and  C_2
REMARK    2  A    between atoms: C_2  and  O_3
REMARK    3  A    between atoms: C_7  and  C_9
REMARK    4  A    between atoms: C_9  and  C_12
REMARK                            x       y       z     vdW  Elec       q    Type
REMARK                         _______ _______ _______ _____ _____    ______ ____
ROOT
ATOM      1  C   UNL     1       5.588   4.264  13.835  0.00  0.00    +0.000 C 
ATOM      2  C   UNL     1       5.836   4.957  15.166  0.00  0.00    +0.000 C 
ATOM      3  C   UNL     1       7.312   4.988  15.572  0.00  0.00    +0.000 C 
ATOM      4  C   UNL     1       7.236   5.234  17.073  0.00  0.00    +0.000 C 
ATOM      5  N   UNL     1       6.049   4.514  17.494  0.00  0.00    +0.000 N 
ATOM      6  C   UNL     1       5.761   4.299  18.834  0.00  0.00    +0.000 C 
ATOM      7  O   UNL     1       6.507   4.766  19.708  0.00  0.00    +0.000 OA
ATOM      8  C   UNL     1       5.173   4.235  16.355  0.00  0.00    +0.000 C 
ENDROOT
BRANCH   6   9
ATOM      9  C   UNL     1       4.518   3.442  19.217  0.00  0.00    +0.000 C 
ATOM     10  F   UNL     1       4.125   2.633  18.176  0.00  0.00    +0.000 F 
ATOM     11  F   UNL     1       4.877   2.537  20.194  0.00  0.00    +0.000 F 
BRANCH   9  12
ATOM     12  C   UNL     1       3.382   4.339  19.706  0.00  0.00    +0.000 A 
ATOM     13  C   UNL     1       2.271   3.771  20.334  0.00  0.00    +0.000 A 
ATOM     14  C   UNL     1       1.211   4.590  20.711  0.00  0.00    +0.000 A 
ATOM     15  C   UNL     1       1.282   5.956  20.468  0.00  0.00    +0.000 A 
ATOM     16  C   UNL     1       2.419   6.451  19.857  0.00  0.00    +0.000 A 
ATOM     17  N   UNL     1       3.461   5.681  19.472  0.00  0.00    +0.000 NA
ENDBRANCH   9  12
ENDBRANCH   6   9
BRANCH   2  18
ATOM     18  O   UNL     1       5.346   6.299  15.079  0.00  0.00    +0.000 OA
ATOM     19  H   UNL     1       4.496   6.282  14.607  0.00  0.00    +0.000 HD
ENDBRANCH   2  18
TORSDOF 3
ENDMDL
MODEL 9
REMARK VINA RESULT:      -7.1      2.218      5.540
REMARK  Name = 
REMARK  4 active torsions:
REMARK  status: ('A' for Active; 'I' for Inactive)
REMARK    1  A    between atoms: C_1  and  C_2
REMARK    2  A    between atoms: C_2  and  O_3
REMARK    3  A    between atoms: C_7  and  C_9
REMARK    4  A    between atoms: C_9  and  C_12
REMARK                            x       y       z     vdW  Elec       q    Type
REMARK                         _______ _______ _______ _____ _____    ______ ____
ROOT
ATOM      1  C   UNL     1       1.510   4.345  20.263  0.00  0.00    +0.000 C 
ATOM      2  C   UNL     1       2.062   3.804  18.954  0.00  0.00    +0.000 C 
ATOM      3  C   UNL     1       2.943   2.563  19.128  0.00  0.00    +0.000 C 
ATOM      4  C   UNL     1       3.745   2.544  17.833  0.00  0.00    +0.000 C 
ATOM      5  N   UNL     1       3.958   3.945  17.523  0.00  0.00    +0.000 N 
ATOM      6  C   UNL     1       4.849   4.348  16.538  0.00  0.00    +0.000 C 
ATOM      7  O   UNL     1       5.454   3.497  15.869  0.00  0.00    +0.000 OA
ATOM      8  C   UNL     1       3.006   4.792  18.243  0.00  0.00    +0.000 C 
ENDROOT
BRANCH   6   9
ATOM      9  C   UNL     1       5.098   5.869  16.315  0.00  0.00    +0.000 C 
ATOM     10  F   UNL     1       5.266   6.159  14.981  0.00  0.00    +0.000 F 
ATOM     11  F   UNL     1       3.956   6.568  16.643  0.00  0.00    +0.000 F 
BRANCH   9  12
ATOM     12  C   UNL     1       6.281   6.344  17.158  0.00  0.00    +0.000 A 
ATOM     13  C   UNL     1       6.760   5.541  18.196  0.00  0.00    +0.000 A 
ATOM     14  C   UNL     1       7.791   6.015  19.002  0.00  0.00    +0.000 A 
ATOM     15  C   UNL     1       8.334   7.270  18.750  0.00  0.00    +0.000 A 
ATOM     16  C   UNL     1       7.820   8.002  17.696  0.00  0.00    +0.000 A 
ATOM     17  N   UNL     1       6.815   7.573  16.902  0.00  0.00    +0.000 NA
ENDBRANCH   9  12
ENDBRANCH   6   9
BRANCH   2  18
ATOM     18  O   UNL     1       0.964   3.480  18.096  0.00  0.00    +0.000 OA
ATOM     19  H   UNL     1       0.909   4.160  17.402  0.00  0.00    +0.000 HD
ENDBRANCH   2  18
TORSDOF 3
ENDMDL
