MODEL 1
REMARK VINA RESULT:      -6.3      0.000      0.000
REMARK  Name = 
REMARK  6 active torsions:
REMARK  status: ('A' for Active; 'I' for Inactive)
REMARK    1  A    between atoms: C_1  and  O_2
REMARK    2  A    between atoms: O_2  and  C_3
REMARK    3  A    between atoms: C_6  and  C_7
REMARK    4  A    between atoms: C_15  and  C_16
REMARK    5  A    between atoms: C_26  and  O_27
REMARK    6  A    between atoms: O_27  and  C_28
REMARK                            x       y       z     vdW  Elec       q    Type
REMARK                         _______ _______ _______ _____ _____    ______ ____
ROOT
ATOM      1  C   UNL     1       0.285  11.818  20.234  0.00  0.00    +0.000 A 
ATOM      2  C   UNL     1      -0.923  12.313  20.736  0.00  0.00    +0.000 A 
ATOM      3  C   UNL     1      -2.115  12.196  20.016  0.00  0.00    +0.000 A 
ATOM      4  C   UNL     1      -3.378  12.691  20.583  0.00  0.00    +0.000 A 
ATOM      5  C   UNL     1      -4.485  12.532  19.827  0.00  0.00    +0.000 A 
ATOM      6  O   UNL     1      -4.467  11.920  18.554  0.00  0.00    +0.000 OA
ATOM      7  C   UNL     1      -3.324  11.451  17.977  0.00  0.00    +0.000 A 
ATOM      8  O   UNL     1      -3.319  10.927  16.868  0.00  0.00    +0.000 OA
ATOM      9  C   UNL     1      -2.078  11.600  18.758  0.00  0.00    +0.000 A 
ATOM     10  C   UNL     1      -0.863  11.136  18.220  0.00  0.00    +0.000 A 
ATOM     11  C   UNL     1       0.324  11.245  18.952  0.00  0.00    +0.000 A 
ENDROOT
BRANCH   4  12
ATOM     12  C   UNL     1      -3.491  13.355  21.907  0.00  0.00    +0.000 A 
ATOM     13  C   UNL     1      -3.345  14.744  22.022  0.00  0.00    +0.000 A 
ATOM     14  C   UNL     1      -3.472  15.350  23.271  0.00  0.00    +0.000 A 
ATOM     15  F   UNL     1      -3.340  16.677  23.370  0.00  0.00    +0.000 F 
ATOM     16  C   UNL     1      -3.744  14.600  24.408  0.00  0.00    +0.000 A 
ATOM     17  C   UNL     1      -3.892  13.228  24.285  0.00  0.00    +0.000 A 
ATOM     18  F   UNL     1      -4.165  12.496  25.371  0.00  0.00    +0.000 F 
ATOM     19  C   UNL     1      -3.771  12.597  23.051  0.00  0.00    +0.000 A 
ENDBRANCH   4  12
BRANCH   5  20
ATOM     20  C   UNL     1      -5.799  12.957  20.204  0.00  0.00    +0.000 A 
ATOM     21  C   UNL     1      -6.703  12.206  21.013  0.00  0.00    +0.000 A 
ATOM     22  C   UNL     1      -7.853  12.914  21.289  0.00  0.00    +0.000 A 
ATOM     23  S   UNL     1      -7.855  14.457  20.548  0.00  0.00    +0.000 S 
ATOM     24  C   UNL     1      -6.314  14.188  19.854  0.00  0.00    +0.000 A 
ENDBRANCH   5  20
BRANCH   1  26
ATOM     25  C   UNL     1       2.064  13.193  20.965  0.00  0.00    +0.000 C 
ATOM     26  O   UNL     1       1.459  11.901  20.943  0.00  0.00    +0.000 OA
ENDBRANCH   1  26
BRANCH  11  27
ATOM     27  O   UNL     1       1.551  10.816  18.517  0.00  0.00    +0.000 OA
ATOM     28  C   UNL     1       1.631   9.518  17.938  0.00  0.00    +0.000 C 
ENDBRANCH  11  27
TORSDOF 4
ENDMDL
MODEL 2
REMARK VINA RESULT:      -6.2      1.068      2.060
REMARK  Name = 
REMARK  6 active torsions:
REMARK  status: ('A' for Active; 'I' for Inactive)
REMARK    1  A    between atoms: C_1  and  O_2
REMARK    2  A    between atoms: O_2  and  C_3
REMARK    3  A    between atoms: C_6  and  C_7
REMARK    4  A    between atoms: C_15  and  C_16
REMARK    5  A    between atoms: C_26  and  O_27
REMARK    6  A    between atoms: O_27  and  C_28
REMARK                            x       y       z     vdW  Elec       q    Type
REMARK                         _______ _______ _______ _____ _____    ______ ____
ROOT
ATOM      1  C   UNL     1       0.175  10.713  20.844  0.00  0.00    +0.000 A 
ATOM      2  C   UNL     1      -0.905  11.500  21.253  0.00  0.00    +0.000 A 
ATOM      3  C   UNL     1      -1.988  11.749  20.404  0.00  0.00    +0.000 A 
ATOM      4  C   UNL     1      -3.130  12.550  20.872  0.00  0.00    +0.000 A 
ATOM      5  C   UNL     1      -4.137  12.737  19.993  0.00  0.00    +0.000 A 
ATOM      6  O   UNL     1      -4.130  12.201  18.687  0.00  0.00    +0.000 OA
ATOM      7  C   UNL     1      -3.096  11.459  18.199  0.00  0.00    +0.000 A 
ATOM      8  O   UNL     1      -3.096  11.004  17.060  0.00  0.00    +0.000 OA
ATOM      9  C   UNL     1      -1.960  11.222  19.116  0.00  0.00    +0.000 A 
ATOM     10  C   UNL     1      -0.860  10.464  18.675  0.00  0.00    +0.000 A 
ATOM     11  C   UNL     1       0.214  10.208  19.533  0.00  0.00    +0.000 A 
ENDROOT
BRANCH   4  12
ATOM     12  C   UNL     1      -3.219  13.160  22.223  0.00  0.00    +0.000 A 
ATOM     13  C   UNL     1      -3.817  12.463  23.281  0.00  0.00    +0.000 A 
ATOM     14  C   UNL     1      -3.876  13.046  24.545  0.00  0.00    +0.000 A 
ATOM     15  F   UNL     1      -4.442  12.370  25.552  0.00  0.00    +0.000 F 
ATOM     16  C   UNL     1      -3.347  14.310  24.778  0.00  0.00    +0.000 A 
ATOM     17  C   UNL     1      -2.752  14.990  23.728  0.00  0.00    +0.000 A 
ATOM     18  F   UNL     1      -2.229  16.203  23.943  0.00  0.00    +0.000 F 
ATOM     19  C   UNL     1      -2.680  14.432  22.456  0.00  0.00    +0.000 A 
ENDBRANCH   4  12
BRANCH   5  20
ATOM     20  C   UNL     1      -5.324  13.493  20.261  0.00  0.00    +0.000 A 
ATOM     21  C   UNL     1      -5.453  14.904  20.093  0.00  0.00    +0.000 A 
ATOM     22  C   UNL     1      -6.740  15.333  20.335  0.00  0.00    +0.000 A 
ATOM     23  S   UNL     1      -7.774  14.048  20.794  0.00  0.00    +0.000 S 
ATOM     24  C   UNL     1      -6.504  12.907  20.671  0.00  0.00    +0.000 A 
ENDBRANCH   5  20
BRANCH   1  26
ATOM     25  C   UNL     1       1.035   9.328  22.556  0.00  0.00    +0.000 C 
ATOM     26  O   UNL     1       1.232  10.435  21.678  0.00  0.00    +0.000 OA
ENDBRANCH   1  26
BRANCH  11  27
ATOM     27  O   UNL     1       1.324   9.475  19.199  0.00  0.00    +0.000 OA
ATOM     28  C   UNL     1       1.777   9.539  17.851  0.00  0.00    +0.000 C 
ENDBRANCH  11  27
TORSDOF 4
ENDMDL
MODEL 3
REMARK VINA RESULT:      -6.2      1.127      1.443
REMARK  Name = 
REMARK  6 active torsions:
REMARK  status: ('A' for Active; 'I' for Inactive)
REMARK    1  A    between atoms: C_1  and  O_2
REMARK    2  A    between atoms: O_2  and  C_3
REMARK    3  A    between atoms: C_6  and  C_7
REMARK    4  A    between atoms: C_15  and  C_16
REMARK    5  A    between atoms: C_26  and  O_27
REMARK    6  A    between atoms: O_27  and  C_28
REMARK                            x       y       z     vdW  Elec       q    Type
REMARK                         _______ _______ _______ _____ _____    ______ ____
ROOT
ATOM      1  C   UNL     1       0.278  10.639  20.868  0.00  0.00    +0.000 A 
ATOM      2  C   UNL     1      -0.806  11.421  21.279  0.00  0.00    +0.000 A 
ATOM      3  C   UNL     1      -1.878  11.689  20.423  0.00  0.00    +0.000 A 
ATOM      4  C   UNL     1      -3.023  12.484  20.891  0.00  0.00    +0.000 A 
ATOM      5  C   UNL     1      -4.020  12.691  20.005  0.00  0.00    +0.000 A 
ATOM      6  O   UNL     1      -3.998  12.178  18.689  0.00  0.00    +0.000 OA
ATOM      7  C   UNL     1      -2.960  11.443  18.200  0.00  0.00    +0.000 A 
ATOM      8  O   UNL     1      -2.949  11.009  17.053  0.00  0.00    +0.000 OA
ATOM      9  C   UNL     1      -1.836  11.186  19.125  0.00  0.00    +0.000 A 
ATOM     10  C   UNL     1      -0.733  10.433  18.683  0.00  0.00    +0.000 A 
ATOM     11  C   UNL     1       0.331  10.158  19.549  0.00  0.00    +0.000 A 
ENDROOT
BRANCH   4  12
ATOM     12  C   UNL     1      -3.127  13.069  22.252  0.00  0.00    +0.000 A 
ATOM     13  C   UNL     1      -2.588  14.333  22.528  0.00  0.00    +0.000 A 
ATOM     14  C   UNL     1      -2.712  14.872  23.807  0.00  0.00    +0.000 A 
ATOM     15  F   UNL     1      -2.202  16.083  24.059  0.00  0.00    +0.000 F 
ATOM     16  C   UNL     1      -3.364  14.178  24.818  0.00  0.00    +0.000 A 
ATOM     17  C   UNL     1      -3.899  12.932  24.536  0.00  0.00    +0.000 A 
ATOM     18  F   UNL     1      -4.540  12.258  25.499  0.00  0.00    +0.000 F 
ATOM     19  C   UNL     1      -3.791  12.370  23.268  0.00  0.00    +0.000 A 
ENDBRANCH   4  12
BRANCH   5  20
ATOM     20  C   UNL     1      -5.207  13.444  20.273  0.00  0.00    +0.000 A 
ATOM     21  C   UNL     1      -5.329  14.859  20.137  0.00  0.00    +0.000 A 
ATOM     22  C   UNL     1      -6.618  15.287  20.369  0.00  0.00    +0.000 A 
ATOM     23  S   UNL     1      -7.663  13.997  20.783  0.00  0.00    +0.000 S 
ATOM     24  C   UNL     1      -6.395  12.854  20.651  0.00  0.00    +0.000 A 
ENDBRANCH   5  20
BRANCH   1  26
ATOM     25  C   UNL     1       1.078   9.281  22.630  0.00  0.00    +0.000 C 
ATOM     26  O   UNL     1       1.324  10.343  21.708  0.00  0.00    +0.000 OA
ENDBRANCH   1  26
BRANCH  11  27
ATOM     27  O   UNL     1       1.442   9.429  19.213  0.00  0.00    +0.000 OA
ATOM     28  C   UNL     1       1.727   9.256  17.830  0.00  0.00    +0.000 C 
ENDBRANCH  11  27
TORSDOF 4
ENDMDL
MODEL 4
REMARK VINA RESULT:      -6.1      3.405      5.993
REMARK  Name = 
REMARK  6 active torsions:
REMARK  status: ('A' for Active; 'I' for Inactive)
REMARK    1  A    between atoms: C_1  and  O_2
REMARK    2  A    between atoms: O_2  and  C_3
REMARK    3  A    between atoms: C_6  and  C_7
REMARK    4  A    between atoms: C_15  and  C_16
REMARK    5  A    between atoms: C_26  and  O_27
REMARK    6  A    between atoms: O_27  and  C_28
REMARK                            x       y       z     vdW  Elec       q    Type
REMARK                         _______ _______ _______ _____ _____    ______ ____
ROOT
ATOM      1  C   UNL     1      -3.573  14.036  22.838  0.00  0.00    +0.000 A 
ATOM      2  C   UNL     1      -2.990  13.377  21.752  0.00  0.00    +0.000 A 
ATOM      3  C   UNL     1      -3.768  12.829  20.727  0.00  0.00    +0.000 A 
ATOM      4  C   UNL     1      -3.128  12.174  19.577  0.00  0.00    +0.000 A 
ATOM      5  C   UNL     1      -3.950  11.679  18.628  0.00  0.00    +0.000 A 
ATOM      6  O   UNL     1      -5.358  11.774  18.702  0.00  0.00    +0.000 OA
ATOM      7  C   UNL     1      -6.003  12.363  19.748  0.00  0.00    +0.000 A 
ATOM      8  O   UNL     1      -7.226  12.434  19.806  0.00  0.00    +0.000 OA
ATOM      9  C   UNL     1      -5.154  12.922  20.821  0.00  0.00    +0.000 A 
ATOM     10  C   UNL     1      -5.757  13.544  21.930  0.00  0.00    +0.000 A 
ATOM     11  C   UNL     1      -4.973  14.101  22.945  0.00  0.00    +0.000 A 
ENDROOT
BRANCH   4  12
ATOM     12  C   UNL     1      -1.659  12.019  19.420  0.00  0.00    +0.000 A 
ATOM     13  C   UNL     1      -0.904  13.007  18.773  0.00  0.00    +0.000 A 
ATOM     14  C   UNL     1       0.475  12.851  18.651  0.00  0.00    +0.000 A 
ATOM     15  F   UNL     1       1.189  13.803  18.039  0.00  0.00    +0.000 F 
ATOM     16  C   UNL     1       1.120  11.732  19.163  0.00  0.00    +0.000 A 
ATOM     17  C   UNL     1       0.367  10.764  19.807  0.00  0.00    +0.000 A 
ATOM     18  F   UNL     1       0.978   9.686  20.315  0.00  0.00    +0.000 F 
ATOM     19  C   UNL     1      -1.012  10.893  19.943  0.00  0.00    +0.000 A 
ENDBRANCH   4  12
BRANCH   5  20
ATOM     20  C   UNL     1      -3.516  11.001  17.444  0.00  0.00    +0.000 A 
ATOM     21  C   UNL     1      -2.921   9.704  17.413  0.00  0.00    +0.000 A 
ATOM     22  C   UNL     1      -2.699   9.274  16.123  0.00  0.00    +0.000 A 
ATOM     23  S   UNL     1      -3.172  10.439  14.962  0.00  0.00    +0.000 S 
ATOM     24  C   UNL     1      -3.680  11.529  16.180  0.00  0.00    +0.000 A 
ENDBRANCH   5  20
BRANCH   1  26
ATOM     25  C   UNL     1      -1.414  14.375  23.740  0.00  0.00    +0.000 C 
ATOM     26  O   UNL     1      -2.819  14.604  23.837  0.00  0.00    +0.000 OA
ENDBRANCH   1  26
BRANCH  11  27
ATOM     27  O   UNL     1      -5.467  14.733  24.056  0.00  0.00    +0.000 OA
ATOM     28  C   UNL     1      -6.097  15.996  23.874  0.00  0.00    +0.000 C 
ENDBRANCH  11  27
TORSDOF 4
ENDMDL
MODEL 5
REMARK VINA RESULT:      -6.0      3.417      6.195
REMARK  Name = 
REMARK  6 active torsions:
REMARK  status: ('A' for Active; 'I' for Inactive)
REMARK    1  A    between atoms: C_1  and  O_2
REMARK    2  A    between atoms: O_2  and  C_3
REMARK    3  A    between atoms: C_6  and  C_7
REMARK    4  A    between atoms: C_15  and  C_16
REMARK    5  A    between atoms: C_26  and  O_27
REMARK    6  A    between atoms: O_27  and  C_28
REMARK                            x       y       z     vdW  Elec       q    Type
REMARK                         _______ _______ _______ _____ _____    ______ ____
ROOT
ATOM      1  C   UNL     1      -3.431  14.029  22.878  0.00  0.00    +0.000 A 
ATOM      2  C   UNL     1      -2.870  13.354  21.790  0.00  0.00    +0.000 A 
ATOM      3  C   UNL     1      -3.666  12.840  20.761  0.00  0.00    +0.000 A 
ATOM      4  C   UNL     1      -3.049  12.166  19.610  0.00  0.00    +0.000 A 
ATOM      5  C   UNL     1      -3.887  11.706  18.657  0.00  0.00    +0.000 A 
ATOM      6  O   UNL     1      -5.290  11.853  18.729  0.00  0.00    +0.000 OA
ATOM      7  C   UNL     1      -5.915  12.462  19.776  0.00  0.00    +0.000 A 
ATOM      8  O   UNL     1      -7.135  12.578  19.832  0.00  0.00    +0.000 OA
ATOM      9  C   UNL     1      -5.048  12.984  20.853  0.00  0.00    +0.000 A 
ATOM     10  C   UNL     1      -5.630  13.623  21.963  0.00  0.00    +0.000 A 
ATOM     11  C   UNL     1      -4.827  14.146  22.982  0.00  0.00    +0.000 A 
ENDROOT
BRANCH   4  12
ATOM     12  C   UNL     1      -1.587  11.958  19.454  0.00  0.00    +0.000 A 
ATOM     13  C   UNL     1      -0.969  10.816  19.983  0.00  0.00    +0.000 A 
ATOM     14  C   UNL     1       0.401  10.631  19.810  0.00  0.00    +0.000 A 
ATOM     15  F   UNL     1       0.981   9.534  20.312  0.00  0.00    +0.000 F 
ATOM     16  C   UNL     1       1.170  11.559  19.120  0.00  0.00    +0.000 A 
ATOM     17  C   UNL     1       0.551  12.682  18.596  0.00  0.00    +0.000 A 
ATOM     18  F   UNL     1       1.279  13.578  17.918  0.00  0.00    +0.000 F 
ATOM     19  C   UNL     1      -0.815  12.893  18.752  0.00  0.00    +0.000 A 
ENDBRANCH   4  12
BRANCH   5  20
ATOM     20  C   UNL     1      -3.476  11.018  17.471  0.00  0.00    +0.000 A 
ATOM     21  C   UNL     1      -2.947   9.693  17.433  0.00  0.00    +0.000 A 
ATOM     22  C   UNL     1      -2.734   9.263  16.141  0.00  0.00    +0.000 A 
ATOM     23  S   UNL     1      -3.136  10.461  14.987  0.00  0.00    +0.000 S 
ATOM     24  C   UNL     1      -3.601  11.564  16.211  0.00  0.00    +0.000 A 
ENDBRANCH   5  20
BRANCH   1  26
ATOM     25  C   UNL     1      -1.251  14.399  23.715  0.00  0.00    +0.000 C 
ATOM     26  O   UNL     1      -2.659  14.565  23.881  0.00  0.00    +0.000 OA
ENDBRANCH   1  26
BRANCH  11  27
ATOM     27  O   UNL     1      -5.300  14.791  24.096  0.00  0.00    +0.000 OA
ATOM     28  C   UNL     1      -6.148  15.917  23.898  0.00  0.00    +0.000 C 
ENDBRANCH  11  27
TORSDOF 4
ENDMDL
MODEL 6
REMARK VINA RESULT:      -6.0      0.491      1.621
REMARK  Name = 
REMARK  6 active torsions:
REMARK  status: ('A' for Active; 'I' for Inactive)
REMARK    1  A    between atoms: C_1  and  O_2
REMARK    2  A    between atoms: O_2  and  C_3
REMARK    3  A    between atoms: C_6  and  C_7
REMARK    4  A    between atoms: C_15  and  C_16
REMARK    5  A    between atoms: C_26  and  O_27
REMARK    6  A    between atoms: O_27  and  C_28
REMARK                            x       y       z     vdW  Elec       q    Type
REMARK                         _______ _______ _______ _____ _____    ______ ____
ROOT
ATOM      1  C   UNL     1       0.158  11.572  19.924  0.00  0.00    +0.000 A 
ATOM      2  C   UNL     1      -1.017  12.161  20.403  0.00  0.00    +0.000 A 
ATOM      3  C   UNL     1      -2.237  11.998  19.740  0.00  0.00    +0.000 A 
ATOM      4  C   UNL     1      -3.464  12.597  20.284  0.00  0.00    +0.000 A 
ATOM      5  C   UNL     1      -4.601  12.386  19.588  0.00  0.00    +0.000 A 
ATOM      6  O   UNL     1      -4.645  11.629  18.396  0.00  0.00    +0.000 OA
ATOM      7  C   UNL     1      -3.538  11.059  17.843  0.00  0.00    +0.000 A 
ATOM      8  O   UNL     1      -3.586  10.409  16.804  0.00  0.00    +0.000 OA
ATOM      9  C   UNL     1      -2.261  11.258  18.561  0.00  0.00    +0.000 A 
ATOM     10  C   UNL     1      -1.079  10.696  18.043  0.00  0.00    +0.000 A 
ATOM     11  C   UNL     1       0.135  10.851  18.718  0.00  0.00    +0.000 A 
ENDROOT
BRANCH   4  12
ATOM     12  C   UNL     1      -3.511  13.415  21.523  0.00  0.00    +0.000 A 
ATOM     13  C   UNL     1      -3.729  12.810  22.768  0.00  0.00    +0.000 A 
ATOM     14  C   UNL     1      -3.752  13.593  23.920  0.00  0.00    +0.000 A 
ATOM     15  F   UNL     1      -3.954  13.006  25.106  0.00  0.00    +0.000 F 
ATOM     16  C   UNL     1      -3.559  14.968  23.859  0.00  0.00    +0.000 A 
ATOM     17  C   UNL     1      -3.338  15.557  22.625  0.00  0.00    +0.000 A 
ATOM     18  F   UNL     1      -3.139  16.879  22.553  0.00  0.00    +0.000 F 
ATOM     19  C   UNL     1      -3.310  14.800  21.458  0.00  0.00    +0.000 A 
ENDBRANCH   4  12
BRANCH   5  20
ATOM     20  C   UNL     1      -5.889  12.894  19.953  0.00  0.00    +0.000 A 
ATOM     21  C   UNL     1      -6.786  12.271  20.872  0.00  0.00    +0.000 A 
ATOM     22  C   UNL     1      -7.904  13.043  21.099  0.00  0.00    +0.000 A 
ATOM     23  S   UNL     1      -7.888  14.490  20.185  0.00  0.00    +0.000 S 
ATOM     24  C   UNL     1      -6.379  14.093  19.479  0.00  0.00    +0.000 A 
ENDBRANCH   5  20
BRANCH   1  26
ATOM     25  C   UNL     1       1.837  13.037  20.714  0.00  0.00    +0.000 C 
ATOM     26  O   UNL     1       1.358  11.699  20.581  0.00  0.00    +0.000 OA
ENDBRANCH   1  26
BRANCH  11  27
ATOM     27  O   UNL     1       1.334  10.335  18.298  0.00  0.00    +0.000 OA
ATOM     28  C   UNL     1       1.563   8.945  18.499  0.00  0.00    +0.000 C 
ENDBRANCH  11  27
TORSDOF 4
ENDMDL
MODEL 7
REMARK VINA RESULT:      -5.9      0.848      1.801
REMARK  Name = 
REMARK  6 active torsions:
REMARK  status: ('A' for Active; 'I' for Inactive)
REMARK    1  A    between atoms: C_1  and  O_2
REMARK    2  A    between atoms: O_2  and  C_3
REMARK    3  A    between atoms: C_6  and  C_7
REMARK    4  A    between atoms: C_15  and  C_16
REMARK    5  A    between atoms: C_26  and  O_27
REMARK    6  A    between atoms: O_27  and  C_28
REMARK                            x       y       z     vdW  Elec       q    Type
REMARK                         _______ _______ _______ _____ _____    ______ ____
ROOT
ATOM      1  C   UNL     1       0.546  12.671  20.469  0.00  0.00    +0.000 A 
ATOM      2  C   UNL     1      -0.750  12.945  20.914  0.00  0.00    +0.000 A 
ATOM      3  C   UNL     1      -1.870  12.626  20.139  0.00  0.00    +0.000 A 
ATOM      4  C   UNL     1      -3.225  12.892  20.646  0.00  0.00    +0.000 A 
ATOM      5  C   UNL     1      -4.251  12.547  19.839  0.00  0.00    +0.000 A 
ATOM      6  O   UNL     1      -4.068  11.955  18.570  0.00  0.00    +0.000 OA
ATOM      7  C   UNL     1      -2.836  11.695  18.048  0.00  0.00    +0.000 A 
ATOM      8  O   UNL     1      -2.688  11.186  16.942  0.00  0.00    +0.000 OA
ATOM      9  C   UNL     1      -1.672  12.053  18.886  0.00  0.00    +0.000 A 
ATOM     10  C   UNL     1      -0.371  11.811  18.406  0.00  0.00    +0.000 A 
ATOM     11  C   UNL     1       0.744  12.120  19.191  0.00  0.00    +0.000 A 
ENDROOT
BRANCH   4  12
ATOM     12  C   UNL     1      -3.512  13.518  21.961  0.00  0.00    +0.000 A 
ATOM     13  C   UNL     1      -3.737  12.725  23.094  0.00  0.00    +0.000 A 
ATOM     14  C   UNL     1      -3.988  13.333  24.323  0.00  0.00    +0.000 A 
ATOM     15  F   UNL     1      -4.195  12.567  25.401  0.00  0.00    +0.000 F 
ATOM     16  C   UNL     1      -4.015  14.716  24.447  0.00  0.00    +0.000 A 
ATOM     17  C   UNL     1      -3.785  15.493  23.324  0.00  0.00    +0.000 A 
ATOM     18  F   UNL     1      -3.798  16.827  23.433  0.00  0.00    +0.000 F 
ATOM     19  C   UNL     1      -3.532  14.913  22.085  0.00  0.00    +0.000 A 
ENDBRANCH   4  12
BRANCH   5  20
ATOM     20  C   UNL     1      -5.635  12.735  20.154  0.00  0.00    +0.000 A 
ATOM     21  C   UNL     1      -6.457  11.788  20.834  0.00  0.00    +0.000 A 
ATOM     22  C   UNL     1      -7.717  12.288  21.082  0.00  0.00    +0.000 A 
ATOM     23  S   UNL     1      -7.915  13.873  20.468  0.00  0.00    +0.000 S 
ATOM     24  C   UNL     1      -6.313  13.901  19.867  0.00  0.00    +0.000 A 
ENDBRANCH   5  20
BRANCH   1  26
ATOM     25  C   UNL     1       1.849  14.333  21.532  0.00  0.00    +0.000 C 
ATOM     26  O   UNL     1       1.654  12.951  21.232  0.00  0.00    +0.000 OA
ENDBRANCH   1  26
BRANCH  11  27
ATOM     27  O   UNL     1       2.046  11.913  18.815  0.00  0.00    +0.000 OA
ATOM     28  C   UNL     1       2.673  12.917  18.026  0.00  0.00    +0.000 C 
ENDBRANCH  11  27
TORSDOF 4
ENDMDL
MODEL 8
REMARK VINA RESULT:      -5.8      2.022      3.029
REMARK  Name = 
REMARK  6 active torsions:
REMARK  status: ('A' for Active; 'I' for Inactive)
REMARK    1  A    between atoms: C_1  and  O_2
REMARK    2  A    between atoms: O_2  and  C_3
REMARK    3  A    between atoms: C_6  and  C_7
REMARK    4  A    between atoms: C_15  and  C_16
REMARK    5  A    between atoms: C_26  and  O_27
REMARK    6  A    between atoms: O_27  and  C_28
REMARK                            x       y       z     vdW  Elec       q    Type
REMARK                         _______ _______ _______ _____ _____    ______ ____
ROOT
ATOM      1  C   UNL     1      -2.644  10.855  18.116  0.00  0.00    +0.000 A 
ATOM      2  C   UNL     1      -3.112  11.683  19.141  0.00  0.00    +0.000 A 
ATOM      3  C   UNL     1      -4.343  12.339  19.045  0.00  0.00    +0.000 A 
ATOM      4  C   UNL     1      -4.828  13.175  20.153  0.00  0.00    +0.000 A 
ATOM      5  C   UNL     1      -6.030  13.767  19.983  0.00  0.00    +0.000 A 
ATOM      6  O   UNL     1      -6.809  13.607  18.816  0.00  0.00    +0.000 OA
ATOM      7  C   UNL     1      -6.404  12.851  17.756  0.00  0.00    +0.000 A 
ATOM      8  O   UNL     1      -7.086  12.725  16.744  0.00  0.00    +0.000 OA
ATOM      9  C   UNL     1      -5.093  12.180  17.883  0.00  0.00    +0.000 A 
ATOM     10  C   UNL     1      -4.617  11.384  16.825  0.00  0.00    +0.000 A 
ATOM     11  C   UNL     1      -3.391  10.721  16.933  0.00  0.00    +0.000 A 
ENDROOT
BRANCH   4  12
ATOM     12  C   UNL     1      -4.074  13.407  21.411  0.00  0.00    +0.000 A 
ATOM     13  C   UNL     1      -3.110  14.421  21.487  0.00  0.00    +0.000 A 
ATOM     14  C   UNL     1      -2.426  14.634  22.682  0.00  0.00    +0.000 A 
ATOM     15  F   UNL     1      -1.512  15.609  22.748  0.00  0.00    +0.000 F 
ATOM     16  C   UNL     1      -2.685  13.859  23.806  0.00  0.00    +0.000 A 
ATOM     17  C   UNL     1      -3.644  12.863  23.724  0.00  0.00    +0.000 A 
ATOM     18  F   UNL     1      -3.911  12.117  24.803  0.00  0.00    +0.000 F 
ATOM     19  C   UNL     1      -4.342  12.628  22.544  0.00  0.00    +0.000 A 
ENDBRANCH   4  12
BRANCH   5  20
ATOM     20  C   UNL     1      -6.661  14.621  20.943  0.00  0.00    +0.000 A 
ATOM     21  C   UNL     1      -7.532  14.182  21.984  0.00  0.00    +0.000 A 
ATOM     22  C   UNL     1      -7.907  15.219  22.810  0.00  0.00    +0.000 A 
ATOM     23  S   UNL     1      -7.242  16.715  22.311  0.00  0.00    +0.000 S 
ATOM     24  C   UNL     1      -6.444  15.983  20.985  0.00  0.00    +0.000 A 
ENDBRANCH   5  20
BRANCH   1  26
ATOM     25  C   UNL     1      -0.788  10.294  19.469  0.00  0.00    +0.000 C 
ATOM     26  O   UNL     1      -1.450  10.181  18.210  0.00  0.00    +0.000 OA
ENDBRANCH   1  26
BRANCH  11  27
ATOM     27  O   UNL     1      -2.848   9.919  15.962  0.00  0.00    +0.000 OA
ATOM     28  C   UNL     1      -3.187  10.198  14.608  0.00  0.00    +0.000 C 
ENDBRANCH  11  27
TORSDOF 4
ENDMDL
MODEL 9
REMARK VINA RESULT:      -5.8      0.951      1.033
REMARK  Name = 
REMARK  6 active torsions:
REMARK  status: ('A' for Active; 'I' for Inactive)
REMARK    1  A    between atoms: C_1  and  O_2
REMARK    2  A    between atoms: O_2  and  C_3
REMARK    3  A    between atoms: C_6  and  C_7
REMARK    4  A    between atoms: C_15  and  C_16
REMARK    5  A    between atoms: C_26  and  O_27
REMARK    6  A    between atoms: O_27  and  C_28
REMARK                            x       y       z     vdW  Elec       q    Type
REMARK                         _______ _______ _______ _____ _____    ______ ____
ROOT
ATOM      1  C   UNL     1       0.591  12.813  20.536  0.00  0.00    +0.000 A 
ATOM      2  C   UNL     1      -0.722  13.043  20.958  0.00  0.00    +0.000 A 
ATOM      3  C   UNL     1      -1.816  12.694  20.160  0.00  0.00    +0.000 A 
ATOM      4  C   UNL     1      -3.188  12.913  20.643  0.00  0.00    +0.000 A 
ATOM      5  C   UNL     1      -4.187  12.542  19.815  0.00  0.00    +0.000 A 
ATOM      6  O   UNL     1      -3.962  11.964  18.546  0.00  0.00    +0.000 OA
ATOM      7  C   UNL     1      -2.712  11.746  18.046  0.00  0.00    +0.000 A 
ATOM      8  O   UNL     1      -2.528  11.249  16.939  0.00  0.00    +0.000 OA
ATOM      9  C   UNL     1      -1.576  12.135  18.908  0.00  0.00    +0.000 A 
ATOM     10  C   UNL     1      -0.260  11.937  18.451  0.00  0.00    +0.000 A 
ATOM     11  C   UNL     1       0.830  12.277  19.259  0.00  0.00    +0.000 A 
ENDROOT
BRANCH   4  12
ATOM     12  C   UNL     1      -3.519  13.522  21.956  0.00  0.00    +0.000 A 
ATOM     13  C   UNL     1      -3.646  14.911  22.086  0.00  0.00    +0.000 A 
ATOM     14  C   UNL     1      -3.976  15.461  23.323  0.00  0.00    +0.000 A 
ATOM     15  F   UNL     1      -4.102  16.788  23.436  0.00  0.00    +0.000 F 
ATOM     16  C   UNL     1      -4.184  14.654  24.435  0.00  0.00    +0.000 A 
ATOM     17  C   UNL     1      -4.063  13.281  24.297  0.00  0.00    +0.000 A 
ATOM     18  F   UNL     1      -4.273  12.492  25.358  0.00  0.00    +0.000 F 
ATOM     19  C   UNL     1      -3.736  12.705  23.074  0.00  0.00    +0.000 A 
ENDBRANCH   4  12
BRANCH   5  20
ATOM     20  C   UNL     1      -5.582  12.684  20.104  0.00  0.00    +0.000 A 
ATOM     21  C   UNL     1      -6.380  11.719  20.789  0.00  0.00    +0.000 A 
ATOM     22  C   UNL     1      -7.661  12.176  21.008  0.00  0.00    +0.000 A 
ATOM     23  S   UNL     1      -7.908  13.741  20.361  0.00  0.00    +0.000 S 
ATOM     24  C   UNL     1      -6.298  13.819  19.785  0.00  0.00    +0.000 A 
ENDBRANCH   5  20
BRANCH   1  26
ATOM     25  C   UNL     1       1.891  14.519  21.531  0.00  0.00    +0.000 C 
ATOM     26  O   UNL     1       1.675  13.123  21.322  0.00  0.00    +0.000 OA
ENDBRANCH   1  26
BRANCH  11  27
ATOM     27  O   UNL     1       2.144  12.114  18.906  0.00  0.00    +0.000 OA
ATOM     28  C   UNL     1       2.724  13.087  18.046  0.00  0.00    +0.000 C 
ENDBRANCH  11  27
TORSDOF 4
ENDMDL
