MODEL 1
REMARK VINA RESULT:      -7.7      0.000      0.000
REMARK  Name = 
REMARK  12 active torsions:
REMARK  status: ('A' for Active; 'I' for Inactive)
REMARK    1  A    between atoms: C_1  and  O_2
REMARK    2  A    between atoms: O_2  and  C_3
REMARK    3  A    between atoms: C_5  and  C_6
REMARK    4  A    between atoms: C_6  and  C_7
REMARK    5  A    between atoms: N_8  and  N_9
REMARK    6  A    between atoms: C_10  and  C_12
REMARK    7  A    between atoms: C_12  and  S_13
REMARK    8  A    between atoms: S_13  and  C_14
REMARK    9  A    between atoms: N_18  and  C_19
REMARK   10  A    between atoms: C_22  and  O_23
REMARK   11  A    between atoms: O_23  and  C_24
REMARK   12  A    between atoms: C_24  and  C_25
REMARK                            x       y       z     vdW  Elec       q    Type
REMARK                         _______ _______ _______ _____ _____    ______ ____
ROOT
ATOM      1  C   UNL     1       0.450  10.120  21.065  0.00  0.00    +0.000 A 
ATOM      2  C   UNL     1       1.003   8.837  20.906  0.00  0.00    +0.000 A 
ATOM      3  C   UNL     1       1.521   8.446  19.674  0.00  0.00    +0.000 A 
ATOM      4  C   UNL     1       1.435   9.313  18.584  0.00  0.00    +0.000 A 
ATOM      5  C   UNL     1       0.809  10.547  18.715  0.00  0.00    +0.000 A 
ATOM      6  C   UNL     1       0.270  10.953  19.944  0.00  0.00    +0.000 A 
ENDROOT
BRANCH   3   7
ATOM      7  C   UNL     1       2.309   7.192  19.494  0.00  0.00    +0.000 C 
ATOM      8  C   UNL     1       3.111   6.989  18.230  0.00  0.00    +0.000 C 
ATOM      9  N   UNL     1       2.236   6.327  20.462  0.00  0.00    +0.000 NA
BRANCH   9  10
ATOM     10  N   UNL     1       2.834   5.123  20.359  0.00  0.00    +0.000 N 
ATOM     11  C   UNL     1       2.042   4.010  20.096  0.00  0.00    +0.000 C 
ATOM     12  O   UNL     1       0.814   4.021  20.021  0.00  0.00    +0.000 OA
ATOM     13  H   UNL     1       3.838   5.077  20.194  0.00  0.00    +0.000 HD
BRANCH  11  14
ATOM     14  C   UNL     1       2.845   2.730  19.952  0.00  0.00    +0.000 C 
BRANCH  14  15
ATOM     15  S   UNL     1       3.533   2.570  18.282  0.00  0.00    +0.000 S 
BRANCH  15  16
ATOM     16  C   UNL     1       4.893   3.626  18.388  0.00  0.00    +0.000 A 
ATOM     17  N   UNL     1       5.567   3.937  19.473  0.00  0.00    +0.000 NA
ATOM     18  N   UNL     1       6.595   4.774  19.096  0.00  0.00    +0.000 NA
ATOM     19  C   UNL     1       6.512   4.947  17.793  0.00  0.00    +0.000 A 
ATOM     20  N   UNL     1       5.448   4.247  17.308  0.00  0.00    +0.000 N 
ATOM     21  C   UNL     1       5.018   4.200  15.936  0.00  0.00    +0.000 C 
ENDBRANCH  15  16
ENDBRANCH  14  15
ENDBRANCH  11  14
ENDBRANCH   9  10
ENDBRANCH   3   7
BRANCH   1  23
ATOM     22  C   UNL     1      -0.086   9.587  23.305  0.00  0.00    +0.000 C 
ATOM     23  O   UNL     1       0.089  10.596  22.304  0.00  0.00    +0.000 OA
ENDBRANCH   1  23
BRANCH   6  24
ATOM     24  O   UNL     1      -0.413  12.146  20.093  0.00  0.00    +0.000 OA
BRANCH  24  25
ATOM     25  C   UNL     1      -1.045  12.606  18.883  0.00  0.00    +0.000 C 
BRANCH  25  26
ATOM     26  C   UNL     1      -2.408  12.020  18.593  0.00  0.00    +0.000 A 
ATOM     27  C   UNL     1      -2.613  11.112  17.549  0.00  0.00    +0.000 A 
ATOM     28  C   UNL     1      -3.886  10.592  17.299  0.00  0.00    +0.000 A 
ATOM     29  C   UNL     1      -4.970  10.968  18.092  0.00  0.00    +0.000 A 
ATOM     30  C   UNL     1      -4.783  11.863  19.141  0.00  0.00    +0.000 A 
ATOM     31  C   UNL     1      -3.513  12.384  19.393  0.00  0.00    +0.000 A 
ATOM     32 CL   UNL     1      -3.356  13.487  20.718  0.00  0.00    +0.000 Cl
ENDBRANCH  25  26
ENDBRANCH  24  25
ENDBRANCH   6  24
TORSDOF 9
ENDMDL
MODEL 2
REMARK VINA RESULT:      -7.6      5.022     10.196
REMARK  Name = 
REMARK  12 active torsions:
REMARK  status: ('A' for Active; 'I' for Inactive)
REMARK    1  A    between atoms: C_1  and  O_2
REMARK    2  A    between atoms: O_2  and  C_3
REMARK    3  A    between atoms: C_5  and  C_6
REMARK    4  A    between atoms: C_6  and  C_7
REMARK    5  A    between atoms: N_8  and  N_9
REMARK    6  A    between atoms: C_10  and  C_12
REMARK    7  A    between atoms: C_12  and  S_13
REMARK    8  A    between atoms: S_13  and  C_14
REMARK    9  A    between atoms: N_18  and  C_19
REMARK   10  A    between atoms: C_22  and  O_23
REMARK   11  A    between atoms: O_23  and  C_24
REMARK   12  A    between atoms: C_24  and  C_25
REMARK                            x       y       z     vdW  Elec       q    Type
REMARK                         _______ _______ _______ _____ _____    ______ ____
ROOT
ATOM      1  C   UNL     1       2.268   5.805  20.159  0.00  0.00    +0.000 A 
ATOM      2  C   UNL     1       1.687   7.022  20.557  0.00  0.00    +0.000 A 
ATOM      3  C   UNL     1       1.706   8.119  19.699  0.00  0.00    +0.000 A 
ATOM      4  C   UNL     1       2.355   8.020  18.468  0.00  0.00    +0.000 A 
ATOM      5  C   UNL     1       3.008   6.847  18.110  0.00  0.00    +0.000 A 
ATOM      6  C   UNL     1       3.011   5.736  18.965  0.00  0.00    +0.000 A 
ENDROOT
BRANCH   3   7
ATOM      7  C   UNL     1       0.926   9.363  19.967  0.00  0.00    +0.000 C 
ATOM      8  C   UNL     1       1.138  10.579  19.096  0.00  0.00    +0.000 C 
ATOM      9  N   UNL     1       0.105   9.318  20.974  0.00  0.00    +0.000 NA
BRANCH   9  10
ATOM     10  N   UNL     1      -0.577  10.415  21.360  0.00  0.00    +0.000 N 
ATOM     11  C   UNL     1      -0.570  10.760  22.707  0.00  0.00    +0.000 C 
ATOM     12  O   UNL     1      -0.047  10.097  23.602  0.00  0.00    +0.000 OA
ATOM     13  H   UNL     1      -0.837  11.111  20.662  0.00  0.00    +0.000 HD
BRANCH  11  14
ATOM     14  C   UNL     1      -1.330  12.042  22.995  0.00  0.00    +0.000 C 
BRANCH  14  15
ATOM     15  S   UNL     1      -2.316  12.558  21.563  0.00  0.00    +0.000 S 
BRANCH  15  16
ATOM     16  C   UNL     1      -3.764  13.083  22.339  0.00  0.00    +0.000 A 
ATOM     17  N   UNL     1      -4.819  12.350  22.620  0.00  0.00    +0.000 NA
ATOM     18  N   UNL     1      -5.723  13.159  23.274  0.00  0.00    +0.000 NA
ATOM     19  C   UNL     1      -5.190  14.359  23.368  0.00  0.00    +0.000 A 
ATOM     20  N   UNL     1      -3.958  14.358  22.784  0.00  0.00    +0.000 N 
ATOM     21  C   UNL     1      -3.073  15.486  22.667  0.00  0.00    +0.000 C 
ENDBRANCH  15  16
ENDBRANCH  14  15
ENDBRANCH  11  14
ENDBRANCH   9  10
ENDBRANCH   3   7
BRANCH   1  23
ATOM     22  C   UNL     1       1.005   3.841  20.531  0.00  0.00    +0.000 C 
ATOM     23  O   UNL     1       2.117   4.662  20.908  0.00  0.00    +0.000 OA
ENDBRANCH   1  23
BRANCH   6  24
ATOM     24  O   UNL     1       3.702   4.576  18.667  0.00  0.00    +0.000 OA
BRANCH  24  25
ATOM     25  C   UNL     1       5.129   4.757  18.586  0.00  0.00    +0.000 C 
BRANCH  25  26
ATOM     26  C   UNL     1       5.715   4.717  17.194  0.00  0.00    +0.000 A 
ATOM     27  C   UNL     1       5.151   3.938  16.179  0.00  0.00    +0.000 A 
ATOM     28  C   UNL     1       5.719   3.914  14.901  0.00  0.00    +0.000 A 
ATOM     29  C   UNL     1       6.856   4.671  14.620  0.00  0.00    +0.000 A 
ATOM     30  C   UNL     1       7.427   5.458  15.615  0.00  0.00    +0.000 A 
ATOM     31  C   UNL     1       6.861   5.486  16.892  0.00  0.00    +0.000 A 
ATOM     32 CL   UNL     1       7.622   6.493  18.077  0.00  0.00    +0.000 Cl
ENDBRANCH  25  26
ENDBRANCH  24  25
ENDBRANCH   6  24
TORSDOF 9
ENDMDL
MODEL 3
REMARK VINA RESULT:      -7.4      1.468      1.742
REMARK  Name = 
REMARK  12 active torsions:
REMARK  status: ('A' for Active; 'I' for Inactive)
REMARK    1  A    between atoms: C_1  and  O_2
REMARK    2  A    between atoms: O_2  and  C_3
REMARK    3  A    between atoms: C_5  and  C_6
REMARK    4  A    between atoms: C_6  and  C_7
REMARK    5  A    between atoms: N_8  and  N_9
REMARK    6  A    between atoms: C_10  and  C_12
REMARK    7  A    between atoms: C_12  and  S_13
REMARK    8  A    between atoms: S_13  and  C_14
REMARK    9  A    between atoms: N_18  and  C_19
REMARK   10  A    between atoms: C_22  and  O_23
REMARK   11  A    between atoms: O_23  and  C_24
REMARK   12  A    between atoms: C_24  and  C_25
REMARK                            x       y       z     vdW  Elec       q    Type
REMARK                         _______ _______ _______ _____ _____    ______ ____
ROOT
ATOM      1  C   UNL     1       0.335   9.933  20.690  0.00  0.00    +0.000 A 
ATOM      2  C   UNL     1       1.016   8.745  20.375  0.00  0.00    +0.000 A 
ATOM      3  C   UNL     1       1.550   8.561  19.102  0.00  0.00    +0.000 A 
ATOM      4  C   UNL     1       1.355   9.538  18.125  0.00  0.00    +0.000 A 
ATOM      5  C   UNL     1       0.605  10.674  18.406  0.00  0.00    +0.000 A 
ATOM      6  C   UNL     1       0.049  10.871  19.678  0.00  0.00    +0.000 A 
ENDROOT
BRANCH   3   7
ATOM      7  C   UNL     1       2.463   7.428  18.768  0.00  0.00    +0.000 C 
ATOM      8  C   UNL     1       3.549   7.624  17.737  0.00  0.00    +0.000 C 
ATOM      9  N   UNL     1       2.242   6.311  19.397  0.00  0.00    +0.000 NA
BRANCH   9  10
ATOM     10  N   UNL     1       2.947   5.201  19.101  0.00  0.00    +0.000 N 
ATOM     11  C   UNL     1       2.437   4.325  18.149  0.00  0.00    +0.000 C 
ATOM     12  O   UNL     1       1.343   4.443  17.598  0.00  0.00    +0.000 OA
ATOM     13  H   UNL     1       3.934   5.157  19.349  0.00  0.00    +0.000 HD
BRANCH  11  14
ATOM     14  C   UNL     1       3.353   3.147  17.874  0.00  0.00    +0.000 C 
BRANCH  14  15
ATOM     15  S   UNL     1       4.732   3.624  16.797  0.00  0.00    +0.000 S 
BRANCH  15  16
ATOM     16  C   UNL     1       5.751   4.447  17.918  0.00  0.00    +0.000 A 
ATOM     17  N   UNL     1       5.778   4.290  19.223  0.00  0.00    +0.000 NA
ATOM     18  N   UNL     1       6.766   5.112  19.720  0.00  0.00    +0.000 NA
ATOM     19  C   UNL     1       7.308   5.745  18.700  0.00  0.00    +0.000 A 
ATOM     20  N   UNL     1       6.693   5.362  17.546  0.00  0.00    +0.000 N 
ATOM     21  C   UNL     1       6.990   5.846  16.225  0.00  0.00    +0.000 C 
ENDBRANCH  15  16
ENDBRANCH  14  15
ENDBRANCH  11  14
ENDBRANCH   9  10
ENDBRANCH   3   7
BRANCH   1  23
ATOM     22  C   UNL     1       0.460   9.319  22.969  0.00  0.00    +0.000 C 
ATOM     23  O   UNL     1      -0.053  10.216  21.978  0.00  0.00    +0.000 OA
ENDBRANCH   1  23
BRANCH   6  24
ATOM     24  O   UNL     1      -0.753  11.957  19.973  0.00  0.00    +0.000 OA
BRANCH  24  25
ATOM     25  C   UNL     1      -1.504  12.446  18.844  0.00  0.00    +0.000 C 
BRANCH  25  26
ATOM     26  C   UNL     1      -2.968  12.069  18.821  0.00  0.00    +0.000 A 
ATOM     27  C   UNL     1      -3.861  12.522  19.796  0.00  0.00    +0.000 A 
ATOM     28  C   UNL     1      -5.209  12.152  19.753  0.00  0.00    +0.000 A 
ATOM     29  C   UNL     1      -5.682  11.328  18.733  0.00  0.00    +0.000 A 
ATOM     30  C   UNL     1      -4.809  10.874  17.748  0.00  0.00    +0.000 A 
ATOM     31  C   UNL     1      -3.463  11.243  17.788  0.00  0.00    +0.000 A 
ATOM     32 CL   UNL     1      -2.438  10.646  16.526  0.00  0.00    +0.000 Cl
ENDBRANCH  25  26
ENDBRANCH  24  25
ENDBRANCH   6  24
TORSDOF 9
ENDMDL
MODEL 4
REMARK VINA RESULT:      -7.4      4.682      9.948
REMARK  Name = 
REMARK  12 active torsions:
REMARK  status: ('A' for Active; 'I' for Inactive)
REMARK    1  A    between atoms: C_1  and  O_2
REMARK    2  A    between atoms: O_2  and  C_3
REMARK    3  A    between atoms: C_5  and  C_6
REMARK    4  A    between atoms: C_6  and  C_7
REMARK    5  A    between atoms: N_8  and  N_9
REMARK    6  A    between atoms: C_10  and  C_12
REMARK    7  A    between atoms: C_12  and  S_13
REMARK    8  A    between atoms: S_13  and  C_14
REMARK    9  A    between atoms: N_18  and  C_19
REMARK   10  A    between atoms: C_22  and  O_23
REMARK   11  A    between atoms: O_23  and  C_24
REMARK   12  A    between atoms: C_24  and  C_25
REMARK                            x       y       z     vdW  Elec       q    Type
REMARK                         _______ _______ _______ _____ _____    ______ ____
ROOT
ATOM      1  C   UNL     1       2.116   5.047  20.004  0.00  0.00    +0.000 A 
ATOM      2  C   UNL     1       1.820   6.237  20.692  0.00  0.00    +0.000 A 
ATOM      3  C   UNL     1       1.884   7.461  20.032  0.00  0.00    +0.000 A 
ATOM      4  C   UNL     1       2.300   7.506  18.701  0.00  0.00    +0.000 A 
ATOM      5  C   UNL     1       2.680   6.341  18.044  0.00  0.00    +0.000 A 
ATOM      6  C   UNL     1       2.634   5.100  18.695  0.00  0.00    +0.000 A 
ENDROOT
BRANCH   3   7
ATOM      7  C   UNL     1       1.379   8.729  20.637  0.00  0.00    +0.000 C 
ATOM      8  C   UNL     1       1.357   8.882  22.140  0.00  0.00    +0.000 C 
ATOM      9  N   UNL     1       0.965   9.635  19.802  0.00  0.00    +0.000 NA
BRANCH   9  10
ATOM     10  N   UNL     1       0.402  10.777  20.246  0.00  0.00    +0.000 N 
ATOM     11  C   UNL     1      -0.872  11.108  19.796  0.00  0.00    +0.000 C 
ATOM     12  O   UNL     1      -1.509  10.472  18.957  0.00  0.00    +0.000 OA
ATOM     13  H   UNL     1       0.771  11.221  21.086  0.00  0.00    +0.000 HD
BRANCH  11  14
ATOM     14  C   UNL     1      -1.406  12.387  20.413  0.00  0.00    +0.000 C 
BRANCH  14  15
ATOM     15  S   UNL     1      -0.813  12.594  22.114  0.00  0.00    +0.000 S 
BRANCH  15  16
ATOM     16  C   UNL     1      -2.307  12.662  22.973  0.00  0.00    +0.000 A 
ATOM     17  N   UNL     1      -2.944  11.656  23.529  0.00  0.00    +0.000 NA
ATOM     18  N   UNL     1      -4.069  12.165  24.142  0.00  0.00    +0.000 NA
ATOM     19  C   UNL     1      -4.081  13.465  23.937  0.00  0.00    +0.000 A 
ATOM     20  N   UNL     1      -2.993  13.821  23.197  0.00  0.00    +0.000 N 
ATOM     21  C   UNL     1      -2.666  15.149  22.752  0.00  0.00    +0.000 C 
ENDBRANCH  15  16
ENDBRANCH  14  15
ENDBRANCH  11  14
ENDBRANCH   9  10
ENDBRANCH   3   7
BRANCH   1  23
ATOM     22  C   UNL     1       0.659   3.196  20.210  0.00  0.00    +0.000 C 
ATOM     23  O   UNL     1       1.897   3.816  20.575  0.00  0.00    +0.000 OA
ENDBRANCH   1  23
BRANCH   6  24
ATOM     24  O   UNL     1       3.062   3.933  18.092  0.00  0.00    +0.000 OA
BRANCH  24  25
ATOM     25  C   UNL     1       4.466   3.666  18.280  0.00  0.00    +0.000 C 
BRANCH  25  26
ATOM     26  C   UNL     1       5.378   4.145  17.174  0.00  0.00    +0.000 A 
ATOM     27  C   UNL     1       5.230   3.707  15.855  0.00  0.00    +0.000 A 
ATOM     28  C   UNL     1       6.092   4.162  14.853  0.00  0.00    +0.000 A 
ATOM     29  C   UNL     1       7.112   5.064  15.156  0.00  0.00    +0.000 A 
ATOM     30  C   UNL     1       7.268   5.518  16.461  0.00  0.00    +0.000 A 
ATOM     31  C   UNL     1       6.408   5.067  17.464  0.00  0.00    +0.000 A 
ATOM     32 CL   UNL     1       6.660   5.680  19.064  0.00  0.00    +0.000 Cl
ENDBRANCH  25  26
ENDBRANCH  24  25
ENDBRANCH   6  24
TORSDOF 9
ENDMDL
MODEL 5
REMARK VINA RESULT:      -7.3      2.324      3.237
REMARK  Name = 
REMARK  12 active torsions:
REMARK  status: ('A' for Active; 'I' for Inactive)
REMARK    1  A    between atoms: C_1  and  O_2
REMARK    2  A    between atoms: O_2  and  C_3
REMARK    3  A    between atoms: C_5  and  C_6
REMARK    4  A    between atoms: C_6  and  C_7
REMARK    5  A    between atoms: N_8  and  N_9
REMARK    6  A    between atoms: C_10  and  C_12
REMARK    7  A    between atoms: C_12  and  S_13
REMARK    8  A    between atoms: S_13  and  C_14
REMARK    9  A    between atoms: N_18  and  C_19
REMARK   10  A    between atoms: C_22  and  O_23
REMARK   11  A    between atoms: O_23  and  C_24
REMARK   12  A    between atoms: C_24  and  C_25
REMARK                            x       y       z     vdW  Elec       q    Type
REMARK                         _______ _______ _______ _____ _____    ______ ____
ROOT
ATOM      1  C   UNL     1       0.194  10.604  21.150  0.00  0.00    +0.000 A 
ATOM      2  C   UNL     1       0.804   9.390  20.788  0.00  0.00    +0.000 A 
ATOM      3  C   UNL     1       1.313   9.219  19.503  0.00  0.00    +0.000 A 
ATOM      4  C   UNL     1       1.160  10.236  18.560  0.00  0.00    +0.000 A 
ATOM      5  C   UNL     1       0.478  11.402  18.888  0.00  0.00    +0.000 A 
ATOM      6  C   UNL     1      -0.051  11.588  20.173  0.00  0.00    +0.000 A 
ENDROOT
BRANCH   3   7
ATOM      7  C   UNL     1       2.157   8.048  19.121  0.00  0.00    +0.000 C 
ATOM      8  C   UNL     1       2.737   7.970  17.729  0.00  0.00    +0.000 C 
ATOM      9  N   UNL     1       2.326   7.142  20.038  0.00  0.00    +0.000 NA
BRANCH   9  10
ATOM     10  N   UNL     1       2.991   6.001  19.767  0.00  0.00    +0.000 N 
ATOM     11  C   UNL     1       2.321   4.791  19.912  0.00  0.00    +0.000 C 
ATOM     12  O   UNL     1       1.175   4.669  20.344  0.00  0.00    +0.000 OA
ATOM     13  H   UNL     1       3.843   6.042  19.209  0.00  0.00    +0.000 HD
BRANCH  11  14
ATOM     14  C   UNL     1       3.167   3.593  19.524  0.00  0.00    +0.000 C 
BRANCH  14  15
ATOM     15  S   UNL     1       3.733   3.716  17.806  0.00  0.00    +0.000 S 
BRANCH  15  16
ATOM     16  C   UNL     1       5.369   4.212  18.037  0.00  0.00    +0.000 A 
ATOM     17  N   UNL     1       5.943   4.530  19.176  0.00  0.00    +0.000 NA
ATOM     18  N   UNL     1       7.263   4.823  18.907  0.00  0.00    +0.000 NA
ATOM     19  C   UNL     1       7.449   4.675  17.612  0.00  0.00    +0.000 A 
ATOM     20  N   UNL     1       6.278   4.298  17.024  0.00  0.00    +0.000 N 
ATOM     21  C   UNL     1       6.073   4.058  15.621  0.00  0.00    +0.000 C 
ENDBRANCH  15  16
ENDBRANCH  14  15
ENDBRANCH  11  14
ENDBRANCH   9  10
ENDBRANCH   3   7
BRANCH   1  23
ATOM     22  C   UNL     1      -0.248   9.710  23.294  0.00  0.00    +0.000 C 
ATOM     23  O   UNL     1      -0.162  10.866  22.452  0.00  0.00    +0.000 OA
ENDBRANCH   1  23
BRANCH   6  24
ATOM     24  O   UNL     1      -0.788  12.707  20.513  0.00  0.00    +0.000 OA
BRANCH  24  25
ATOM     25  C   UNL     1       0.016  13.805  20.989  0.00  0.00    +0.000 C 
BRANCH  25  26
ATOM     26  C   UNL     1       0.207  14.946  20.016  0.00  0.00    +0.000 A 
ATOM     27  C   UNL     1      -0.828  15.834  19.709  0.00  0.00    +0.000 A 
ATOM     28  C   UNL     1      -0.625  16.876  18.799  0.00  0.00    +0.000 A 
ATOM     29  C   UNL     1       0.616  17.046  18.187  0.00  0.00    +0.000 A 
ATOM     30  C   UNL     1       1.660  16.177  18.487  0.00  0.00    +0.000 A 
ATOM     31  C   UNL     1       1.461  15.136  19.396  0.00  0.00    +0.000 A 
ATOM     32 CL   UNL     1       2.808  14.099  19.724  0.00  0.00    +0.000 Cl
ENDBRANCH  25  26
ENDBRANCH  24  25
ENDBRANCH   6  24
TORSDOF 9
ENDMDL
MODEL 6
REMARK VINA RESULT:      -7.2      4.861      9.823
REMARK  Name = 
REMARK  12 active torsions:
REMARK  status: ('A' for Active; 'I' for Inactive)
REMARK    1  A    between atoms: C_1  and  O_2
REMARK    2  A    between atoms: O_2  and  C_3
REMARK    3  A    between atoms: C_5  and  C_6
REMARK    4  A    between atoms: C_6  and  C_7
REMARK    5  A    between atoms: N_8  and  N_9
REMARK    6  A    between atoms: C_10  and  C_12
REMARK    7  A    between atoms: C_12  and  S_13
REMARK    8  A    between atoms: S_13  and  C_14
REMARK    9  A    between atoms: N_18  and  C_19
REMARK   10  A    between atoms: C_22  and  O_23
REMARK   11  A    between atoms: O_23  and  C_24
REMARK   12  A    between atoms: C_24  and  C_25
REMARK                            x       y       z     vdW  Elec       q    Type
REMARK                         _______ _______ _______ _____ _____    ______ ____
ROOT
ATOM      1  C   UNL     1       2.212   6.311  19.980  0.00  0.00    +0.000 A 
ATOM      2  C   UNL     1       1.679   7.549  20.379  0.00  0.00    +0.000 A 
ATOM      3  C   UNL     1       1.549   8.585  19.457  0.00  0.00    +0.000 A 
ATOM      4  C   UNL     1       2.006   8.406  18.151  0.00  0.00    +0.000 A 
ATOM      5  C   UNL     1       2.616   7.215  17.776  0.00  0.00    +0.000 A 
ATOM      6  C   UNL     1       2.767   6.165  18.694  0.00  0.00    +0.000 A 
ENDROOT
BRANCH   3   7
ATOM      7  C   UNL     1       0.799   9.840  19.757  0.00  0.00    +0.000 C 
ATOM      8  C   UNL     1       0.907  11.017  18.817  0.00  0.00    +0.000 C 
ATOM      9  N   UNL     1       0.096   9.838  20.851  0.00  0.00    +0.000 NA
BRANCH   9  10
ATOM     10  N   UNL     1      -0.543  10.951  21.263  0.00  0.00    +0.000 N 
ATOM     11  C   UNL     1      -0.658  11.183  22.630  0.00  0.00    +0.000 C 
ATOM     12  O   UNL     1      -0.285  10.407  23.509  0.00  0.00    +0.000 OA
ATOM     13  H   UNL     1      -0.676  11.721  20.608  0.00  0.00    +0.000 HD
BRANCH  11  14
ATOM     14  C   UNL     1      -1.351  12.493  22.954  0.00  0.00    +0.000 C 
BRANCH  14  15
ATOM     15  S   UNL     1      -1.761  13.411  21.445  0.00  0.00    +0.000 S 
BRANCH  15  16
ATOM     16  C   UNL     1      -3.419  12.980  21.243  0.00  0.00    +0.000 A 
ATOM     17  N   UNL     1      -4.395  13.178  22.101  0.00  0.00    +0.000 NA
ATOM     18  N   UNL     1      -5.557  12.719  21.519  0.00  0.00    +0.000 NA
ATOM     19  C   UNL     1      -5.250  12.256  20.326  0.00  0.00    +0.000 A 
ATOM     20  N   UNL     1      -3.911  12.393  20.114  0.00  0.00    +0.000 N 
ATOM     21  C   UNL     1      -3.192  11.985  18.937  0.00  0.00    +0.000 C 
ENDBRANCH  15  16
ENDBRANCH  14  15
ENDBRANCH  11  14
ENDBRANCH   9  10
ENDBRANCH   3   7
BRANCH   1  23
ATOM     22  C   UNL     1       1.175   4.258  20.526  0.00  0.00    +0.000 C 
ATOM     23  O   UNL     1       2.195   5.221  20.817  0.00  0.00    +0.000 OA
ENDBRANCH   1  23
BRANCH   6  24
ATOM     24  O   UNL     1       3.423   4.992  18.372  0.00  0.00    +0.000 OA
BRANCH  24  25
ATOM     25  C   UNL     1       4.859   5.108  18.391  0.00  0.00    +0.000 C 
BRANCH  25  26
ATOM     26  C   UNL     1       5.551   4.892  17.064  0.00  0.00    +0.000 A 
ATOM     27  C   UNL     1       4.837   4.582  15.903  0.00  0.00    +0.000 A 
ATOM     28  C   UNL     1       5.503   4.379  14.690  0.00  0.00    +0.000 A 
ATOM     29  C   UNL     1       6.891   4.488  14.621  0.00  0.00    +0.000 A 
ATOM     30  C   UNL     1       7.618   4.805  15.765  0.00  0.00    +0.000 A 
ATOM     31  C   UNL     1       6.955   5.009  16.977  0.00  0.00    +0.000 A 
ATOM     32 CL   UNL     1       7.925   5.405  18.356  0.00  0.00    +0.000 Cl
ENDBRANCH  25  26
ENDBRANCH  24  25
ENDBRANCH   6  24
TORSDOF 9
ENDMDL
MODEL 7
REMARK VINA RESULT:      -7.2      4.253      9.443
REMARK  Name = 
REMARK  12 active torsions:
REMARK  status: ('A' for Active; 'I' for Inactive)
REMARK    1  A    between atoms: C_1  and  O_2
REMARK    2  A    between atoms: O_2  and  C_3
REMARK    3  A    between atoms: C_5  and  C_6
REMARK    4  A    between atoms: C_6  and  C_7
REMARK    5  A    between atoms: N_8  and  N_9
REMARK    6  A    between atoms: C_10  and  C_12
REMARK    7  A    between atoms: C_12  and  S_13
REMARK    8  A    between atoms: S_13  and  C_14
REMARK    9  A    between atoms: N_18  and  C_19
REMARK   10  A    between atoms: C_22  and  O_23
REMARK   11  A    between atoms: O_23  and  C_24
REMARK   12  A    between atoms: C_24  and  C_25
REMARK                            x       y       z     vdW  Elec       q    Type
REMARK                         _______ _______ _______ _____ _____    ______ ____
ROOT
ATOM      1  C   UNL     1       2.699   4.830  19.796  0.00  0.00    +0.000 A 
ATOM      2  C   UNL     1       2.211   5.990  20.423  0.00  0.00    +0.000 A 
ATOM      3  C   UNL     1       2.103   7.180  19.708  0.00  0.00    +0.000 A 
ATOM      4  C   UNL     1       2.536   7.229  18.383  0.00  0.00    +0.000 A 
ATOM      5  C   UNL     1       3.103   6.109  17.786  0.00  0.00    +0.000 A 
ATOM      6  C   UNL     1       3.231   4.905  18.494  0.00  0.00    +0.000 A 
ENDROOT
BRANCH   3   7
ATOM      7  C   UNL     1       1.398   8.381  20.246  0.00  0.00    +0.000 C 
ATOM      8  C   UNL     1       1.122   8.483  21.727  0.00  0.00    +0.000 C 
ATOM      9  N   UNL     1       1.045   9.276  19.371  0.00  0.00    +0.000 NA
BRANCH   9  10
ATOM     10  N   UNL     1       0.321  10.352  19.738  0.00  0.00    +0.000 N 
ATOM     11  C   UNL     1       0.671  11.595  19.221  0.00  0.00    +0.000 C 
ATOM     12  O   UNL     1       1.648  11.810  18.504  0.00  0.00    +0.000 OA
ATOM     13  H   UNL     1      -0.606  10.216  20.138  0.00  0.00    +0.000 HD
BRANCH  11  14
ATOM     14  C   UNL     1      -0.256  12.709  19.672  0.00  0.00    +0.000 C 
BRANCH  14  15
ATOM     15  S   UNL     1      -1.872  12.056  20.172  0.00  0.00    +0.000 S 
BRANCH  15  16
ATOM     16  C   UNL     1      -2.590  11.751  18.634  0.00  0.00    +0.000 A 
ATOM     17  N   UNL     1      -1.969  11.401  17.529  0.00  0.00    +0.000 NA
ATOM     18  N   UNL     1      -2.927  11.222  16.555  0.00  0.00    +0.000 NA
ATOM     19  C   UNL     1      -4.100  11.471  17.098  0.00  0.00    +0.000 A 
ATOM     20  N   UNL     1      -3.934  11.816  18.406  0.00  0.00    +0.000 N 
ATOM     21  C   UNL     1      -4.976  12.179  19.327  0.00  0.00    +0.000 C 
ENDBRANCH  15  16
ENDBRANCH  14  15
ENDBRANCH  11  14
ENDBRANCH   9  10
ENDBRANCH   3   7
BRANCH   1  23
ATOM     22  C   UNL     1       2.032   3.613  21.709  0.00  0.00    +0.000 C 
ATOM     23  O   UNL     1       2.658   3.607  20.421  0.00  0.00    +0.000 OA
ENDBRANCH   1  23
BRANCH   6  24
ATOM     24  O   UNL     1       3.845   3.791  17.952  0.00  0.00    +0.000 OA
BRANCH  24  25
ATOM     25  C   UNL     1       4.894   4.107  17.015  0.00  0.00    +0.000 C 
BRANCH  25  26
ATOM     26  C   UNL     1       5.961   5.050  17.522  0.00  0.00    +0.000 A 
ATOM     27  C   UNL     1       6.663   4.802  18.705  0.00  0.00    +0.000 A 
ATOM     28  C   UNL     1       7.640   5.695  19.154  0.00  0.00    +0.000 A 
ATOM     29  C   UNL     1       7.932   6.847  18.424  0.00  0.00    +0.000 A 
ATOM     30  C   UNL     1       7.250   7.107  17.240  0.00  0.00    +0.000 A 
ATOM     31  C   UNL     1       6.274   6.216  16.788  0.00  0.00    +0.000 A 
ATOM     32 CL   UNL     1       5.471   6.602  15.303  0.00  0.00    +0.000 Cl
ENDBRANCH  25  26
ENDBRANCH  24  25
ENDBRANCH   6  24
TORSDOF 9
ENDMDL
MODEL 8
REMARK VINA RESULT:      -7.2      4.562      9.843
REMARK  Name = 
REMARK  12 active torsions:
REMARK  status: ('A' for Active; 'I' for Inactive)
REMARK    1  A    between atoms: C_1  and  O_2
REMARK    2  A    between atoms: O_2  and  C_3
REMARK    3  A    between atoms: C_5  and  C_6
REMARK    4  A    between atoms: C_6  and  C_7
REMARK    5  A    between atoms: N_8  and  N_9
REMARK    6  A    between atoms: C_10  and  C_12
REMARK    7  A    between atoms: C_12  and  S_13
REMARK    8  A    between atoms: S_13  and  C_14
REMARK    9  A    between atoms: N_18  and  C_19
REMARK   10  A    between atoms: C_22  and  O_23
REMARK   11  A    between atoms: O_23  and  C_24
REMARK   12  A    between atoms: C_24  and  C_25
REMARK                            x       y       z     vdW  Elec       q    Type
REMARK                         _______ _______ _______ _____ _____    ______ ____
ROOT
ATOM      1  C   UNL     1       2.461   5.813  19.916  0.00  0.00    +0.000 A 
ATOM      2  C   UNL     1       1.906   7.102  20.008  0.00  0.00    +0.000 A 
ATOM      3  C   UNL     1       2.132   8.034  18.999  0.00  0.00    +0.000 A 
ATOM      4  C   UNL     1       2.958   7.701  17.925  0.00  0.00    +0.000 A 
ATOM      5  C   UNL     1       3.580   6.459  17.875  0.00  0.00    +0.000 A 
ATOM      6  C   UNL     1       3.375   5.512  18.888  0.00  0.00    +0.000 A 
ENDROOT
BRANCH   3   7
ATOM      7  C   UNL     1       1.404   9.336  18.928  0.00  0.00    +0.000 C 
ATOM      8  C   UNL     1       1.787  10.348  17.875  0.00  0.00    +0.000 C 
ATOM      9  N   UNL     1       0.472   9.518  19.816  0.00  0.00    +0.000 NA
BRANCH   9  10
ATOM     10  N   UNL     1      -0.181  10.694  19.900  0.00  0.00    +0.000 N 
ATOM     11  C   UNL     1       0.241  11.622  20.846  0.00  0.00    +0.000 C 
ATOM     12  O   UNL     1       1.129  11.427  21.676  0.00  0.00    +0.000 OA
ATOM     13  H   UNL     1      -0.761  10.999  19.119  0.00  0.00    +0.000 HD
BRANCH  11  14
ATOM     14  C   UNL     1      -0.543  12.920  20.798  0.00  0.00    +0.000 C 
BRANCH  14  15
ATOM     15  S   UNL     1      -2.083  12.792  21.747  0.00  0.00    +0.000 S 
BRANCH  15  16
ATOM     16  C   UNL     1      -3.216  12.470  20.488  0.00  0.00    +0.000 A 
ATOM     17  N   UNL     1      -2.947  12.032  19.278  0.00  0.00    +0.000 NA
ATOM     18  N   UNL     1      -4.147  11.876  18.617  0.00  0.00    +0.000 NA
ATOM     19  C   UNL     1      -5.107  12.226  19.447  0.00  0.00    +0.000 A 
ATOM     20  N   UNL     1      -4.565  12.616  20.635  0.00  0.00    +0.000 N 
ATOM     21  C   UNL     1      -5.289  13.087  21.785  0.00  0.00    +0.000 C 
ENDBRANCH  15  16
ENDBRANCH  14  15
ENDBRANCH  11  14
ENDBRANCH   9  10
ENDBRANCH   3   7
BRANCH   1  23
ATOM     22  C   UNL     1       0.941   4.084  20.458  0.00  0.00    +0.000 C 
ATOM     23  O   UNL     1       2.119   4.822  20.805  0.00  0.00    +0.000 OA
ENDBRANCH   1  23
BRANCH   6  24
ATOM     24  O   UNL     1       4.026   4.292  18.902  0.00  0.00    +0.000 OA
BRANCH  24  25
ATOM     25  C   UNL     1       5.452   4.395  18.718  0.00  0.00    +0.000 C 
BRANCH  25  26
ATOM     26  C   UNL     1       5.923   4.465  17.284  0.00  0.00    +0.000 A 
ATOM     27  C   UNL     1       5.391   3.635  16.292  0.00  0.00    +0.000 A 
ATOM     28  C   UNL     1       5.851   3.716  14.974  0.00  0.00    +0.000 A 
ATOM     29  C   UNL     1       6.846   4.630  14.629  0.00  0.00    +0.000 A 
ATOM     30  C   UNL     1       7.381   5.470  15.601  0.00  0.00    +0.000 A 
ATOM     31  C   UNL     1       6.923   5.393  16.918  0.00  0.00    +0.000 A 
ATOM     32 CL   UNL     1       7.631   6.473  18.070  0.00  0.00    +0.000 Cl
ENDBRANCH  25  26
ENDBRANCH  24  25
ENDBRANCH   6  24
TORSDOF 9
ENDMDL
MODEL 9
REMARK VINA RESULT:      -7.2      4.779      9.922
REMARK  Name = 
REMARK  12 active torsions:
REMARK  status: ('A' for Active; 'I' for Inactive)
REMARK    1  A    between atoms: C_1  and  O_2
REMARK    2  A    between atoms: O_2  and  C_3
REMARK    3  A    between atoms: C_5  and  C_6
REMARK    4  A    between atoms: C_6  and  C_7
REMARK    5  A    between atoms: N_8  and  N_9
REMARK    6  A    between atoms: C_10  and  C_12
REMARK    7  A    between atoms: C_12  and  S_13
REMARK    8  A    between atoms: S_13  and  C_14
REMARK    9  A    between atoms: N_18  and  C_19
REMARK   10  A    between atoms: C_22  and  O_23
REMARK   11  A    between atoms: O_23  and  C_24
REMARK   12  A    between atoms: C_24  and  C_25
REMARK                            x       y       z     vdW  Elec       q    Type
REMARK                         _______ _______ _______ _____ _____    ______ ____
ROOT
ATOM      1  C   UNL     1       2.268   5.231  20.232  0.00  0.00    +0.000 A 
ATOM      2  C   UNL     1       1.796   6.442  20.769  0.00  0.00    +0.000 A 
ATOM      3  C   UNL     1       1.840   7.609  20.011  0.00  0.00    +0.000 A 
ATOM      4  C   UNL     1       2.408   7.581  18.736  0.00  0.00    +0.000 A 
ATOM      5  C   UNL     1       2.957   6.406  18.236  0.00  0.00    +0.000 A 
ATOM      6  C   UNL     1       2.934   5.224  18.991  0.00  0.00    +0.000 A 
ENDROOT
BRANCH   3   7
ATOM      7  C   UNL     1       1.165   8.870  20.435  0.00  0.00    +0.000 C 
ATOM      8  C   UNL     1       0.946   9.141  21.905  0.00  0.00    +0.000 C 
ATOM      9  N   UNL     1       0.785   9.666  19.479  0.00  0.00    +0.000 NA
BRANCH   9  10
ATOM     10  N   UNL     1       0.083  10.784  19.748  0.00  0.00    +0.000 N 
ATOM     11  C   UNL     1       0.605  12.009  19.343  0.00  0.00    +0.000 C 
ATOM     12  O   UNL     1       1.705  12.165  18.817  0.00  0.00    +0.000 OA
ATOM     13  H   UNL     1      -0.907  10.708  19.975  0.00  0.00    +0.000 HD
BRANCH  11  14
ATOM     14  C   UNL     1      -0.309  13.177  19.661  0.00  0.00    +0.000 C 
BRANCH  14  15
ATOM     15  S   UNL     1      -1.799  12.628  20.536  0.00  0.00    +0.000 S 
BRANCH  15  16
ATOM     16  C   UNL     1      -1.586  13.405  22.061  0.00  0.00    +0.000 A 
ATOM     17  N   UNL     1      -0.514  14.041  22.479  0.00  0.00    +0.000 NA
ATOM     18  N   UNL     1      -0.791  14.541  23.734  0.00  0.00    +0.000 NA
ATOM     19  C   UNL     1      -2.023  14.191  24.039  0.00  0.00    +0.000 A 
ATOM     20  N   UNL     1      -2.559  13.466  23.016  0.00  0.00    +0.000 N 
ATOM     21  C   UNL     1      -3.876  12.891  22.982  0.00  0.00    +0.000 C 
ENDBRANCH  15  16
ENDBRANCH  14  15
ENDBRANCH  11  14
ENDBRANCH   9  10
ENDBRANCH   3   7
BRANCH   1  23
ATOM     22  C   UNL     1       0.925   3.300  20.474  0.00  0.00    +0.000 C 
ATOM     23  O   UNL     1       2.083   4.037  20.886  0.00  0.00    +0.000 OA
ENDBRANCH   1  23
BRANCH   6  24
ATOM     24  O   UNL     1       3.525   4.055  18.549  0.00  0.00    +0.000 OA
BRANCH  24  25
ATOM     25  C   UNL     1       4.965   4.108  18.525  0.00  0.00    +0.000 C 
BRANCH  25  26
ATOM     26  C   UNL     1       5.588   4.320  17.164  0.00  0.00    +0.000 A 
ATOM     27  C   UNL     1       4.903   4.015  15.984  0.00  0.00    +0.000 A 
ATOM     28  C   UNL     1       5.506   4.214  14.739  0.00  0.00    +0.000 A 
ATOM     29  C   UNL     1       6.802   4.724  14.656  0.00  0.00    +0.000 A 
ATOM     30  C   UNL     1       7.496   5.041  15.819  0.00  0.00    +0.000 A 
ATOM     31  C   UNL     1       6.895   4.845  17.065  0.00  0.00    +0.000 A 
ATOM     32 CL   UNL     1       7.817   5.268  18.468  0.00  0.00    +0.000 Cl
ENDBRANCH  25  26
ENDBRANCH  24  25
ENDBRANCH   6  24
TORSDOF 9
ENDMDL
