MODEL 1
REMARK VINA RESULT:      -7.8      0.000      0.000
REMARK  Name = 
REMARK  8 active torsions:
REMARK  status: ('A' for Active; 'I' for Inactive)
REMARK    1  A    between atoms: C_1  and  O_2
REMARK    2  A    between atoms: O_2  and  C_3
REMARK    3  A    between atoms: C_5  and  C_6
REMARK    4  A    between atoms: N_7  and  N_8
REMARK    5  A    between atoms: C_9  and  S_10
REMARK    6  A    between atoms: C_13  and  C_14
REMARK    7  A    between atoms: C_16  and  C_17
REMARK    8  A    between atoms: C_22  and  O_23
REMARK                            x       y       z     vdW  Elec       q    Type
REMARK                         _______ _______ _______ _____ _____    ______ ____
ROOT
ATOM      1  N   UNL     1       3.525   4.535  19.267  0.00  0.00    +0.000 N 
ATOM      2  C   UNL     1       2.941   3.390  19.779  0.00  0.00    +0.000 A 
ATOM      3  N   UNL     1       3.827   2.438  19.953  0.00  0.00    +0.000 NA
ATOM      4  N   UNL     1       5.047   2.946  19.585  0.00  0.00    +0.000 NA
ATOM      5  C   UNL     1       4.883   4.224  19.270  0.00  0.00    +0.000 A 
ENDROOT
BRANCH   5   6
ATOM      6  C   UNL     1       6.027   5.144  19.015  0.00  0.00    +0.000 A 
ATOM      7  C   UNL     1       6.126   6.084  17.963  0.00  0.00    +0.000 A 
ATOM      8  C   UNL     1       7.315   6.746  18.191  0.00  0.00    +0.000 A 
ATOM      9  C   UNL     1       7.973   7.890  17.524  0.00  0.00    +0.000 C 
ATOM     10  N   UNL     1       7.883   6.125  19.264  0.00  0.00    +0.000 N 
ATOM     11  N   UNL     1       7.099   5.192  19.817  0.00  0.00    +0.000 NA
ATOM     12  H   UNL     1       8.784   6.308  19.697  0.00  0.00    +0.000 HD
ENDBRANCH   5   6
BRANCH   1  14
ATOM     13  C   UNL     1       2.794   6.656  19.706  0.00  0.00    +0.000 C 
ATOM     14  N   UNL     1       2.827   5.671  18.868  0.00  0.00    +0.000 NA
BRANCH  13  17
ATOM     15  C   UNL     1       0.516   9.641  20.285  0.00  0.00    +0.000 A 
ATOM     16  C   UNL     1       1.290   8.492  20.515  0.00  0.00    +0.000 A 
ATOM     17  C   UNL     1       1.983   7.875  19.470  0.00  0.00    +0.000 A 
ATOM     18  C   UNL     1       1.923   8.411  18.180  0.00  0.00    +0.000 A 
ATOM     19  C   UNL     1       1.153   9.551  17.940  0.00  0.00    +0.000 A 
ATOM     20  C   UNL     1       0.451  10.160  18.983  0.00  0.00    +0.000 A 
BRANCH  15  22
ATOM     21  C   UNL     1      -0.366   9.197  22.466  0.00  0.00    +0.000 C 
ATOM     22  O   UNL     1      -0.096  10.115  21.414  0.00  0.00    +0.000 OA
ENDBRANCH  15  22
BRANCH  20  23
ATOM     23  O   UNL     1      -0.298  11.268  18.695  0.00  0.00    +0.000 OA
ATOM     24  H   UNL     1      -1.139  10.997  18.294  0.00  0.00    +0.000 HD
ENDBRANCH  20  23
ENDBRANCH  13  17
ENDBRANCH   1  14
BRANCH   2  25
ATOM     25  S   UNL     1       1.235   3.222  20.043  0.00  0.00    +0.000 S 
ATOM     26  H   UNL     1       1.280   2.842  21.328  0.00  0.00    +0.000 HD
ENDBRANCH   2  25
TORSDOF 6
ENDMDL
MODEL 2
REMARK VINA RESULT:      -7.5      1.454      1.532
REMARK  Name = 
REMARK  8 active torsions:
REMARK  status: ('A' for Active; 'I' for Inactive)
REMARK    1  A    between atoms: C_1  and  O_2
REMARK    2  A    between atoms: O_2  and  C_3
REMARK    3  A    between atoms: C_5  and  C_6
REMARK    4  A    between atoms: N_7  and  N_8
REMARK    5  A    between atoms: C_9  and  S_10
REMARK    6  A    between atoms: C_13  and  C_14
REMARK    7  A    between atoms: C_16  and  C_17
REMARK    8  A    between atoms: C_22  and  O_23
REMARK                            x       y       z     vdW  Elec       q    Type
REMARK                         _______ _______ _______ _____ _____    ______ ____
ROOT
ATOM      1  N   UNL     1       3.495   3.983  19.475  0.00  0.00    +0.000 N 
ATOM      2  C   UNL     1       3.127   3.176  20.536  0.00  0.00    +0.000 A 
ATOM      3  N   UNL     1       3.922   2.137  20.645  0.00  0.00    +0.000 NA
ATOM      4  N   UNL     1       4.873   2.248  19.663  0.00  0.00    +0.000 NA
ATOM      5  C   UNL     1       4.677   3.396  19.029  0.00  0.00    +0.000 A 
ENDROOT
BRANCH   5   6
ATOM      6  C   UNL     1       5.643   3.941  18.033  0.00  0.00    +0.000 A 
ATOM      7  C   UNL     1       5.482   3.948  16.628  0.00  0.00    +0.000 A 
ATOM      8  C   UNL     1       6.585   4.622  16.148  0.00  0.00    +0.000 A 
ATOM      9  C   UNL     1       6.992   5.049  14.792  0.00  0.00    +0.000 C 
ATOM     10  N   UNL     1       7.362   4.882  17.239  0.00  0.00    +0.000 N 
ATOM     11  N   UNL     1       6.788   4.534  18.396  0.00  0.00    +0.000 NA
ATOM     12  H   UNL     1       8.274   5.326  17.275  0.00  0.00    +0.000 HD
ENDBRANCH   5   6
BRANCH   1  14
ATOM     13  C   UNL     1       3.166   6.244  19.475  0.00  0.00    +0.000 C 
ATOM     14  N   UNL     1       2.777   5.092  19.036  0.00  0.00    +0.000 NA
BRANCH  13  17
ATOM     15  C   UNL     1       0.925   9.283  19.910  0.00  0.00    +0.000 A 
ATOM     16  C   UNL     1       1.637   8.103  20.182  0.00  0.00    +0.000 A 
ATOM     17  C   UNL     1       2.419   7.495  19.196  0.00  0.00    +0.000 A 
ATOM     18  C   UNL     1       2.511   8.071  17.925  0.00  0.00    +0.000 A 
ATOM     19  C   UNL     1       1.804   9.241  17.643  0.00  0.00    +0.000 A 
ATOM     20  C   UNL     1       1.013   9.842  18.627  0.00  0.00    +0.000 A 
BRANCH  15  22
ATOM     21  C   UNL     1      -0.282   8.790  21.918  0.00  0.00    +0.000 C 
ATOM     22  O   UNL     1       0.211   9.742  20.984  0.00  0.00    +0.000 OA
ENDBRANCH  15  22
BRANCH  20  23
ATOM     23  O   UNL     1       0.331  10.981  18.298  0.00  0.00    +0.000 OA
ATOM     24  H   UNL     1       0.959  11.684  18.073  0.00  0.00    +0.000 HD
ENDBRANCH  20  23
ENDBRANCH  13  17
ENDBRANCH   1  14
BRANCH   2  25
ATOM     25  S   UNL     1       1.722   3.460  21.513  0.00  0.00    +0.000 S 
ATOM     26  H   UNL     1       2.170   4.535  22.178  0.00  0.00    +0.000 HD
ENDBRANCH   2  25
TORSDOF 6
ENDMDL
MODEL 3
REMARK VINA RESULT:      -7.3      1.698      2.573
REMARK  Name = 
REMARK  8 active torsions:
REMARK  status: ('A' for Active; 'I' for Inactive)
REMARK    1  A    between atoms: C_1  and  O_2
REMARK    2  A    between atoms: O_2  and  C_3
REMARK    3  A    between atoms: C_5  and  C_6
REMARK    4  A    between atoms: N_7  and  N_8
REMARK    5  A    between atoms: C_9  and  S_10
REMARK    6  A    between atoms: C_13  and  C_14
REMARK    7  A    between atoms: C_16  and  C_17
REMARK    8  A    between atoms: C_22  and  O_23
REMARK                            x       y       z     vdW  Elec       q    Type
REMARK                         _______ _______ _______ _____ _____    ______ ____
ROOT
ATOM      1  N   UNL     1       4.778   5.160  17.800  0.00  0.00    +0.000 N 
ATOM      2  C   UNL     1       4.437   3.982  17.160  0.00  0.00    +0.000 A 
ATOM      3  N   UNL     1       5.363   3.618  16.305  0.00  0.00    +0.000 NA
ATOM      4  N   UNL     1       6.373   4.542  16.381  0.00  0.00    +0.000 NA
ATOM      5  C   UNL     1       6.070   5.405  17.341  0.00  0.00    +0.000 A 
ENDROOT
BRANCH   5   6
ATOM      6  C   UNL     1       7.032   6.430  17.837  0.00  0.00    +0.000 A 
ATOM      7  C   UNL     1       7.187   7.744  17.337  0.00  0.00    +0.000 A 
ATOM      8  C   UNL     1       8.128   8.327  18.159  0.00  0.00    +0.000 A 
ATOM      9  C   UNL     1       8.682   9.696  18.243  0.00  0.00    +0.000 C 
ATOM     10  N   UNL     1       8.539   7.340  19.006  0.00  0.00    +0.000 N 
ATOM     11  N   UNL     1       7.851   6.201  18.871  0.00  0.00    +0.000 NA
ATOM     12  H   UNL     1       9.255   7.382  19.726  0.00  0.00    +0.000 HD
ENDBRANCH   5   6
BRANCH   1  14
ATOM     13  C   UNL     1       3.145   6.721  18.145  0.00  0.00    +0.000 C 
ATOM     14  N   UNL     1       3.948   5.856  18.674  0.00  0.00    +0.000 NA
BRANCH  13  17
ATOM     15  C   UNL     1       0.966   9.651  19.199  0.00  0.00    +0.000 A 
ATOM     16  C   UNL     1       1.760   8.794  18.419  0.00  0.00    +0.000 A 
ATOM     17  C   UNL     1       2.299   7.625  18.962  0.00  0.00    +0.000 A 
ATOM     18  C   UNL     1       2.035   7.288  20.294  0.00  0.00    +0.000 A 
ATOM     19  C   UNL     1       1.251   8.135  21.079  0.00  0.00    +0.000 A 
ATOM     20  C   UNL     1       0.723   9.310  20.538  0.00  0.00    +0.000 A 
BRANCH  15  22
ATOM     21  C   UNL     1      -0.846  10.796  18.134  0.00  0.00    +0.000 C 
ATOM     22  O   UNL     1       0.523  10.749  18.513  0.00  0.00    +0.000 OA
ENDBRANCH  15  22
BRANCH  20  23
ATOM     23  O   UNL     1      -0.030  10.113  21.351  0.00  0.00    +0.000 OA
ATOM     24  H   UNL     1       0.356  11.003  21.378  0.00  0.00    +0.000 HD
ENDBRANCH  20  23
ENDBRANCH  13  17
ENDBRANCH   1  14
BRANCH   2  25
ATOM     25  S   UNL     1       2.922   3.170  17.392  0.00  0.00    +0.000 S 
ATOM     26  H   UNL     1       3.054   2.247  16.428  0.00  0.00    +0.000 HD
ENDBRANCH   2  25
TORSDOF 6
ENDMDL
MODEL 4
REMARK VINA RESULT:      -7.3      1.734      2.072
REMARK  Name = 
REMARK  8 active torsions:
REMARK  status: ('A' for Active; 'I' for Inactive)
REMARK    1  A    between atoms: C_1  and  O_2
REMARK    2  A    between atoms: O_2  and  C_3
REMARK    3  A    between atoms: C_5  and  C_6
REMARK    4  A    between atoms: N_7  and  N_8
REMARK    5  A    between atoms: C_9  and  S_10
REMARK    6  A    between atoms: C_13  and  C_14
REMARK    7  A    between atoms: C_16  and  C_17
REMARK    8  A    between atoms: C_22  and  O_23
REMARK                            x       y       z     vdW  Elec       q    Type
REMARK                         _______ _______ _______ _____ _____    ______ ____
ROOT
ATOM      1  N   UNL     1       4.743   5.262  17.744  0.00  0.00    +0.000 N 
ATOM      2  C   UNL     1       4.401   4.042  17.190  0.00  0.00    +0.000 A 
ATOM      3  N   UNL     1       5.378   3.557  16.461  0.00  0.00    +0.000 NA
ATOM      4  N   UNL     1       6.423   4.442  16.541  0.00  0.00    +0.000 NA
ATOM      5  C   UNL     1       6.080   5.408  17.383  0.00  0.00    +0.000 A 
ENDROOT
BRANCH   5   6
ATOM      6  C   UNL     1       7.045   6.436  17.865  0.00  0.00    +0.000 A 
ATOM      7  C   UNL     1       7.213   7.739  17.339  0.00  0.00    +0.000 A 
ATOM      8  C   UNL     1       8.151   8.333  18.157  0.00  0.00    +0.000 A 
ATOM      9  C   UNL     1       8.713   9.700  18.217  0.00  0.00    +0.000 C 
ATOM     10  N   UNL     1       8.549   7.361  19.028  0.00  0.00    +0.000 N 
ATOM     11  N   UNL     1       7.854   6.224  18.911  0.00  0.00    +0.000 NA
ATOM     12  H   UNL     1       9.260   7.413  19.752  0.00  0.00    +0.000 HD
ENDBRANCH   5   6
BRANCH   1  14
ATOM     13  C   UNL     1       3.240   6.983  17.801  0.00  0.00    +0.000 C 
ATOM     14  N   UNL     1       3.875   6.076  18.467  0.00  0.00    +0.000 NA
BRANCH  13  17
ATOM     15  C   UNL     1       1.095   8.775  20.375  0.00  0.00    +0.000 A 
ATOM     16  C   UNL     1       1.910   7.812  19.760  0.00  0.00    +0.000 A 
ATOM     17  C   UNL     1       2.384   8.001  18.459  0.00  0.00    +0.000 A 
ATOM     18  C   UNL     1       2.060   9.168  17.761  0.00  0.00    +0.000 A 
ATOM     19  C   UNL     1       1.246  10.130  18.362  0.00  0.00    +0.000 A 
ATOM     20  C   UNL     1       0.763   9.934  19.659  0.00  0.00    +0.000 A 
BRANCH  15  22
ATOM     21  C   UNL     1       1.158   9.250  22.721  0.00  0.00    +0.000 C 
ATOM     22  O   UNL     1       0.718   8.431  21.646  0.00  0.00    +0.000 OA
ENDBRANCH  15  22
BRANCH  20  23
ATOM     23  O   UNL     1      -0.040  10.900  20.200  0.00  0.00    +0.000 OA
ATOM     24  H   UNL     1      -0.294  10.646  21.101  0.00  0.00    +0.000 HD
ENDBRANCH  20  23
ENDBRANCH  13  17
ENDBRANCH   1  14
BRANCH   2  25
ATOM     25  S   UNL     1       2.833   3.320  17.358  0.00  0.00    +0.000 S 
ATOM     26  H   UNL     1       2.096   4.414  17.120  0.00  0.00    +0.000 HD
ENDBRANCH   2  25
TORSDOF 6
ENDMDL
MODEL 5
REMARK VINA RESULT:      -7.2      3.826      5.261
REMARK  Name = 
REMARK  8 active torsions:
REMARK  status: ('A' for Active; 'I' for Inactive)
REMARK    1  A    between atoms: C_1  and  O_2
REMARK    2  A    between atoms: O_2  and  C_3
REMARK    3  A    between atoms: C_5  and  C_6
REMARK    4  A    between atoms: N_7  and  N_8
REMARK    5  A    between atoms: C_9  and  S_10
REMARK    6  A    between atoms: C_13  and  C_14
REMARK    7  A    between atoms: C_16  and  C_17
REMARK    8  A    between atoms: C_22  and  O_23
REMARK                            x       y       z     vdW  Elec       q    Type
REMARK                         _______ _______ _______ _____ _____    ______ ____
ROOT
ATOM      1  N   UNL     1       5.914   4.398  14.983  0.00  0.00    +0.000 N 
ATOM      2  C   UNL     1       6.177   4.112  13.655  0.00  0.00    +0.000 A 
ATOM      3  N   UNL     1       7.224   4.774  13.223  0.00  0.00    +0.000 NA
ATOM      4  N   UNL     1       7.710   5.503  14.278  0.00  0.00    +0.000 NA
ATOM      5  C   UNL     1       6.989   5.203  15.351  0.00  0.00    +0.000 A 
ENDROOT
BRANCH   5   6
ATOM      6  C   UNL     1       7.358   5.656  16.722  0.00  0.00    +0.000 A 
ATOM      7  C   UNL     1       7.521   4.831  17.860  0.00  0.00    +0.000 A 
ATOM      8  C   UNL     1       7.938   5.686  18.859  0.00  0.00    +0.000 A 
ATOM      9  C   UNL     1       8.361   5.466  20.259  0.00  0.00    +0.000 C 
ATOM     10  N   UNL     1       7.906   6.936  18.313  0.00  0.00    +0.000 N 
ATOM     11  N   UNL     1       7.617   6.939  17.006  0.00  0.00    +0.000 NA
ATOM     12  H   UNL     1       8.106   7.826  18.759  0.00  0.00    +0.000 HD
ENDBRANCH   5   6
BRANCH   1  14
ATOM     13  C   UNL     1       4.380   4.693  16.651  0.00  0.00    +0.000 C 
ATOM     14  N   UNL     1       4.802   3.943  15.687  0.00  0.00    +0.000 NA
BRANCH  13  17
ATOM     15  C   UNL     1       1.848   4.692  19.485  0.00  0.00    +0.000 A 
ATOM     16  C   UNL     1       2.875   5.096  18.617  0.00  0.00    +0.000 A 
ATOM     17  C   UNL     1       3.290   4.274  17.566  0.00  0.00    +0.000 A 
ATOM     18  C   UNL     1       2.669   3.038  17.361  0.00  0.00    +0.000 A 
ATOM     19  C   UNL     1       1.651   2.624  18.222  0.00  0.00    +0.000 A 
ATOM     20  C   UNL     1       1.245   3.442  19.279  0.00  0.00    +0.000 A 
BRANCH  15  22
ATOM     21  C   UNL     1       2.039   6.943  20.276  0.00  0.00    +0.000 C 
ATOM     22  O   UNL     1       1.569   5.614  20.458  0.00  0.00    +0.000 OA
ENDBRANCH  15  22
BRANCH  20  23
ATOM     23  O   UNL     1       0.251   2.987  20.101  0.00  0.00    +0.000 OA
ATOM     24  H   UNL     1       0.190   3.556  20.885  0.00  0.00    +0.000 HD
ENDBRANCH  20  23
ENDBRANCH  13  17
ENDBRANCH   1  14
BRANCH   2  25
ATOM     25  S   UNL     1       5.170   3.094  12.677  0.00  0.00    +0.000 S 
ATOM     26  H   UNL     1       4.388   2.610  13.653  0.00  0.00    +0.000 HD
ENDBRANCH   2  25
TORSDOF 6
ENDMDL
MODEL 6
REMARK VINA RESULT:      -7.1      1.833      1.930
REMARK  Name = 
REMARK  8 active torsions:
REMARK  status: ('A' for Active; 'I' for Inactive)
REMARK    1  A    between atoms: C_1  and  O_2
REMARK    2  A    between atoms: O_2  and  C_3
REMARK    3  A    between atoms: C_5  and  C_6
REMARK    4  A    between atoms: N_7  and  N_8
REMARK    5  A    between atoms: C_9  and  S_10
REMARK    6  A    between atoms: C_13  and  C_14
REMARK    7  A    between atoms: C_16  and  C_17
REMARK    8  A    between atoms: C_22  and  O_23
REMARK                            x       y       z     vdW  Elec       q    Type
REMARK                         _______ _______ _______ _____ _____    ______ ____
ROOT
ATOM      1  N   UNL     1       2.883   3.948  18.314  0.00  0.00    +0.000 N 
ATOM      2  C   UNL     1       2.304   2.969  19.100  0.00  0.00    +0.000 A 
ATOM      3  N   UNL     1       2.926   1.821  18.967  0.00  0.00    +0.000 NA
ATOM      4  N   UNL     1       3.970   2.021  18.101  0.00  0.00    +0.000 NA
ATOM      5  C   UNL     1       4.004   3.309  17.789  0.00  0.00    +0.000 A 
ENDROOT
BRANCH   5   6
ATOM      6  C   UNL     1       5.128   3.924  17.026  0.00  0.00    +0.000 A 
ATOM      7  C   UNL     1       5.336   3.839  15.629  0.00  0.00    +0.000 A 
ATOM      8  C   UNL     1       6.444   4.625  15.389  0.00  0.00    +0.000 A 
ATOM      9  C   UNL     1       7.138   5.033  14.149  0.00  0.00    +0.000 C 
ATOM     10  N   UNL     1       6.877   5.037  16.615  0.00  0.00    +0.000 N 
ATOM     11  N   UNL     1       6.065   4.676  17.616  0.00  0.00    +0.000 NA
ATOM     12  H   UNL     1       7.694   5.597  16.843  0.00  0.00    +0.000 HD
ENDBRANCH   5   6
BRANCH   1  14
ATOM     13  C   UNL     1       2.797   6.132  18.984  0.00  0.00    +0.000 C 
ATOM     14  N   UNL     1       2.379   5.236  18.151  0.00  0.00    +0.000 NA
BRANCH  13  17
ATOM     15  C   UNL     1       1.168   9.343  20.197  0.00  0.00    +0.000 A 
ATOM     16  C   UNL     1       1.692   8.041  20.178  0.00  0.00    +0.000 A 
ATOM     17  C   UNL     1       2.249   7.510  19.011  0.00  0.00    +0.000 A 
ATOM     18  C   UNL     1       2.303   8.285  17.849  0.00  0.00    +0.000 A 
ATOM     19  C   UNL     1       1.780   9.579  17.855  0.00  0.00    +0.000 A 
ATOM     20  C   UNL     1       1.213  10.105  19.020  0.00  0.00    +0.000 A 
BRANCH  15  22
ATOM     21  C   UNL     1      -0.341   8.878  21.997  0.00  0.00    +0.000 C 
ATOM     22  O   UNL     1       0.661   9.703  21.417  0.00  0.00    +0.000 OA
ENDBRANCH  15  22
BRANCH  20  23
ATOM     23  O   UNL     1       0.704  11.373  18.973  0.00  0.00    +0.000 OA
ATOM     24  H   UNL     1       0.536  11.623  18.050  0.00  0.00    +0.000 HD
ENDBRANCH  20  23
ENDBRANCH  13  17
ENDBRANCH   1  14
BRANCH   2  25
ATOM     25  S   UNL     1       0.871   3.221  20.043  0.00  0.00    +0.000 S 
ATOM     26  H   UNL     1      -0.026   2.802  19.138  0.00  0.00    +0.000 HD
ENDBRANCH   2  25
TORSDOF 6
ENDMDL
MODEL 7
REMARK VINA RESULT:      -7.1      0.855      1.830
REMARK  Name = 
REMARK  8 active torsions:
REMARK  status: ('A' for Active; 'I' for Inactive)
REMARK    1  A    between atoms: C_1  and  O_2
REMARK    2  A    between atoms: O_2  and  C_3
REMARK    3  A    between atoms: C_5  and  C_6
REMARK    4  A    between atoms: N_7  and  N_8
REMARK    5  A    between atoms: C_9  and  S_10
REMARK    6  A    between atoms: C_13  and  C_14
REMARK    7  A    between atoms: C_16  and  C_17
REMARK    8  A    between atoms: C_22  and  O_23
REMARK                            x       y       z     vdW  Elec       q    Type
REMARK                         _______ _______ _______ _____ _____    ______ ____
ROOT
ATOM      1  N   UNL     1       3.445   4.525  19.400  0.00  0.00    +0.000 N 
ATOM      2  C   UNL     1       2.874   3.338  19.823  0.00  0.00    +0.000 A 
ATOM      3  N   UNL     1       3.744   2.357  19.806  0.00  0.00    +0.000 NA
ATOM      4  N   UNL     1       4.943   2.883  19.395  0.00  0.00    +0.000 NA
ATOM      5  C   UNL     1       4.789   4.192  19.248  0.00  0.00    +0.000 A 
ENDROOT
BRANCH   5   6
ATOM      6  C   UNL     1       5.933   5.115  19.005  0.00  0.00    +0.000 A 
ATOM      7  C   UNL     1       6.030   6.071  17.966  0.00  0.00    +0.000 A 
ATOM      8  C   UNL     1       7.219   6.729  18.202  0.00  0.00    +0.000 A 
ATOM      9  C   UNL     1       7.877   7.883  17.550  0.00  0.00    +0.000 C 
ATOM     10  N   UNL     1       7.790   6.092  19.264  0.00  0.00    +0.000 N 
ATOM     11  N   UNL     1       7.006   5.152  19.805  0.00  0.00    +0.000 NA
ATOM     12  H   UNL     1       8.691   6.268  19.698  0.00  0.00    +0.000 HD
ENDBRANCH   5   6
BRANCH   1  14
ATOM     13  C   UNL     1       2.598   6.479  20.230  0.00  0.00    +0.000 C 
ATOM     14  N   UNL     1       2.747   5.713  19.199  0.00  0.00    +0.000 NA
BRANCH  13  17
ATOM     15  C   UNL     1       1.098   9.788  19.116  0.00  0.00    +0.000 A 
ATOM     16  C   UNL     1       1.879   8.621  19.141  0.00  0.00    +0.000 A 
ATOM     17  C   UNL     1       1.769   7.709  20.194  0.00  0.00    +0.000 A 
ATOM     18  C   UNL     1       0.861   7.945  21.230  0.00  0.00    +0.000 A 
ATOM     19  C   UNL     1       0.083   9.104  21.217  0.00  0.00    +0.000 A 
ATOM     20  C   UNL     1       0.202  10.022  20.170  0.00  0.00    +0.000 A 
BRANCH  15  22
ATOM     21  C   UNL     1       2.221  11.672  18.155  0.00  0.00    +0.000 C 
ATOM     22  O   UNL     1       1.332  10.571  18.018  0.00  0.00    +0.000 OA
ENDBRANCH  15  22
BRANCH  20  23
ATOM     23  O   UNL     1      -0.574  11.147  20.208  0.00  0.00    +0.000 OA
ATOM     24  H   UNL     1      -0.006  11.934  20.238  0.00  0.00    +0.000 HD
ENDBRANCH  20  23
ENDBRANCH  13  17
ENDBRANCH   1  14
BRANCH   2  25
ATOM     25  S   UNL     1       1.192   3.170  20.212  0.00  0.00    +0.000 S 
ATOM     26  H   UNL     1       0.737   2.924  18.975  0.00  0.00    +0.000 HD
ENDBRANCH   2  25
TORSDOF 6
ENDMDL
MODEL 8
REMARK VINA RESULT:      -7.0      5.012      6.403
REMARK  Name = 
REMARK  8 active torsions:
REMARK  status: ('A' for Active; 'I' for Inactive)
REMARK    1  A    between atoms: C_1  and  O_2
REMARK    2  A    between atoms: O_2  and  C_3
REMARK    3  A    between atoms: C_5  and  C_6
REMARK    4  A    between atoms: N_7  and  N_8
REMARK    5  A    between atoms: C_9  and  S_10
REMARK    6  A    between atoms: C_13  and  C_14
REMARK    7  A    between atoms: C_16  and  C_17
REMARK    8  A    between atoms: C_22  and  O_23
REMARK                            x       y       z     vdW  Elec       q    Type
REMARK                         _______ _______ _______ _____ _____    ______ ____
ROOT
ATOM      1  N   UNL     1       6.147   4.508  15.462  0.00  0.00    +0.000 N 
ATOM      2  C   UNL     1       7.058   5.413  15.975  0.00  0.00    +0.000 A 
ATOM      3  N   UNL     1       7.989   5.704  15.097  0.00  0.00    +0.000 NA
ATOM      4  N   UNL     1       7.696   5.012  13.950  0.00  0.00    +0.000 NA
ATOM      5  C   UNL     1       6.546   4.378  14.134  0.00  0.00    +0.000 A 
ENDROOT
BRANCH   5   6
ATOM      6  C   UNL     1       5.821   3.687  13.030  0.00  0.00    +0.000 A 
ATOM      7  C   UNL     1       4.552   4.040  12.514  0.00  0.00    +0.000 A 
ATOM      8  C   UNL     1       4.343   3.170  11.464  0.00  0.00    +0.000 A 
ATOM      9  C   UNL     1       3.266   3.049  10.457  0.00  0.00    +0.000 C 
ATOM     10  N   UNL     1       5.408   2.318  11.473  0.00  0.00    +0.000 N 
ATOM     11  N   UNL     1       6.344   2.646  12.371  0.00  0.00    +0.000 NA
ATOM     12  H   UNL     1       5.583   1.517  10.873  0.00  0.00    +0.000 HD
ENDBRANCH   5   6
BRANCH   1  14
ATOM     13  C   UNL     1       4.274   4.724  16.755  0.00  0.00    +0.000 C 
ATOM     14  N   UNL     1       5.116   3.921  16.190  0.00  0.00    +0.000 NA
BRANCH  13  17
ATOM     15  C   UNL     1       1.782   4.555  19.618  0.00  0.00    +0.000 A 
ATOM     16  C   UNL     1       2.789   5.016  18.755  0.00  0.00    +0.000 A 
ATOM     17  C   UNL     1       3.206   4.246  17.665  0.00  0.00    +0.000 A 
ATOM     18  C   UNL     1       2.606   3.008  17.416  0.00  0.00    +0.000 A 
ATOM     19  C   UNL     1       1.607   2.538  18.271  0.00  0.00    +0.000 A 
ATOM     20  C   UNL     1       1.200   3.304  19.367  0.00  0.00    +0.000 A 
BRANCH  15  22
ATOM     21  C   UNL     1       1.854   6.796  20.459  0.00  0.00    +0.000 C 
ATOM     22  O   UNL     1       1.498   5.430  20.632  0.00  0.00    +0.000 OA
ENDBRANCH  15  22
BRANCH  20  23
ATOM     23  O   UNL     1       0.226   2.795  20.182  0.00  0.00    +0.000 OA
ATOM     24  H   UNL     1       0.466   1.896  20.455  0.00  0.00    +0.000 HD
ENDBRANCH  20  23
ENDBRANCH  13  17
ENDBRANCH   1  14
BRANCH   2  25
ATOM     25  S   UNL     1       7.018   5.989  17.611  0.00  0.00    +0.000 S 
ATOM     26  H   UNL     1       7.676   7.141  17.420  0.00  0.00    +0.000 HD
ENDBRANCH   2  25
TORSDOF 6
ENDMDL
MODEL 9
REMARK VINA RESULT:      -7.0      1.539      1.555
REMARK  Name = 
REMARK  8 active torsions:
REMARK  status: ('A' for Active; 'I' for Inactive)
REMARK    1  A    between atoms: C_1  and  O_2
REMARK    2  A    between atoms: O_2  and  C_3
REMARK    3  A    between atoms: C_5  and  C_6
REMARK    4  A    between atoms: N_7  and  N_8
REMARK    5  A    between atoms: C_9  and  S_10
REMARK    6  A    between atoms: C_13  and  C_14
REMARK    7  A    between atoms: C_16  and  C_17
REMARK    8  A    between atoms: C_22  and  O_23
REMARK                            x       y       z     vdW  Elec       q    Type
REMARK                         _______ _______ _______ _____ _____    ______ ____
ROOT
ATOM      1  N   UNL     1       3.156   4.543  17.828  0.00  0.00    +0.000 N 
ATOM      2  C   UNL     1       2.624   3.310  18.160  0.00  0.00    +0.000 A 
ATOM      3  N   UNL     1       3.450   2.337  17.856  0.00  0.00    +0.000 NA
ATOM      4  N   UNL     1       4.583   2.910  17.337  0.00  0.00    +0.000 NA
ATOM      5  C   UNL     1       4.447   4.228  17.412  0.00  0.00    +0.000 A 
ENDROOT
BRANCH   5   6
ATOM      6  C   UNL     1       5.566   5.170  17.123  0.00  0.00    +0.000 A 
ATOM      7  C   UNL     1       5.859   6.361  17.828  0.00  0.00    +0.000 A 
ATOM      8  C   UNL     1       7.016   6.838  17.249  0.00  0.00    +0.000 A 
ATOM      9  C   UNL     1       7.896   7.986  17.558  0.00  0.00    +0.000 C 
ATOM     10  N   UNL     1       7.284   5.996  16.210  0.00  0.00    +0.000 N 
ATOM     11  N   UNL     1       6.456   4.946  16.149  0.00  0.00    +0.000 NA
ATOM     12  H   UNL     1       8.034   6.052  15.527  0.00  0.00    +0.000 HD
ENDBRANCH   5   6
BRANCH   1  14
ATOM     13  C   UNL     1       2.792   6.524  18.909  0.00  0.00    +0.000 C 
ATOM     14  N   UNL     1       2.473   5.753  17.921  0.00  0.00    +0.000 NA
BRANCH  13  17
ATOM     15  C   UNL     1       1.011   9.302  20.793  0.00  0.00    +0.000 A 
ATOM     16  C   UNL     1       1.711   8.117  20.517  0.00  0.00    +0.000 A 
ATOM     17  C   UNL     1       2.059   7.779  19.206  0.00  0.00    +0.000 A 
ATOM     18  C   UNL     1       1.724   8.636  18.153  0.00  0.00    +0.000 A 
ATOM     19  C   UNL     1       1.024   9.814  18.416  0.00  0.00    +0.000 A 
ATOM     20  C   UNL     1       0.666  10.145  19.726  0.00  0.00    +0.000 A 
BRANCH  15  22
ATOM     21  C   UNL     1      -0.569   9.215  22.590  0.00  0.00    +0.000 C 
ATOM     22  O   UNL     1       0.748   9.477  22.125  0.00  0.00    +0.000 OA
ENDBRANCH  15  22
BRANCH  20  23
ATOM     23  O   UNL     1      -0.029  11.305  19.930  0.00  0.00    +0.000 OA
ATOM     24  H   UNL     1       0.023  11.556  20.866  0.00  0.00    +0.000 HD
ENDBRANCH  20  23
ENDBRANCH  13  17
ENDBRANCH   1  14
BRANCH   2  25
ATOM     25  S   UNL     1       1.022   3.097  18.789  0.00  0.00    +0.000 S 
ATOM     26  H   UNL     1       1.358   2.728  20.034  0.00  0.00    +0.000 HD
ENDBRANCH   2  25
TORSDOF 6
ENDMDL
