MODEL 1
REMARK VINA RESULT:      -8.2      0.000      0.000
REMARK  Name = 
REMARK  8 active torsions:
REMARK  status: ('A' for Active; 'I' for Inactive)
REMARK    1  A    between atoms: C_1  and  O_2
REMARK    2  A    between atoms: O_2  and  C_3
REMARK    3  A    between atoms: C_3  and  C_4
REMARK    4  A    between atoms: N_12  and  C_13
REMARK    5  A    between atoms: C_16  and  C_17
REMARK    6  A    between atoms: C_22  and  O_23
REMARK    7  A    between atoms: O_23  and  C_24
REMARK    8  A    between atoms: C_27  and  C_28
REMARK                            x       y       z     vdW  Elec       q    Type
REMARK                         _______ _______ _______ _____ _____    ______ ____
ROOT
ATOM      1  C   UNL     1      -1.694  13.056  22.721  0.00  0.00    +0.000 C 
ATOM      2  C   UNL     1      -3.024  13.800  22.965  0.00  0.00    +0.000 C 
ATOM      3  C   UNL     1      -2.990  14.917  21.936  0.00  0.00    +0.000 C 
ATOM      4  C   UNL     1      -2.384  14.238  20.715  0.00  0.00    +0.000 C 
ATOM      5  N   UNL     1      -1.550  13.169  21.258  0.00  0.00    +0.000 N 
ATOM      6  C   UNL     1      -1.218  12.136  20.418  0.00  0.00    +0.000 A 
ATOM      7  N   UNL     1      -0.088  11.465  20.612  0.00  0.00    +0.000 NA
ATOM      8  C   UNL     1       0.212  10.529  19.719  0.00  0.00    +0.000 A 
ATOM      9  N   UNL     1       1.409   9.830  19.900  0.00  0.00    +0.000 N 
ATOM     10  N   UNL     1      -0.529  10.266  18.652  0.00  0.00    +0.000 NA
ATOM     11  C   UNL     1      -1.627  10.989  18.516  0.00  0.00    +0.000 A 
ATOM     12  N   UNL     1      -2.012  11.923  19.373  0.00  0.00    +0.000 NA
ATOM     13  H   UNL     1       1.929  10.227  20.669  0.00  0.00    +0.000 HD
ENDROOT
BRANCH   9  14
ATOM     14  C   UNL     1       1.817   8.582  19.401  0.00  0.00    +0.000 A 
ATOM     15  C   UNL     1       2.266   8.402  18.090  0.00  0.00    +0.000 A 
ATOM     16  C   UNL     1       2.716   7.163  17.635  0.00  0.00    +0.000 A 
ATOM     17  C   UNL     1       2.745   6.050  18.491  0.00  0.00    +0.000 A 
ATOM     18  C   UNL     1       2.313   6.212  19.821  0.00  0.00    +0.000 A 
ATOM     19  C   UNL     1       1.866   7.475  20.262  0.00  0.00    +0.000 A 
BRANCH  17  20
ATOM     20  C   UNL     1       3.237   4.779  17.963  0.00  0.00    +0.000 A 
ATOM     21  C   UNL     1       4.461   4.156  17.845  0.00  0.00    +0.000 A 
ATOM     22  N   UNL     1       4.322   2.925  17.248  0.00  0.00    +0.000 NA
ATOM     23  C   UNL     1       3.030   2.842  17.034  0.00  0.00    +0.000 A 
ATOM     24  O   UNL     1       2.303   3.921  17.428  0.00  0.00    +0.000 OA
ENDBRANCH  17  20
BRANCH  18  25
ATOM     25  O   UNL     1       2.347   5.094  20.616  0.00  0.00    +0.000 OA
ATOM     26  C   UNL     1       1.184   4.281  20.675  0.00  0.00    +0.000 C 
ENDBRANCH  18  25
ENDBRANCH   9  14
BRANCH  11  27
ATOM     27  C   UNL     1      -2.428  10.790  17.293  0.00  0.00    +0.000 A 
ATOM     28  C   UNL     1      -3.665  11.443  17.112  0.00  0.00    +0.000 A 
ATOM     29  C   UNL     1      -4.455  11.208  15.984  0.00  0.00    +0.000 A 
ATOM     30  C   UNL     1      -4.026  10.318  15.006  0.00  0.00    +0.000 A 
ATOM     31  C   UNL     1      -2.800   9.674  15.148  0.00  0.00    +0.000 A 
ATOM     32  C   UNL     1      -2.010   9.911  16.277  0.00  0.00    +0.000 A 
ENDBRANCH  11  27
BRANCH   1  33
ATOM     33  C   UNL     1      -1.763  11.660  23.357  0.00  0.00    +0.000 C 
BRANCH  33  35
ATOM     34  C   UNL     1      -0.530   9.646  23.278  0.00  0.00    +0.000 C 
ATOM     35  O   UNL     1      -0.470  11.057  23.428  0.00  0.00    +0.000 OA
ENDBRANCH  33  35
ENDBRANCH   1  33
TORSDOF 6
ENDMDL
MODEL 2
REMARK VINA RESULT:      -8.2      0.499      1.041
REMARK  Name = 
REMARK  8 active torsions:
REMARK  status: ('A' for Active; 'I' for Inactive)
REMARK    1  A    between atoms: C_1  and  O_2
REMARK    2  A    between atoms: O_2  and  C_3
REMARK    3  A    between atoms: C_3  and  C_4
REMARK    4  A    between atoms: N_12  and  C_13
REMARK    5  A    between atoms: C_16  and  C_17
REMARK    6  A    between atoms: C_22  and  O_23
REMARK    7  A    between atoms: O_23  and  C_24
REMARK    8  A    between atoms: C_27  and  C_28
REMARK                            x       y       z     vdW  Elec       q    Type
REMARK                         _______ _______ _______ _____ _____    ______ ____
ROOT
ATOM      1  C   UNL     1      -1.704  13.081  22.748  0.00  0.00    +0.000 C 
ATOM      2  C   UNL     1      -3.036  13.817  23.003  0.00  0.00    +0.000 C 
ATOM      3  C   UNL     1      -3.024  14.927  21.966  0.00  0.00    +0.000 C 
ATOM      4  C   UNL     1      -2.429  14.243  20.742  0.00  0.00    +0.000 C 
ATOM      5  N   UNL     1      -1.580  13.184  21.283  0.00  0.00    +0.000 N 
ATOM      6  C   UNL     1      -1.252  12.147  20.445  0.00  0.00    +0.000 A 
ATOM      7  N   UNL     1      -0.114  11.486  20.630  0.00  0.00    +0.000 NA
ATOM      8  C   UNL     1       0.181  10.545  19.739  0.00  0.00    +0.000 A 
ATOM      9  N   UNL     1       1.385   9.857  19.910  0.00  0.00    +0.000 N 
ATOM     10  N   UNL     1      -0.572  10.270  18.684  0.00  0.00    +0.000 NA
ATOM     11  C   UNL     1      -1.677  10.983  18.557  0.00  0.00    +0.000 A 
ATOM     12  N   UNL     1      -2.057  11.921  19.413  0.00  0.00    +0.000 NA
ATOM     13  H   UNL     1       1.912  10.263  20.669  0.00  0.00    +0.000 HD
ENDROOT
BRANCH   9  14
ATOM     14  C   UNL     1       1.796   8.608  19.415  0.00  0.00    +0.000 A 
ATOM     15  C   UNL     1       2.274   8.430  18.114  0.00  0.00    +0.000 A 
ATOM     16  C   UNL     1       2.725   7.190  17.664  0.00  0.00    +0.000 A 
ATOM     17  C   UNL     1       2.726   6.073  18.515  0.00  0.00    +0.000 A 
ATOM     18  C   UNL     1       2.265   6.233  19.836  0.00  0.00    +0.000 A 
ATOM     19  C   UNL     1       1.817   7.496  20.272  0.00  0.00    +0.000 A 
BRANCH  17  20
ATOM     20  C   UNL     1       3.221   4.801  17.993  0.00  0.00    +0.000 A 
ATOM     21  C   UNL     1       2.671   3.690  17.390  0.00  0.00    +0.000 A 
ATOM     22  N   UNL     1       3.646   2.764  17.101  0.00  0.00    +0.000 NA
ATOM     23  C   UNL     1       4.743   3.343  17.529  0.00  0.00    +0.000 A 
ATOM     24  O   UNL     1       4.574   4.570  18.089  0.00  0.00    +0.000 OA
ENDBRANCH  17  20
BRANCH  18  25
ATOM     25  O   UNL     1       2.273   5.110  20.626  0.00  0.00    +0.000 OA
ATOM     26  C   UNL     1       1.121   4.280  20.617  0.00  0.00    +0.000 C 
ENDBRANCH  18  25
ENDBRANCH   9  14
BRANCH  11  27
ATOM     27  C   UNL     1      -2.493  10.769  17.347  0.00  0.00    +0.000 A 
ATOM     28  C   UNL     1      -2.073   9.895  16.324  0.00  0.00    +0.000 A 
ATOM     29  C   UNL     1      -2.811   9.739  15.148  0.00  0.00    +0.000 A 
ATOM     30  C   UNL     1      -3.993  10.450  14.970  0.00  0.00    +0.000 A 
ATOM     31  C   UNL     1      -4.443  11.305  15.971  0.00  0.00    +0.000 A 
ATOM     32  C   UNL     1      -3.703  11.459  17.146  0.00  0.00    +0.000 A 
ENDBRANCH  11  27
BRANCH   1  33
ATOM     33  C   UNL     1      -1.755  11.689  23.395  0.00  0.00    +0.000 C 
BRANCH  33  35
ATOM     34  C   UNL     1      -0.462   9.712  23.381  0.00  0.00    +0.000 C 
ATOM     35  O   UNL     1      -0.448  11.125  23.517  0.00  0.00    +0.000 OA
ENDBRANCH  33  35
ENDBRANCH   1  33
TORSDOF 6
ENDMDL
MODEL 3
REMARK VINA RESULT:      -8.0      1.394      2.106
REMARK  Name = 
REMARK  8 active torsions:
REMARK  status: ('A' for Active; 'I' for Inactive)
REMARK    1  A    between atoms: C_1  and  O_2
REMARK    2  A    between atoms: O_2  and  C_3
REMARK    3  A    between atoms: C_3  and  C_4
REMARK    4  A    between atoms: N_12  and  C_13
REMARK    5  A    between atoms: C_16  and  C_17
REMARK    6  A    between atoms: C_22  and  O_23
REMARK    7  A    between atoms: O_23  and  C_24
REMARK    8  A    between atoms: C_27  and  C_28
REMARK                            x       y       z     vdW  Elec       q    Type
REMARK                         _______ _______ _______ _____ _____    ______ ____
ROOT
ATOM      1  C   UNL     1      -1.292  14.039  22.510  0.00  0.00    +0.000 C 
ATOM      2  C   UNL     1      -2.504  14.993  22.563  0.00  0.00    +0.000 C 
ATOM      3  C   UNL     1      -2.314  15.865  21.334  0.00  0.00    +0.000 C 
ATOM      4  C   UNL     1      -1.809  14.878  20.290  0.00  0.00    +0.000 C 
ATOM      5  N   UNL     1      -1.134  13.835  21.058  0.00  0.00    +0.000 N 
ATOM      6  C   UNL     1      -0.951  12.618  20.450  0.00  0.00    +0.000 A 
ATOM      7  N   UNL     1       0.075  11.852  20.805  0.00  0.00    +0.000 NA
ATOM      8  C   UNL     1       0.240  10.723  20.124  0.00  0.00    +0.000 A 
ATOM      9  N   UNL     1       1.327   9.917  20.475  0.00  0.00    +0.000 N 
ATOM     10  N   UNL     1      -0.530  10.356  19.110  0.00  0.00    +0.000 NA
ATOM     11  C   UNL     1      -1.516  11.180  18.803  0.00  0.00    +0.000 A 
ATOM     12  N   UNL     1      -1.766  12.312  19.446  0.00  0.00    +0.000 NA
ATOM     13  H   UNL     1       1.897  10.384  21.164  0.00  0.00    +0.000 HD
ENDROOT
BRANCH   9  14
ATOM     14  C   UNL     1       1.556   8.550  20.246  0.00  0.00    +0.000 A 
ATOM     15  C   UNL     1       1.086   7.551  21.103  0.00  0.00    +0.000 A 
ATOM     16  C   UNL     1       1.281   6.199  20.825  0.00  0.00    +0.000 A 
ATOM     17  C   UNL     1       1.951   5.793  19.659  0.00  0.00    +0.000 A 
ATOM     18  C   UNL     1       2.418   6.782  18.773  0.00  0.00    +0.000 A 
ATOM     19  C   UNL     1       2.206   8.144  19.070  0.00  0.00    +0.000 A 
BRANCH  17  20
ATOM     20  C   UNL     1       2.116   4.362  19.414  0.00  0.00    +0.000 A 
ATOM     21  C   UNL     1       3.082   3.412  19.671  0.00  0.00    +0.000 A 
ATOM     22  N   UNL     1       2.689   2.182  19.199  0.00  0.00    +0.000 NA
ATOM     23  C   UNL     1       1.507   2.425  18.683  0.00  0.00    +0.000 A 
ATOM     24  O   UNL     1       1.090   3.716  18.763  0.00  0.00    +0.000 OA
ENDBRANCH  17  20
BRANCH  18  25
ATOM     25  O   UNL     1       3.078   6.338  17.654  0.00  0.00    +0.000 OA
ATOM     26  C   UNL     1       4.446   6.687  17.504  0.00  0.00    +0.000 C 
ENDBRANCH  18  25
ENDBRANCH   9  14
BRANCH  11  27
ATOM     27  C   UNL     1      -2.337  10.853  17.622  0.00  0.00    +0.000 A 
ATOM     28  C   UNL     1      -1.912   9.900  16.674  0.00  0.00    +0.000 A 
ATOM     29  C   UNL     1      -2.656   9.633  15.522  0.00  0.00    +0.000 A 
ATOM     30  C   UNL     1      -3.850  10.309  15.294  0.00  0.00    +0.000 A 
ATOM     31  C   UNL     1      -4.306  11.241  16.222  0.00  0.00    +0.000 A 
ATOM     32  C   UNL     1      -3.559  11.505  17.374  0.00  0.00    +0.000 A 
ENDBRANCH  11  27
BRANCH   1  33
ATOM     33  C   UNL     1      -1.557  12.822  23.408  0.00  0.00    +0.000 C 
BRANCH  33  35
ATOM     34  C   UNL     1      -3.695  12.255  24.238  0.00  0.00    +0.000 C 
ATOM     35  O   UNL     1      -2.823  12.228  23.118  0.00  0.00    +0.000 OA
ENDBRANCH  33  35
ENDBRANCH   1  33
TORSDOF 6
ENDMDL
MODEL 4
REMARK VINA RESULT:      -7.9      1.409      2.030
REMARK  Name = 
REMARK  8 active torsions:
REMARK  status: ('A' for Active; 'I' for Inactive)
REMARK    1  A    between atoms: C_1  and  O_2
REMARK    2  A    between atoms: O_2  and  C_3
REMARK    3  A    between atoms: C_3  and  C_4
REMARK    4  A    between atoms: N_12  and  C_13
REMARK    5  A    between atoms: C_16  and  C_17
REMARK    6  A    between atoms: C_22  and  O_23
REMARK    7  A    between atoms: O_23  and  C_24
REMARK    8  A    between atoms: C_27  and  C_28
REMARK                            x       y       z     vdW  Elec       q    Type
REMARK                         _______ _______ _______ _____ _____    ______ ____
ROOT
ATOM      1  C   UNL     1      -1.456  13.879  22.663  0.00  0.00    +0.000 C 
ATOM      2  C   UNL     1      -2.676  14.822  22.701  0.00  0.00    +0.000 C 
ATOM      3  C   UNL     1      -2.445  15.738  21.512  0.00  0.00    +0.000 C 
ATOM      4  C   UNL     1      -1.892  14.791  20.454  0.00  0.00    +0.000 C 
ATOM      5  N   UNL     1      -1.239  13.727  21.212  0.00  0.00    +0.000 N 
ATOM      6  C   UNL     1      -1.022  12.533  20.570  0.00  0.00    +0.000 A 
ATOM      7  N   UNL     1      -0.006  11.761  20.939  0.00  0.00    +0.000 NA
ATOM      8  C   UNL     1       0.195  10.658  20.226  0.00  0.00    +0.000 A 
ATOM      9  N   UNL     1       1.274   9.847  20.591  0.00  0.00    +0.000 N 
ATOM     10  N   UNL     1      -0.532  10.322  19.171  0.00  0.00    +0.000 NA
ATOM     11  C   UNL     1      -1.512  11.150  18.853  0.00  0.00    +0.000 A 
ATOM     12  N   UNL     1      -1.795  12.257  19.525  0.00  0.00    +0.000 NA
ATOM     13  H   UNL     1       1.813  10.294  21.318  0.00  0.00    +0.000 HD
ENDROOT
BRANCH   9  14
ATOM     14  C   UNL     1       1.522   8.491  20.324  0.00  0.00    +0.000 A 
ATOM     15  C   UNL     1       1.088   7.463  21.166  0.00  0.00    +0.000 A 
ATOM     16  C   UNL     1       1.302   6.121  20.851  0.00  0.00    +0.000 A 
ATOM     17  C   UNL     1       1.954   5.756  19.662  0.00  0.00    +0.000 A 
ATOM     18  C   UNL     1       2.384   6.775  18.791  0.00  0.00    +0.000 A 
ATOM     19  C   UNL     1       2.155   8.125  19.126  0.00  0.00    +0.000 A 
BRANCH  17  20
ATOM     20  C   UNL     1       2.140   4.335  19.379  0.00  0.00    +0.000 A 
ATOM     21  C   UNL     1       1.407   3.335  18.775  0.00  0.00    +0.000 A 
ATOM     22  N   UNL     1       2.103   2.150  18.789  0.00  0.00    +0.000 NA
ATOM     23  C   UNL     1       3.225   2.470  19.390  0.00  0.00    +0.000 A 
ATOM     24  O   UNL     1       3.325   3.766  19.785  0.00  0.00    +0.000 OA
ENDBRANCH  17  20
BRANCH  18  25
ATOM     25  O   UNL     1       3.028   6.370  17.648  0.00  0.00    +0.000 OA
ATOM     26  C   UNL     1       4.276   6.972  17.337  0.00  0.00    +0.000 C 
ENDBRANCH  18  25
ENDBRANCH   9  14
BRANCH  11  27
ATOM     27  C   UNL     1      -2.283  10.858  17.630  0.00  0.00    +0.000 A 
ATOM     28  C   UNL     1      -3.502  11.512  17.358  0.00  0.00    +0.000 A 
ATOM     29  C   UNL     1      -4.266  11.192  16.233  0.00  0.00    +0.000 A 
ATOM     30  C   UNL     1      -3.826  10.215  15.348  0.00  0.00    +0.000 A 
ATOM     31  C   UNL     1      -2.617   9.566  15.579  0.00  0.00    +0.000 A 
ATOM     32  C   UNL     1      -1.853   9.888  16.705  0.00  0.00    +0.000 A 
ENDBRANCH  11  27
BRANCH   1  33
ATOM     33  C   UNL     1      -1.746  12.629  23.508  0.00  0.00    +0.000 C 
BRANCH  33  35
ATOM     34  C   UNL     1      -3.905  12.287  24.403  0.00  0.00    +0.000 C 
ATOM     35  O   UNL     1      -3.065  12.136  23.269  0.00  0.00    +0.000 OA
ENDBRANCH  33  35
ENDBRANCH   1  33
TORSDOF 6
ENDMDL
MODEL 5
REMARK VINA RESULT:      -7.6      3.231      4.910
REMARK  Name = 
REMARK  8 active torsions:
REMARK  status: ('A' for Active; 'I' for Inactive)
REMARK    1  A    between atoms: C_1  and  O_2
REMARK    2  A    between atoms: O_2  and  C_3
REMARK    3  A    between atoms: C_3  and  C_4
REMARK    4  A    between atoms: N_12  and  C_13
REMARK    5  A    between atoms: C_16  and  C_17
REMARK    6  A    between atoms: C_22  and  O_23
REMARK    7  A    between atoms: O_23  and  C_24
REMARK    8  A    between atoms: C_27  and  C_28
REMARK                            x       y       z     vdW  Elec       q    Type
REMARK                         _______ _______ _______ _____ _____    ______ ____
ROOT
ATOM      1  C   UNL     1       3.072  15.337  18.191  0.00  0.00    +0.000 C 
ATOM      2  C   UNL     1       2.933  16.791  18.689  0.00  0.00    +0.000 C 
ATOM      3  C   UNL     1       1.566  17.205  18.173  0.00  0.00    +0.000 C 
ATOM      4  C   UNL     1       0.729  15.949  18.377  0.00  0.00    +0.000 C 
ATOM      5  N   UNL     1       1.686  14.848  18.301  0.00  0.00    +0.000 N 
ATOM      6  C   UNL     1       1.316  13.649  18.858  0.00  0.00    +0.000 A 
ATOM      7  N   UNL     1       1.820  12.517  18.379  0.00  0.00    +0.000 NA
ATOM      8  C   UNL     1       1.363  11.388  18.910  0.00  0.00    +0.000 A 
ATOM      9  N   UNL     1       1.870  10.189  18.401  0.00  0.00    +0.000 N 
ATOM     10  N   UNL     1       0.427  11.342  19.846  0.00  0.00    +0.000 NA
ATOM     11  C   UNL     1      -0.041  12.508  20.257  0.00  0.00    +0.000 A 
ATOM     12  N   UNL     1       0.378  13.679  19.798  0.00  0.00    +0.000 NA
ATOM     13  H   UNL     1       2.467  10.374  17.608  0.00  0.00    +0.000 HD
ENDROOT
BRANCH   9  14
ATOM     14  C   UNL     1       1.902   8.903  18.965  0.00  0.00    +0.000 A 
ATOM     15  C   UNL     1       1.405   8.625  20.241  0.00  0.00    +0.000 A 
ATOM     16  C   UNL     1       1.401   7.330  20.758  0.00  0.00    +0.000 A 
ATOM     17  C   UNL     1       1.888   6.252  20.001  0.00  0.00    +0.000 A 
ATOM     18  C   UNL     1       2.378   6.506  18.707  0.00  0.00    +0.000 A 
ATOM     19  C   UNL     1       2.370   7.823  18.201  0.00  0.00    +0.000 A 
BRANCH  17  20
ATOM     20  C   UNL     1       1.848   4.914  20.589  0.00  0.00    +0.000 A 
ATOM     21  C   UNL     1       2.568   4.222  21.539  0.00  0.00    +0.000 A 
ATOM     22  N   UNL     1       2.066   2.952  21.695  0.00  0.00    +0.000 NA
ATOM     23  C   UNL     1       1.065   2.920  20.848  0.00  0.00    +0.000 A 
ATOM     24  O   UNL     1       0.870   4.061  20.134  0.00  0.00    +0.000 OA
ENDBRANCH  17  20
BRANCH  18  25
ATOM     25  O   UNL     1       2.856   5.424  18.010  0.00  0.00    +0.000 OA
ATOM     26  C   UNL     1       4.252   5.355  17.759  0.00  0.00    +0.000 C 
ENDBRANCH  18  25
ENDBRANCH   9  14
BRANCH  11  27
ATOM     27  C   UNL     1      -1.149  12.495  21.230  0.00  0.00    +0.000 A 
ATOM     28  C   UNL     1      -0.976  11.987  22.534  0.00  0.00    +0.000 A 
ATOM     29  C   UNL     1      -2.039  11.915  23.437  0.00  0.00    +0.000 A 
ATOM     30  C   UNL     1      -3.303  12.355  23.059  0.00  0.00    +0.000 A 
ATOM     31  C   UNL     1      -3.501  12.881  21.786  0.00  0.00    +0.000 A 
ATOM     32  C   UNL     1      -2.435  12.953  20.884  0.00  0.00    +0.000 A 
ENDBRANCH  11  27
BRANCH   1  33
ATOM     33  C   UNL     1       4.178  14.627  18.985  0.00  0.00    +0.000 C 
BRANCH  33  35
ATOM     34  C   UNL     1       4.710  14.705  21.285  0.00  0.00    +0.000 C 
ATOM     35  O   UNL     1       4.640  15.434  20.069  0.00  0.00    +0.000 OA
ENDBRANCH  33  35
ENDBRANCH   1  33
TORSDOF 6
ENDMDL
MODEL 6
REMARK VINA RESULT:      -7.5      3.181      4.879
REMARK  Name = 
REMARK  8 active torsions:
REMARK  status: ('A' for Active; 'I' for Inactive)
REMARK    1  A    between atoms: C_1  and  O_2
REMARK    2  A    between atoms: O_2  and  C_3
REMARK    3  A    between atoms: C_3  and  C_4
REMARK    4  A    between atoms: N_12  and  C_13
REMARK    5  A    between atoms: C_16  and  C_17
REMARK    6  A    between atoms: C_22  and  O_23
REMARK    7  A    between atoms: O_23  and  C_24
REMARK    8  A    between atoms: C_27  and  C_28
REMARK                            x       y       z     vdW  Elec       q    Type
REMARK                         _______ _______ _______ _____ _____    ______ ____
ROOT
ATOM      1  C   UNL     1       3.037  15.287  18.450  0.00  0.00    +0.000 C 
ATOM      2  C   UNL     1       2.876  16.723  18.992  0.00  0.00    +0.000 C 
ATOM      3  C   UNL     1       1.529  17.154  18.440  0.00  0.00    +0.000 C 
ATOM      4  C   UNL     1       0.687  15.891  18.569  0.00  0.00    +0.000 C 
ATOM      5  N   UNL     1       1.648  14.793  18.492  0.00  0.00    +0.000 N 
ATOM      6  C   UNL     1       1.261  13.576  18.993  0.00  0.00    +0.000 A 
ATOM      7  N   UNL     1       1.784  12.461  18.494  0.00  0.00    +0.000 NA
ATOM      8  C   UNL     1       1.310  11.314  18.969  0.00  0.00    +0.000 A 
ATOM      9  N   UNL     1       1.838  10.134  18.438  0.00  0.00    +0.000 N 
ATOM     10  N   UNL     1       0.339  11.236  19.867  0.00  0.00    +0.000 NA
ATOM     11  C   UNL     1      -0.146  12.387  20.300  0.00  0.00    +0.000 A 
ATOM     12  N   UNL     1       0.288  13.573  19.898  0.00  0.00    +0.000 NA
ATOM     13  H   UNL     1       2.463  10.346  17.675  0.00  0.00    +0.000 HD
ENDROOT
BRANCH   9  14
ATOM     14  C   UNL     1       1.851   8.829  18.959  0.00  0.00    +0.000 A 
ATOM     15  C   UNL     1       1.383   8.522  20.240  0.00  0.00    +0.000 A 
ATOM     16  C   UNL     1       1.358   7.210  20.713  0.00  0.00    +0.000 A 
ATOM     17  C   UNL     1       1.794   6.146  19.908  0.00  0.00    +0.000 A 
ATOM     18  C   UNL     1       2.253   6.431  18.608  0.00  0.00    +0.000 A 
ATOM     19  C   UNL     1       2.266   7.763  18.146  0.00  0.00    +0.000 A 
BRANCH  17  20
ATOM     20  C   UNL     1       1.735   4.791  20.452  0.00  0.00    +0.000 A 
ATOM     21  C   UNL     1       0.881   3.714  20.351  0.00  0.00    +0.000 A 
ATOM     22  N   UNL     1       1.340   2.661  21.106  0.00  0.00    +0.000 NA
ATOM     23  C   UNL     1       2.448   3.129  21.629  0.00  0.00    +0.000 A 
ATOM     24  O   UNL     1       2.755   4.410  21.292  0.00  0.00    +0.000 OA
ENDBRANCH  17  20
BRANCH  18  25
ATOM     25  O   UNL     1       2.681   5.360  17.862  0.00  0.00    +0.000 OA
ATOM     26  C   UNL     1       4.061   5.285  17.534  0.00  0.00    +0.000 C 
ENDBRANCH  18  25
ENDBRANCH   9  14
BRANCH  11  27
ATOM     27  C   UNL     1      -1.290  12.340  21.230  0.00  0.00    +0.000 A 
ATOM     28  C   UNL     1      -2.504  12.992  20.933  0.00  0.00    +0.000 A 
ATOM     29  C   UNL     1      -3.567  13.003  21.839  0.00  0.00    +0.000 A 
ATOM     30  C   UNL     1      -3.445  12.354  23.063  0.00  0.00    +0.000 A 
ATOM     31  C   UNL     1      -2.266  11.684  23.376  0.00  0.00    +0.000 A 
ATOM     32  C   UNL     1      -1.204  11.674  22.467  0.00  0.00    +0.000 A 
ENDBRANCH  11  27
BRANCH   1  33
ATOM     33  C   UNL     1       4.114  14.550  19.261  0.00  0.00    +0.000 C 
BRANCH  33  35
ATOM     34  C   UNL     1       5.807  15.040  20.833  0.00  0.00    +0.000 C 
ATOM     35  O   UNL     1       4.463  15.276  20.440  0.00  0.00    +0.000 OA
ENDBRANCH  33  35
ENDBRANCH   1  33
TORSDOF 6
ENDMDL
MODEL 7
REMARK VINA RESULT:      -7.5      3.499      5.443
REMARK  Name = 
REMARK  8 active torsions:
REMARK  status: ('A' for Active; 'I' for Inactive)
REMARK    1  A    between atoms: C_1  and  O_2
REMARK    2  A    between atoms: O_2  and  C_3
REMARK    3  A    between atoms: C_3  and  C_4
REMARK    4  A    between atoms: N_12  and  C_13
REMARK    5  A    between atoms: C_16  and  C_17
REMARK    6  A    between atoms: C_22  and  O_23
REMARK    7  A    between atoms: O_23  and  C_24
REMARK    8  A    between atoms: C_27  and  C_28
REMARK                            x       y       z     vdW  Elec       q    Type
REMARK                         _______ _______ _______ _____ _____    ______ ____
ROOT
ATOM      1  C   UNL     1       3.545  15.127  17.832  0.00  0.00    +0.000 C 
ATOM      2  C   UNL     1       3.647  16.577  18.349  0.00  0.00    +0.000 C 
ATOM      3  C   UNL     1       2.255  17.131  18.104  0.00  0.00    +0.000 C 
ATOM      4  C   UNL     1       1.352  15.958  18.464  0.00  0.00    +0.000 C 
ATOM      5  N   UNL     1       2.164  14.771  18.205  0.00  0.00    +0.000 N 
ATOM      6  C   UNL     1       1.790  13.603  18.821  0.00  0.00    +0.000 A 
ATOM      7  N   UNL     1       2.080  12.437  18.253  0.00  0.00    +0.000 NA
ATOM      8  C   UNL     1       1.623  11.347  18.861  0.00  0.00    +0.000 A 
ATOM      9  N   UNL     1       1.903  10.115  18.262  0.00  0.00    +0.000 N 
ATOM     10  N   UNL     1       0.881  11.374  19.958  0.00  0.00    +0.000 NA
ATOM     11  C   UNL     1       0.618  12.571  20.453  0.00  0.00    +0.000 A 
ATOM     12  N   UNL     1       1.055  13.705  19.923  0.00  0.00    +0.000 NA
ATOM     13  H   UNL     1       2.353  10.258  17.371  0.00  0.00    +0.000 HD
ENDROOT
BRANCH   9  14
ATOM     14  C   UNL     1       1.915   8.821  18.809  0.00  0.00    +0.000 A 
ATOM     15  C   UNL     1       1.422   8.536  20.085  0.00  0.00    +0.000 A 
ATOM     16  C   UNL     1       1.397   7.234  20.584  0.00  0.00    +0.000 A 
ATOM     17  C   UNL     1       1.857   6.157  19.809  0.00  0.00    +0.000 A 
ATOM     18  C   UNL     1       2.342   6.420  18.514  0.00  0.00    +0.000 A 
ATOM     19  C   UNL     1       2.355   7.743  18.026  0.00  0.00    +0.000 A 
BRANCH  17  20
ATOM     20  C   UNL     1       1.796   4.813  20.379  0.00  0.00    +0.000 A 
ATOM     21  C   UNL     1       0.911   3.756  20.346  0.00  0.00    +0.000 A 
ATOM     22  N   UNL     1       1.388   2.703  21.091  0.00  0.00    +0.000 NA
ATOM     23  C   UNL     1       2.537   3.151  21.539  0.00  0.00    +0.000 A 
ATOM     24  O   UNL     1       2.855   4.418  21.163  0.00  0.00    +0.000 OA
ENDBRANCH  17  20
BRANCH  18  25
ATOM     25  O   UNL     1       2.793   5.338  17.798  0.00  0.00    +0.000 OA
ATOM     26  C   UNL     1       4.139   5.352  17.347  0.00  0.00    +0.000 C 
ENDBRANCH  18  25
ENDBRANCH   9  14
BRANCH  11  27
ATOM     27  C   UNL     1      -0.281  12.646  21.619  0.00  0.00    +0.000 A 
ATOM     28  C   UNL     1      -1.014  11.523  22.055  0.00  0.00    +0.000 A 
ATOM     29  C   UNL     1      -1.914  11.606  23.120  0.00  0.00    +0.000 A 
ATOM     30  C   UNL     1      -2.099  12.815  23.781  0.00  0.00    +0.000 A 
ATOM     31  C   UNL     1      -1.375  13.937  23.387  0.00  0.00    +0.000 A 
ATOM     32  C   UNL     1      -0.474  13.850  22.321  0.00  0.00    +0.000 A 
ENDBRANCH  11  27
BRANCH   1  33
ATOM     33  C   UNL     1       4.707  14.297  18.400  0.00  0.00    +0.000 C 
BRANCH  33  35
ATOM     34  C   UNL     1       6.832  14.881  19.248  0.00  0.00    +0.000 C 
ATOM     35  O   UNL     1       5.428  15.025  19.394  0.00  0.00    +0.000 OA
ENDBRANCH  33  35
ENDBRANCH   1  33
TORSDOF 6
ENDMDL
MODEL 8
REMARK VINA RESULT:      -7.5      2.865      4.202
REMARK  Name = 
REMARK  8 active torsions:
REMARK  status: ('A' for Active; 'I' for Inactive)
REMARK    1  A    between atoms: C_1  and  O_2
REMARK    2  A    between atoms: O_2  and  C_3
REMARK    3  A    between atoms: C_3  and  C_4
REMARK    4  A    between atoms: N_12  and  C_13
REMARK    5  A    between atoms: C_16  and  C_17
REMARK    6  A    between atoms: C_22  and  O_23
REMARK    7  A    between atoms: O_23  and  C_24
REMARK    8  A    between atoms: C_27  and  C_28
REMARK                            x       y       z     vdW  Elec       q    Type
REMARK                         _______ _______ _______ _____ _____    ______ ____
ROOT
ATOM      1  C   UNL     1      -4.047  13.019  20.655  0.00  0.00    +0.000 C 
ATOM      2  C   UNL     1      -4.780  14.352  20.394  0.00  0.00    +0.000 C 
ATOM      3  C   UNL     1      -4.111  15.310  21.365  0.00  0.00    +0.000 C 
ATOM      4  C   UNL     1      -2.647  14.896  21.299  0.00  0.00    +0.000 C 
ATOM      5  N   UNL     1      -2.676  13.480  20.940  0.00  0.00    +0.000 N 
ATOM      6  C   UNL     1      -1.535  12.941  20.400  0.00  0.00    +0.000 A 
ATOM      7  N   UNL     1      -1.278  11.647  20.561  0.00  0.00    +0.000 NA
ATOM      8  C   UNL     1      -0.121  11.204  20.081  0.00  0.00    +0.000 A 
ATOM      9  N   UNL     1       0.172   9.849  20.263  0.00  0.00    +0.000 N 
ATOM     10  N   UNL     1       0.778  11.982  19.496  0.00  0.00    +0.000 NA
ATOM     11  C   UNL     1       0.460  13.260  19.390  0.00  0.00    +0.000 A 
ATOM     12  N   UNL     1      -0.683  13.778  19.820  0.00  0.00    +0.000 NA
ATOM     13  H   UNL     1      -0.536   9.416  20.838  0.00  0.00    +0.000 HD
ENDROOT
BRANCH   9  14
ATOM     14  C   UNL     1       1.068   9.013  19.577  0.00  0.00    +0.000 A 
ATOM     15  C   UNL     1       1.555   9.312  18.301  0.00  0.00    +0.000 A 
ATOM     16  C   UNL     1       2.485   8.492  17.664  0.00  0.00    +0.000 A 
ATOM     17  C   UNL     1       2.976   7.337  18.293  0.00  0.00    +0.000 A 
ATOM     18  C   UNL     1       2.512   7.026  19.585  0.00  0.00    +0.000 A 
ATOM     19  C   UNL     1       1.575   7.871  20.214  0.00  0.00    +0.000 A 
BRANCH  17  20
ATOM     20  C   UNL     1       3.958   6.521  17.582  0.00  0.00    +0.000 A 
ATOM     21  C   UNL     1       5.242   6.693  17.110  0.00  0.00    +0.000 A 
ATOM     22  N   UNL     1       5.691   5.545  16.501  0.00  0.00    +0.000 NA
ATOM     23  C   UNL     1       4.677   4.723  16.629  0.00  0.00    +0.000 A 
ATOM     24  O   UNL     1       3.588   5.235  17.263  0.00  0.00    +0.000 OA
ENDBRANCH  17  20
BRANCH  18  25
ATOM     25  O   UNL     1       3.011   5.880  20.155  0.00  0.00    +0.000 OA
ATOM     26  C   UNL     1       2.090   4.966  20.730  0.00  0.00    +0.000 C 
ENDBRANCH  18  25
ENDBRANCH   9  14
BRANCH  11  27
ATOM     27  C   UNL     1       1.473  14.173  18.830  0.00  0.00    +0.000 A 
ATOM     28  C   UNL     1       2.719  13.695  18.375  0.00  0.00    +0.000 A 
ATOM     29  C   UNL     1       3.706  14.564  17.902  0.00  0.00    +0.000 A 
ATOM     30  C   UNL     1       3.467  15.934  17.866  0.00  0.00    +0.000 A 
ATOM     31  C   UNL     1       2.239  16.433  18.290  0.00  0.00    +0.000 A 
ATOM     32  C   UNL     1       1.254  15.562  18.762  0.00  0.00    +0.000 A 
ENDBRANCH  11  27
BRANCH   1  33
ATOM     33  C   UNL     1      -4.281  12.066  19.473  0.00  0.00    +0.000 C 
BRANCH  33  35
ATOM     34  C   UNL     1      -6.161  11.128  18.394  0.00  0.00    +0.000 C 
ATOM     35  O   UNL     1      -5.537  12.321  18.841  0.00  0.00    +0.000 OA
ENDBRANCH  33  35
ENDBRANCH   1  33
TORSDOF 6
ENDMDL
MODEL 9
REMARK VINA RESULT:      -7.5      2.881      4.163
REMARK  Name = 
REMARK  8 active torsions:
REMARK  status: ('A' for Active; 'I' for Inactive)
REMARK    1  A    between atoms: C_1  and  O_2
REMARK    2  A    between atoms: O_2  and  C_3
REMARK    3  A    between atoms: C_3  and  C_4
REMARK    4  A    between atoms: N_12  and  C_13
REMARK    5  A    between atoms: C_16  and  C_17
REMARK    6  A    between atoms: C_22  and  O_23
REMARK    7  A    between atoms: O_23  and  C_24
REMARK    8  A    between atoms: C_27  and  C_28
REMARK                            x       y       z     vdW  Elec       q    Type
REMARK                         _______ _______ _______ _____ _____    ______ ____
ROOT
ATOM      1  C   UNL     1      -3.855  13.330  20.927  0.00  0.00    +0.000 C 
ATOM      2  C   UNL     1      -4.527  14.699  20.692  0.00  0.00    +0.000 C 
ATOM      3  C   UNL     1      -3.789  15.616  21.651  0.00  0.00    +0.000 C 
ATOM      4  C   UNL     1      -2.349  15.131  21.549  0.00  0.00    +0.000 C 
ATOM      5  N   UNL     1      -2.456  13.721  21.182  0.00  0.00    +0.000 N 
ATOM      6  C   UNL     1      -1.357  13.130  20.611  0.00  0.00    +0.000 A 
ATOM      7  N   UNL     1      -1.160  11.824  20.759  0.00  0.00    +0.000 NA
ATOM      8  C   UNL     1      -0.037  11.329  20.249  0.00  0.00    +0.000 A 
ATOM      9  N   UNL     1       0.193   9.960  20.416  0.00  0.00    +0.000 N 
ATOM     10  N   UNL     1       0.885  12.065  19.647  0.00  0.00    +0.000 NA
ATOM     11  C   UNL     1       0.627  13.359  19.556  0.00  0.00    +0.000 A 
ATOM     12  N   UNL     1      -0.478  13.929  20.016  0.00  0.00    +0.000 NA
ATOM     13  H   UNL     1      -0.521   9.558  21.005  0.00  0.00    +0.000 HD
ENDROOT
BRANCH   9  14
ATOM     14  C   UNL     1       1.030   9.086  19.704  0.00  0.00    +0.000 A 
ATOM     15  C   UNL     1       1.477   9.355  18.407  0.00  0.00    +0.000 A 
ATOM     16  C   UNL     1       2.351   8.496  17.742  0.00  0.00    +0.000 A 
ATOM     17  C   UNL     1       2.825   7.329  18.363  0.00  0.00    +0.000 A 
ATOM     18  C   UNL     1       2.401   7.047  19.675  0.00  0.00    +0.000 A 
ATOM     19  C   UNL     1       1.520   7.931  20.332  0.00  0.00    +0.000 A 
BRANCH  17  20
ATOM     20  C   UNL     1       3.747   6.472  17.622  0.00  0.00    +0.000 A 
ATOM     21  C   UNL     1       3.833   5.130  17.317  0.00  0.00    +0.000 A 
ATOM     22  N   UNL     1       4.955   4.877  16.563  0.00  0.00    +0.000 NA
ATOM     23  C   UNL     1       5.501   6.063  16.433  0.00  0.00    +0.000 A 
ATOM     24  O   UNL     1       4.841   7.079  17.049  0.00  0.00    +0.000 OA
ENDBRANCH  17  20
BRANCH  18  25
ATOM     25  O   UNL     1       2.879   5.889  20.237  0.00  0.00    +0.000 OA
ATOM     26  C   UNL     1       1.937   4.945  20.725  0.00  0.00    +0.000 C 
ENDBRANCH  18  25
ENDBRANCH   9  14
BRANCH  11  27
ATOM     27  C   UNL     1       1.671  14.224  18.977  0.00  0.00    +0.000 A 
ATOM     28  C   UNL     1       1.442  15.596  18.746  0.00  0.00    +0.000 A 
ATOM     29  C   UNL     1       2.406  16.405  18.138  0.00  0.00    +0.000 A 
ATOM     30  C   UNL     1       3.626  15.862  17.753  0.00  0.00    +0.000 A 
ATOM     31  C   UNL     1       3.889  14.516  17.987  0.00  0.00    +0.000 A 
ATOM     32  C   UNL     1       2.924  13.709  18.595  0.00  0.00    +0.000 A 
ENDBRANCH  11  27
BRANCH   1  33
ATOM     33  C   UNL     1      -4.163  12.397  19.745  0.00  0.00    +0.000 C 
BRANCH  33  35
ATOM     34  C   UNL     1      -5.891  11.327  18.542  0.00  0.00    +0.000 C 
ATOM     35  O   UNL     1      -5.539  12.011  19.735  0.00  0.00    +0.000 OA
ENDBRANCH  33  35
ENDBRANCH   1  33
TORSDOF 6
ENDMDL
