MODEL 1
REMARK VINA RESULT:      -9.4      0.000      0.000
REMARK  Name = 
REMARK  5 active torsions:
REMARK  status: ('A' for Active; 'I' for Inactive)
REMARK    1  A    between atoms: C_1  and  C_2
REMARK    2  A    between atoms: C_9  and  C_11
REMARK    3  A    between atoms: C_14  and  S_15
REMARK    4  A    between atoms: S_15  and  N_18
REMARK    5  A    between atoms: C_21  and  C_22
REMARK                            x       y       z     vdW  Elec       q    Type
REMARK                         _______ _______ _______ _____ _____    ______ ____
ROOT
ATOM      1  C   UNL     1       2.314   7.912  18.660  0.00  0.00    +0.000 A 
ATOM      2  C   UNL     1       3.099   7.770  17.511  0.00  0.00    +0.000 A 
ATOM      3  C   UNL     1       4.034   6.723  17.430  0.00  0.00    +0.000 A 
ATOM      4  C   UNL     1       4.167   5.805  18.485  0.00  0.00    +0.000 A 
ATOM      5  C   UNL     1       3.321   5.900  19.588  0.00  0.00    +0.000 A 
ATOM      6  C   UNL     1       2.434   6.974  19.696  0.00  0.00    +0.000 A 
ENDROOT
BRANCH   1  15
ATOM      7  C   UNL     1      -3.514  15.127  21.762  0.00  0.00    +0.000 C 
ATOM      8  C   UNL     1      -2.691  13.873  21.833  0.00  0.00    +0.000 A 
ATOM      9  C   UNL     1      -2.319  13.314  23.059  0.00  0.00    +0.000 A 
ATOM     10  C   UNL     1      -1.530  12.154  23.113  0.00  0.00    +0.000 A 
ATOM     11  C   UNL     1      -1.089  11.539  21.920  0.00  0.00    +0.000 A 
ATOM     12  N   UNL     1      -0.276  10.413  21.811  0.00  0.00    +0.000 NA
ATOM     13  C   UNL     1      -0.012  10.183  20.549  0.00  0.00    +0.000 A 
ATOM     14  N   UNL     1       0.824   9.164  20.137  0.00  0.00    +0.000 N 
ATOM     15  C   UNL     1       1.389   9.061  18.882  0.00  0.00    +0.000 C 
ATOM     16  O   UNL     1       1.259   9.841  17.945  0.00  0.00    +0.000 OA
ATOM     17  S   UNL     1      -0.815  11.189  19.425  0.00  0.00    +0.000 S 
ATOM     18  C   UNL     1      -1.480  12.110  20.708  0.00  0.00    +0.000 A 
ATOM     19  C   UNL     1      -2.281  13.262  20.639  0.00  0.00    +0.000 A 
ATOM     20  H   UNL     1       1.166   8.596  20.898  0.00  0.00    +0.000 HD
ENDBRANCH   1  15
BRANCH   4  21
ATOM     21  S   UNL     1       5.311   4.428  18.355  0.00  0.00    +0.000 S 
ATOM     22  O   UNL     1       5.826   4.464  17.003  0.00  0.00    +0.000 OA
ATOM     23  O   UNL     1       6.197   4.518  19.497  0.00  0.00    +0.000 OA
BRANCH  21  24
ATOM     24  N   UNL     1       4.399   3.019  18.538  0.00  0.00    +0.000 NA
ATOM     25  C   UNL     1       3.313   2.658  17.620  0.00  0.00    +0.000 C 
ATOM     26  C   UNL     1       1.953   2.966  18.231  0.00  0.00    +0.000 C 
ATOM     27  C   UNL     1       1.793   2.562  19.706  0.00  0.00    +0.000 C 
ATOM     28  C   UNL     1       0.671   3.385  20.353  0.00  0.00    +0.000 C 
ATOM     29  C   UNL     1       3.074   2.685  20.555  0.00  0.00    +0.000 C 
ATOM     30  C   UNL     1       4.340   2.296  19.812  0.00  0.00    +0.000 C 
ENDBRANCH  21  24
ENDBRANCH   4  21
TORSDOF 3
ENDMDL
MODEL 2
REMARK VINA RESULT:      -8.8      1.944      2.497
REMARK  Name = 
REMARK  5 active torsions:
REMARK  status: ('A' for Active; 'I' for Inactive)
REMARK    1  A    between atoms: C_1  and  C_2
REMARK    2  A    between atoms: C_9  and  C_11
REMARK    3  A    between atoms: C_14  and  S_15
REMARK    4  A    between atoms: S_15  and  N_18
REMARK    5  A    between atoms: C_21  and  C_22
REMARK                            x       y       z     vdW  Elec       q    Type
REMARK                         _______ _______ _______ _____ _____    ______ ____
ROOT
ATOM      1  C   UNL     1       1.666   8.539  19.234  0.00  0.00    +0.000 A 
ATOM      2  C   UNL     1       2.059   7.471  20.048  0.00  0.00    +0.000 A 
ATOM      3  C   UNL     1       2.936   6.495  19.543  0.00  0.00    +0.000 A 
ATOM      4  C   UNL     1       3.438   6.598  18.235  0.00  0.00    +0.000 A 
ATOM      5  C   UNL     1       3.111   7.709  17.460  0.00  0.00    +0.000 A 
ATOM      6  C   UNL     1       2.195   8.648  17.940  0.00  0.00    +0.000 A 
ENDROOT
BRANCH   1  15
ATOM      7  C   UNL     1      -5.960  14.489  20.682  0.00  0.00    +0.000 C 
ATOM      8  C   UNL     1      -5.084  13.492  19.977  0.00  0.00    +0.000 A 
ATOM      9  C   UNL     1      -5.549  12.760  18.881  0.00  0.00    +0.000 A 
ATOM     10  C   UNL     1      -4.728  11.816  18.244  0.00  0.00    +0.000 A 
ATOM     11  C   UNL     1      -3.417  11.581  18.716  0.00  0.00    +0.000 A 
ATOM     12  N   UNL     1      -2.502  10.656  18.217  0.00  0.00    +0.000 NA
ATOM     13  C   UNL     1      -1.421  10.667  18.957  0.00  0.00    +0.000 A 
ATOM     14  N   UNL     1      -0.362   9.808  18.738  0.00  0.00    +0.000 N 
ATOM     15  C   UNL     1       0.647   9.547  19.644  0.00  0.00    +0.000 C 
ATOM     16  O   UNL     1       0.767  10.012  20.773  0.00  0.00    +0.000 OA
ATOM     17  S   UNL     1      -1.368  11.856  20.183  0.00  0.00    +0.000 S 
ATOM     18  C   UNL     1      -2.972  12.330  19.807  0.00  0.00    +0.000 A 
ATOM     19  C   UNL     1      -3.777  13.289  20.444  0.00  0.00    +0.000 A 
ATOM     20  H   UNL     1      -0.489   9.214  17.932  0.00  0.00    +0.000 HD
ENDBRANCH   1  15
BRANCH   4  21
ATOM     21  S   UNL     1       4.610   5.391  17.612  0.00  0.00    +0.000 S 
ATOM     22  O   UNL     1       4.802   5.706  16.214  0.00  0.00    +0.000 OA
ATOM     23  O   UNL     1       5.724   5.380  18.538  0.00  0.00    +0.000 OA
BRANCH  21  24
ATOM     24  N   UNL     1       3.858   3.883  17.718  0.00  0.00    +0.000 NA
ATOM     25  C   UNL     1       2.530   3.623  17.151  0.00  0.00    +0.000 C 
ATOM     26  C   UNL     1       1.461   3.623  18.234  0.00  0.00    +0.000 C 
ATOM     27  C   UNL     1       1.836   2.873  19.523  0.00  0.00    +0.000 C 
ATOM     28  C   UNL     1       0.988   3.390  20.693  0.00  0.00    +0.000 C 
ATOM     29  C   UNL     1       3.328   2.941  19.902  0.00  0.00    +0.000 C 
ATOM     30  C   UNL     1       4.266   2.882  18.708  0.00  0.00    +0.000 C 
ENDBRANCH  21  24
ENDBRANCH   4  21
TORSDOF 3
ENDMDL
MODEL 3
REMARK VINA RESULT:      -8.6      1.243      1.790
REMARK  Name = 
REMARK  5 active torsions:
REMARK  status: ('A' for Active; 'I' for Inactive)
REMARK    1  A    between atoms: C_1  and  C_2
REMARK    2  A    between atoms: C_9  and  C_11
REMARK    3  A    between atoms: C_14  and  S_15
REMARK    4  A    between atoms: S_15  and  N_18
REMARK    5  A    between atoms: C_21  and  C_22
REMARK                            x       y       z     vdW  Elec       q    Type
REMARK                         _______ _______ _______ _____ _____    ______ ____
ROOT
ATOM      1  C   UNL     1       1.428   8.943  19.178  0.00  0.00    +0.000 A 
ATOM      2  C   UNL     1       1.767   7.988  20.143  0.00  0.00    +0.000 A 
ATOM      3  C   UNL     1       2.571   6.891  19.786  0.00  0.00    +0.000 A 
ATOM      4  C   UNL     1       3.055   6.762  18.474  0.00  0.00    +0.000 A 
ATOM      5  C   UNL     1       2.786   7.761  17.541  0.00  0.00    +0.000 A 
ATOM      6  C   UNL     1       1.940   8.820  17.878  0.00  0.00    +0.000 A 
ENDROOT
BRANCH   1  15
ATOM      7  C   UNL     1      -3.985  16.433  22.379  0.00  0.00    +0.000 C 
ATOM      8  C   UNL     1      -3.029  15.276  22.445  0.00  0.00    +0.000 A 
ATOM      9  C   UNL     1      -2.219  15.064  23.564  0.00  0.00    +0.000 A 
ATOM     10  C   UNL     1      -1.313  13.992  23.605  0.00  0.00    +0.000 A 
ATOM     11  C   UNL     1      -1.198  13.117  22.502  0.00  0.00    +0.000 A 
ATOM     12  N   UNL     1      -0.325  12.038  22.378  0.00  0.00    +0.000 NA
ATOM     13  C   UNL     1      -0.448  11.509  21.186  0.00  0.00    +0.000 A 
ATOM     14  N   UNL     1       0.337  10.458  20.754  0.00  0.00    +0.000 N 
ATOM     15  C   UNL     1       0.483  10.067  19.438  0.00  0.00    +0.000 C 
ATOM     16  O   UNL     1      -0.037  10.578  18.452  0.00  0.00    +0.000 OA
ATOM     17  S   UNL     1      -1.688  12.160  20.207  0.00  0.00    +0.000 S 
ATOM     18  C   UNL     1      -2.023  13.344  21.399  0.00  0.00    +0.000 A 
ATOM     19  C   UNL     1      -2.944  14.404  21.351  0.00  0.00    +0.000 A 
ATOM     20  H   UNL     1       0.972  10.117  21.461  0.00  0.00    +0.000 HD
ENDBRANCH   1  15
BRANCH   4  21
ATOM     21  S   UNL     1       4.137   5.399  18.033  0.00  0.00    +0.000 S 
ATOM     22  O   UNL     1       4.631   5.695  16.706  0.00  0.00    +0.000 OA
ATOM     23  O   UNL     1       5.044   5.215  19.147  0.00  0.00    +0.000 OA
BRANCH  21  24
ATOM     24  N   UNL     1       3.169   4.019  17.943  0.00  0.00    +0.000 NA
ATOM     25  C   UNL     1       1.704   4.084  17.901  0.00  0.00    +0.000 C 
ATOM     26  C   UNL     1       1.100   3.754  19.259  0.00  0.00    +0.000 C 
ATOM     27  C   UNL     1       1.732   2.551  19.979  0.00  0.00    +0.000 C 
ATOM     28  C   UNL     1       1.468   2.650  21.488  0.00  0.00    +0.000 C 
ATOM     29  C   UNL     1       3.241   2.366  19.733  0.00  0.00    +0.000 C 
ATOM     30  C   UNL     1       3.675   2.693  18.314  0.00  0.00    +0.000 C 
ENDBRANCH  21  24
ENDBRANCH   4  21
TORSDOF 3
ENDMDL
MODEL 4
REMARK VINA RESULT:      -8.5      1.500      1.827
REMARK  Name = 
REMARK  5 active torsions:
REMARK  status: ('A' for Active; 'I' for Inactive)
REMARK    1  A    between atoms: C_1  and  C_2
REMARK    2  A    between atoms: C_9  and  C_11
REMARK    3  A    between atoms: C_14  and  S_15
REMARK    4  A    between atoms: S_15  and  N_18
REMARK    5  A    between atoms: C_21  and  C_22
REMARK                            x       y       z     vdW  Elec       q    Type
REMARK                         _______ _______ _______ _____ _____    ______ ____
ROOT
ATOM      1  C   UNL     1       1.717   8.138  19.817  0.00  0.00    +0.000 A 
ATOM      2  C   UNL     1       2.146   8.394  18.510  0.00  0.00    +0.000 A 
ATOM      3  C   UNL     1       3.013   7.489  17.872  0.00  0.00    +0.000 A 
ATOM      4  C   UNL     1       3.431   6.320  18.529  0.00  0.00    +0.000 A 
ATOM      5  C   UNL     1       2.931   6.029  19.796  0.00  0.00    +0.000 A 
ATOM      6  C   UNL     1       2.117   6.955  20.454  0.00  0.00    +0.000 A 
ENDROOT
BRANCH   1  15
ATOM      7  C   UNL     1      -4.520  14.657  23.593  0.00  0.00    +0.000 C 
ATOM      8  C   UNL     1      -3.796  13.870  22.538  0.00  0.00    +0.000 A 
ATOM      9  C   UNL     1      -4.250  13.833  21.217  0.00  0.00    +0.000 A 
ATOM     10  C   UNL     1      -3.578  13.075  20.244  0.00  0.00    +0.000 A 
ATOM     11  C   UNL     1      -2.434  12.325  20.594  0.00  0.00    +0.000 A 
ATOM     12  N   UNL     1      -1.685  11.501  19.756  0.00  0.00    +0.000 NA
ATOM     13  C   UNL     1      -0.746  10.907  20.450  0.00  0.00    +0.000 A 
ATOM     14  N   UNL     1       0.115   9.981  19.895  0.00  0.00    +0.000 N 
ATOM     15  C   UNL     1       0.900   9.100  20.612  0.00  0.00    +0.000 C 
ATOM     16  O   UNL     1       0.958   8.984  21.831  0.00  0.00    +0.000 OA
ATOM     17  S   UNL     1      -0.607  11.391  22.082  0.00  0.00    +0.000 S 
ATOM     18  C   UNL     1      -1.994  12.384  21.918  0.00  0.00    +0.000 A 
ATOM     19  C   UNL     1      -2.648  13.149  22.898  0.00  0.00    +0.000 A 
ATOM     20  H   UNL     1      -0.024   9.849  18.904  0.00  0.00    +0.000 HD
ENDBRANCH   1  15
BRANCH   4  21
ATOM     21  S   UNL     1       4.483   5.132  17.690  0.00  0.00    +0.000 S 
ATOM     22  O   UNL     1       4.634   5.618  16.337  0.00  0.00    +0.000 OA
ATOM     23  O   UNL     1       5.633   4.923  18.545  0.00  0.00    +0.000 OA
BRANCH  21  24
ATOM     24  N   UNL     1       3.627   3.677  17.639  0.00  0.00    +0.000 NA
ATOM     25  C   UNL     1       2.219   3.604  17.234  0.00  0.00    +0.000 C 
ATOM     26  C   UNL     1       1.307   3.467  18.444  0.00  0.00    +0.000 C 
ATOM     27  C   UNL     1       1.785   2.470  19.514  0.00  0.00    +0.000 C 
ATOM     28  C   UNL     1       1.146   2.811  20.867  0.00  0.00    +0.000 C 
ATOM     29  C   UNL     1       3.315   2.379  19.677  0.00  0.00    +0.000 C 
ATOM     30  C   UNL     1       4.078   2.488  18.369  0.00  0.00    +0.000 C 
ENDBRANCH  21  24
ENDBRANCH   4  21
TORSDOF 3
ENDMDL
MODEL 5
REMARK VINA RESULT:      -8.5      2.482      2.827
REMARK  Name = 
REMARK  5 active torsions:
REMARK  status: ('A' for Active; 'I' for Inactive)
REMARK    1  A    between atoms: C_1  and  C_2
REMARK    2  A    between atoms: C_9  and  C_11
REMARK    3  A    between atoms: C_14  and  S_15
REMARK    4  A    between atoms: S_15  and  N_18
REMARK    5  A    between atoms: C_21  and  C_22
REMARK                            x       y       z     vdW  Elec       q    Type
REMARK                         _______ _______ _______ _____ _____    ______ ____
ROOT
ATOM      1  C   UNL     1       2.583   8.197  18.102  0.00  0.00    +0.000 A 
ATOM      2  C   UNL     1       3.446   7.932  17.033  0.00  0.00    +0.000 A 
ATOM      3  C   UNL     1       4.248   6.777  17.055  0.00  0.00    +0.000 A 
ATOM      4  C   UNL     1       4.170   5.877  18.130  0.00  0.00    +0.000 A 
ATOM      5  C   UNL     1       3.246   6.102  19.148  0.00  0.00    +0.000 A 
ATOM      6  C   UNL     1       2.491   7.278  19.157  0.00  0.00    +0.000 A 
ENDROOT
BRANCH   1  15
ATOM      7  C   UNL     1      -1.125  17.231  18.639  0.00  0.00    +0.000 C 
ATOM      8  C   UNL     1      -0.080  16.152  18.625  0.00  0.00    +0.000 A 
ATOM      9  C   UNL     1       1.276  16.453  18.460  0.00  0.00    +0.000 A 
ATOM     10  C   UNL     1       2.241  15.434  18.426  0.00  0.00    +0.000 A 
ATOM     11  C   UNL     1       1.851  14.082  18.546  0.00  0.00    +0.000 A 
ATOM     12  N   UNL     1       2.682  12.964  18.494  0.00  0.00    +0.000 NA
ATOM     13  C   UNL     1       1.956  11.875  18.562  0.00  0.00    +0.000 A 
ATOM     14  N   UNL     1       2.504  10.610  18.471  0.00  0.00    +0.000 N 
ATOM     15  C   UNL     1       1.791   9.455  18.220  0.00  0.00    +0.000 C 
ATOM     16  O   UNL     1       0.584   9.357  18.026  0.00  0.00    +0.000 OA
ATOM     17  S   UNL     1       0.285  12.109  18.829  0.00  0.00    +0.000 S 
ATOM     18  C   UNL     1       0.493  13.806  18.718  0.00  0.00    +0.000 A 
ATOM     19  C   UNL     1      -0.482  14.816  18.768  0.00  0.00    +0.000 A 
ATOM     20  H   UNL     1       3.510  10.615  18.397  0.00  0.00    +0.000 HD
ENDBRANCH   1  15
BRANCH   4  21
ATOM     21  S   UNL     1       5.142   4.368  18.127  0.00  0.00    +0.000 S 
ATOM     22  O   UNL     1       5.814   4.330  16.846  0.00  0.00    +0.000 OA
ATOM     23  O   UNL     1       5.890   4.356  19.366  0.00  0.00    +0.000 OA
BRANCH  21  24
ATOM     24  N   UNL     1       4.048   3.084  18.190  0.00  0.00    +0.000 NA
ATOM     25  C   UNL     1       2.853   3.023  17.341  0.00  0.00    +0.000 C 
ATOM     26  C   UNL     1       1.605   3.411  18.120  0.00  0.00    +0.000 C 
ATOM     27  C   UNL     1       1.500   2.803  19.529  0.00  0.00    +0.000 C 
ATOM     28  C   UNL     1       0.565   3.656  20.396  0.00  0.00    +0.000 C 
ATOM     29  C   UNL     1       2.845   2.615  20.256  0.00  0.00    +0.000 C 
ATOM     30  C   UNL     1       3.979   2.182  19.344  0.00  0.00    +0.000 C 
ENDBRANCH  21  24
ENDBRANCH   4  21
TORSDOF 3
ENDMDL
MODEL 6
REMARK VINA RESULT:      -8.4      1.792      3.228
REMARK  Name = 
REMARK  5 active torsions:
REMARK  status: ('A' for Active; 'I' for Inactive)
REMARK    1  A    between atoms: C_1  and  C_2
REMARK    2  A    between atoms: C_9  and  C_11
REMARK    3  A    between atoms: C_14  and  S_15
REMARK    4  A    between atoms: S_15  and  N_18
REMARK    5  A    between atoms: C_21  and  C_22
REMARK                            x       y       z     vdW  Elec       q    Type
REMARK                         _______ _______ _______ _____ _____    ______ ____
ROOT
ATOM      1  C   UNL     1       2.456   7.730  18.691  0.00  0.00    +0.000 A 
ATOM      2  C   UNL     1       3.261   7.518  17.565  0.00  0.00    +0.000 A 
ATOM      3  C   UNL     1       4.056   6.362  17.485  0.00  0.00    +0.000 A 
ATOM      4  C   UNL     1       4.029   5.407  18.515  0.00  0.00    +0.000 A 
ATOM      5  C   UNL     1       3.161   5.581  19.590  0.00  0.00    +0.000 A 
ATOM      6  C   UNL     1       2.415   6.757  19.700  0.00  0.00    +0.000 A 
ENDROOT
BRANCH   1  15
ATOM      7  C   UNL     1      -2.717  15.434  21.780  0.00  0.00    +0.000 C 
ATOM      8  C   UNL     1      -2.100  14.064  21.816  0.00  0.00    +0.000 A 
ATOM      9  C   UNL     1      -2.007  13.338  23.006  0.00  0.00    +0.000 A 
ATOM     10  C   UNL     1      -1.408  12.068  23.032  0.00  0.00    +0.000 A 
ATOM     11  C   UNL     1      -0.875  11.511  21.848  0.00  0.00    +0.000 A 
ATOM     12  N   UNL     1      -0.221  10.287  21.721  0.00  0.00    +0.000 NA
ATOM     13  C   UNL     1       0.204  10.143  20.490  0.00  0.00    +0.000 A 
ATOM     14  N   UNL     1       0.943   9.050  20.082  0.00  0.00    +0.000 N 
ATOM     15  C   UNL     1       1.679   8.983  18.915  0.00  0.00    +0.000 C 
ATOM     16  O   UNL     1       1.808   9.861  18.070  0.00  0.00    +0.000 OA
ATOM     17  S   UNL     1      -0.263  11.367  19.393  0.00  0.00    +0.000 S 
ATOM     18  C   UNL     1      -0.986  12.252  20.670  0.00  0.00    +0.000 A 
ATOM     19  C   UNL     1      -1.596  13.516  20.627  0.00  0.00    +0.000 A 
ATOM     20  H   UNL     1       1.077   8.364  20.810  0.00  0.00    +0.000 HD
ENDBRANCH   1  15
BRANCH   4  21
ATOM     21  S   UNL     1       4.991   3.897  18.382  0.00  0.00    +0.000 S 
ATOM     22  O   UNL     1       4.880   3.239  19.664  0.00  0.00    +0.000 OA
ATOM     23  O   UNL     1       4.565   3.242  17.163  0.00  0.00    +0.000 OA
BRANCH  21  24
ATOM     24  N   UNL     1       6.600   4.364  18.163  0.00  0.00    +0.000 NA
ATOM     25  C   UNL     1       7.406   4.946  19.242  0.00  0.00    +0.000 C 
ATOM     26  C   UNL     1       7.518   6.456  19.089  0.00  0.00    +0.000 C 
ATOM     27  C   UNL     1       7.793   6.950  17.659  0.00  0.00    +0.000 C 
ATOM     28  C   UNL     1       7.339   8.409  17.515  0.00  0.00    +0.000 C 
ATOM     29  C   UNL     1       7.150   6.100  16.545  0.00  0.00    +0.000 C 
ATOM     30  C   UNL     1       7.160   4.609  16.830  0.00  0.00    +0.000 C 
ENDBRANCH  21  24
ENDBRANCH   4  21
TORSDOF 3
ENDMDL
MODEL 7
REMARK VINA RESULT:      -8.4      2.152      2.683
REMARK  Name = 
REMARK  5 active torsions:
REMARK  status: ('A' for Active; 'I' for Inactive)
REMARK    1  A    between atoms: C_1  and  C_2
REMARK    2  A    between atoms: C_9  and  C_11
REMARK    3  A    between atoms: C_14  and  S_15
REMARK    4  A    between atoms: S_15  and  N_18
REMARK    5  A    between atoms: C_21  and  C_22
REMARK                            x       y       z     vdW  Elec       q    Type
REMARK                         _______ _______ _______ _____ _____    ______ ____
ROOT
ATOM      1  C   UNL     1       1.376   9.057  19.117  0.00  0.00    +0.000 A 
ATOM      2  C   UNL     1       1.892   8.900  17.825  0.00  0.00    +0.000 A 
ATOM      3  C   UNL     1       2.742   7.817  17.541  0.00  0.00    +0.000 A 
ATOM      4  C   UNL     1       3.058   6.879  18.538  0.00  0.00    +0.000 A 
ATOM      5  C   UNL     1       2.472   6.993  19.797  0.00  0.00    +0.000 A 
ATOM      6  C   UNL     1       1.674   8.100  20.097  0.00  0.00    +0.000 A 
ENDROOT
BRANCH   1  15
ATOM      7  C   UNL     1      -3.062  17.634  20.658  0.00  0.00    +0.000 C 
ATOM      8  C   UNL     1      -2.035  16.671  20.135  0.00  0.00    +0.000 A 
ATOM      9  C   UNL     1      -1.145  17.034  19.120  0.00  0.00    +0.000 A 
ATOM     10  C   UNL     1      -0.204  16.117  18.624  0.00  0.00    +0.000 A 
ATOM     11  C   UNL     1      -0.154  14.803  19.138  0.00  0.00    +0.000 A 
ATOM     12  N   UNL     1       0.693  13.776  18.726  0.00  0.00    +0.000 NA
ATOM     13  C   UNL     1       0.398  12.677  19.376  0.00  0.00    +0.000 A 
ATOM     14  N   UNL     1       1.032  11.475  19.131  0.00  0.00    +0.000 N 
ATOM     15  C   UNL     1       0.570  10.239  19.537  0.00  0.00    +0.000 C 
ATOM     16  O   UNL     1      -0.460  10.000  20.157  0.00  0.00    +0.000 OA
ATOM     17  S   UNL     1      -0.787  12.830  20.598  0.00  0.00    +0.000 S 
ATOM     18  C   UNL     1      -1.046  14.466  20.157  0.00  0.00    +0.000 A 
ATOM     19  C   UNL     1      -1.983  15.377  20.673  0.00  0.00    +0.000 A 
ATOM     20  H   UNL     1       1.767  11.544  18.443  0.00  0.00    +0.000 HD
ENDBRANCH   1  15
BRANCH   4  21
ATOM     21  S   UNL     1       4.088   5.459  18.158  0.00  0.00    +0.000 S 
ATOM     22  O   UNL     1       4.643   5.708  16.846  0.00  0.00    +0.000 OA
ATOM     23  O   UNL     1       4.944   5.252  19.307  0.00  0.00    +0.000 OA
BRANCH  21  24
ATOM     24  N   UNL     1       3.058   4.125  18.054  0.00  0.00    +0.000 NA
ATOM     25  C   UNL     1       1.597   4.250  18.111  0.00  0.00    +0.000 C 
ATOM     26  C   UNL     1       1.066   3.865  19.483  0.00  0.00    +0.000 C 
ATOM     27  C   UNL     1       1.689   2.598  20.093  0.00  0.00    +0.000 C 
ATOM     28  C   UNL     1       1.525   2.619  21.619  0.00  0.00    +0.000 C 
ATOM     29  C   UNL     1       3.171   2.370  19.740  0.00  0.00    +0.000 C 
ATOM     30  C   UNL     1       3.529   2.761  18.317  0.00  0.00    +0.000 C 
ENDBRANCH  21  24
ENDBRANCH   4  21
TORSDOF 3
ENDMDL
MODEL 8
REMARK VINA RESULT:      -8.3      1.544      1.824
REMARK  Name = 
REMARK  5 active torsions:
REMARK  status: ('A' for Active; 'I' for Inactive)
REMARK    1  A    between atoms: C_1  and  C_2
REMARK    2  A    between atoms: C_9  and  C_11
REMARK    3  A    between atoms: C_14  and  S_15
REMARK    4  A    between atoms: S_15  and  N_18
REMARK    5  A    between atoms: C_21  and  C_22
REMARK                            x       y       z     vdW  Elec       q    Type
REMARK                         _______ _______ _______ _____ _____    ______ ____
ROOT
ATOM      1  C   UNL     1       1.585   7.948  20.049  0.00  0.00    +0.000 A 
ATOM      2  C   UNL     1       2.006   8.236  18.745  0.00  0.00    +0.000 A 
ATOM      3  C   UNL     1       2.929   7.389  18.108  0.00  0.00    +0.000 A 
ATOM      4  C   UNL     1       3.413   6.244  18.761  0.00  0.00    +0.000 A 
ATOM      5  C   UNL     1       2.924   5.915  20.023  0.00  0.00    +0.000 A 
ATOM      6  C   UNL     1       2.052   6.786  20.681  0.00  0.00    +0.000 A 
ENDROOT
BRANCH   1  15
ATOM      7  C   UNL     1      -3.681  15.088  24.163  0.00  0.00    +0.000 C 
ATOM      8  C   UNL     1      -2.637  14.453  23.289  0.00  0.00    +0.000 A 
ATOM      9  C   UNL     1      -2.004  15.171  22.271  0.00  0.00    +0.000 A 
ATOM     10  C   UNL     1      -1.046  14.560  21.446  0.00  0.00    +0.000 A 
ATOM     11  C   UNL     1      -0.718  13.198  21.628  0.00  0.00    +0.000 A 
ATOM     12  N   UNL     1       0.179  12.446  20.871  0.00  0.00    +0.000 NA
ATOM     13  C   UNL     1       0.164  11.202  21.282  0.00  0.00    +0.000 A 
ATOM     14  N   UNL     1       0.908  10.209  20.676  0.00  0.00    +0.000 N 
ATOM     15  C   UNL     1       0.707   8.854  20.843  0.00  0.00    +0.000 C 
ATOM     16  O   UNL     1      -0.152   8.312  21.531  0.00  0.00    +0.000 OA
ATOM     17  S   UNL     1      -0.794  10.885  22.661  0.00  0.00    +0.000 S 
ATOM     18  C   UNL     1      -1.357  12.503  22.656  0.00  0.00    +0.000 A 
ATOM     19  C   UNL     1      -2.306  13.106  23.498  0.00  0.00    +0.000 A 
ATOM     20  H   UNL     1       1.492  10.549  19.925  0.00  0.00    +0.000 HD
ENDBRANCH   1  15
BRANCH   4  21
ATOM     21  S   UNL     1       4.539   5.125  17.923  0.00  0.00    +0.000 S 
ATOM     22  O   UNL     1       4.573   5.554  16.542  0.00  0.00    +0.000 OA
ATOM     23  O   UNL     1       5.745   5.078  18.722  0.00  0.00    +0.000 OA
BRANCH  21  24
ATOM     24  N   UNL     1       3.837   3.591  17.985  0.00  0.00    +0.000 NA
ATOM     25  C   UNL     1       2.499   3.313  17.449  0.00  0.00    +0.000 C 
ATOM     26  C   UNL     1       1.467   3.233  18.564  0.00  0.00    +0.000 C 
ATOM     27  C   UNL     1       1.907   2.440  19.806  0.00  0.00    +0.000 C 
ATOM     28  C   UNL     1       1.083   2.878  21.024  0.00  0.00    +0.000 C 
ATOM     29  C   UNL     1       3.408   2.539  20.140  0.00  0.00    +0.000 C 
ATOM     30  C   UNL     1       4.308   2.561  18.917  0.00  0.00    +0.000 C 
ENDBRANCH  21  24
ENDBRANCH   4  21
TORSDOF 3
ENDMDL
MODEL 9
REMARK VINA RESULT:      -8.3      1.709      2.209
REMARK  Name = 
REMARK  5 active torsions:
REMARK  status: ('A' for Active; 'I' for Inactive)
REMARK    1  A    between atoms: C_1  and  C_2
REMARK    2  A    between atoms: C_9  and  C_11
REMARK    3  A    between atoms: C_14  and  S_15
REMARK    4  A    between atoms: S_15  and  N_18
REMARK    5  A    between atoms: C_21  and  C_22
REMARK                            x       y       z     vdW  Elec       q    Type
REMARK                         _______ _______ _______ _____ _____    ______ ____
ROOT
ATOM      1  C   UNL     1       1.506   8.104  20.402  0.00  0.00    +0.000 A 
ATOM      2  C   UNL     1       1.956   6.891  20.934  0.00  0.00    +0.000 A 
ATOM      3  C   UNL     1       2.764   6.045  20.155  0.00  0.00    +0.000 A 
ATOM      4  C   UNL     1       3.142   6.420  18.855  0.00  0.00    +0.000 A 
ATOM      5  C   UNL     1       2.762   7.667  18.363  0.00  0.00    +0.000 A 
ATOM      6  C   UNL     1       1.911   8.483  19.113  0.00  0.00    +0.000 A 
ENDROOT
BRANCH   1  15
ATOM      7  C   UNL     1      -3.899  15.251  24.319  0.00  0.00    +0.000 C 
ATOM      8  C   UNL     1      -2.734  14.607  23.623  0.00  0.00    +0.000 A 
ATOM      9  C   UNL     1      -1.790  15.367  22.927  0.00  0.00    +0.000 A 
ATOM     10  C   UNL     1      -0.718  14.752  22.262  0.00  0.00    +0.000 A 
ATOM     11  C   UNL     1      -0.587  13.345  22.276  0.00  0.00    +0.000 A 
ATOM     12  N   UNL     1       0.395  12.591  21.636  0.00  0.00    +0.000 NA
ATOM     13  C   UNL     1       0.149  11.315  21.808  0.00  0.00    +0.000 A 
ATOM     14  N   UNL     1       0.921  10.325  21.234  0.00  0.00    +0.000 N 
ATOM     15  C   UNL     1       0.548   9.002  21.109  0.00  0.00    +0.000 C 
ATOM     16  O   UNL     1      -0.509   8.494  21.466  0.00  0.00    +0.000 OA
ATOM     17  S   UNL     1      -1.160  10.942  22.841  0.00  0.00    +0.000 S 
ATOM     18  C   UNL     1      -1.537  12.608  22.984  0.00  0.00    +0.000 A 
ATOM     19  C   UNL     1      -2.606  13.211  23.666  0.00  0.00    +0.000 A 
ATOM     20  H   UNL     1       1.710  10.683  20.716  0.00  0.00    +0.000 HD
ENDBRANCH   1  15
BRANCH   4  21
ATOM     21  S   UNL     1       4.229   5.372  17.885  0.00  0.00    +0.000 S 
ATOM     22  O   UNL     1       4.224   5.923  16.547  0.00  0.00    +0.000 OA
ATOM     23  O   UNL     1       5.459   5.244  18.638  0.00  0.00    +0.000 OA
BRANCH  21  24
ATOM     24  N   UNL     1       3.512   3.844  17.832  0.00  0.00    +0.000 NA
ATOM     25  C   UNL     1       2.108   3.644  17.456  0.00  0.00    +0.000 C 
ATOM     26  C   UNL     1       1.240   3.409  18.683  0.00  0.00    +0.000 C 
ATOM     27  C   UNL     1       1.833   2.449  19.729  0.00  0.00    +0.000 C 
ATOM     28  C   UNL     1       1.195   2.713  21.100  0.00  0.00    +0.000 C 
ATOM     29  C   UNL     1       3.368   2.501  19.859  0.00  0.00    +0.000 C 
ATOM     30  C   UNL     1       4.089   2.695  18.536  0.00  0.00    +0.000 C 
ENDBRANCH  21  24
ENDBRANCH   4  21
TORSDOF 3
ENDMDL
