MODEL 1
REMARK VINA RESULT:      -7.6      0.000      0.000
REMARK  Name = 
REMARK  7 active torsions:
REMARK  status: ('A' for Active; 'I' for Inactive)
REMARK    1  A    between atoms: C_1  and  C_2
REMARK    2  A    between atoms: C_5  and  S_6
REMARK    3  A    between atoms: S_6  and  C_7
REMARK    4  A    between atoms: C_7  and  C_8
REMARK    5  A    between atoms: C_7  and  C_21
REMARK    6  A    between atoms: C_9  and  O_10
REMARK    7  A    between atoms: C_24  and  N_25
REMARK                            x       y       z     vdW  Elec       q    Type
REMARK                         _______ _______ _______ _____ _____    ______ ____
ROOT
ATOM      1  C   UNL     1       1.106  11.549  19.704  0.00  0.00    +0.000 C 
ENDROOT
BRANCH   1   2
ATOM      2  C   UNL     1      -0.349  11.865  20.048  0.00  0.00    +0.000 C 
ATOM      3  C   UNL     1      -1.292  12.285  19.181  0.00  0.00    +0.000 C 
ATOM      4  C   UNL     1      -2.737  12.270  19.548  0.00  0.00    +0.000 C 
ATOM      5  O   UNL     1      -3.623  12.260  18.700  0.00  0.00    +0.000 OA
ATOM      6  C   UNL     1      -3.068  12.356  20.970  0.00  0.00    +0.000 A 
ATOM      7  C   UNL     1      -4.376  12.676  21.355  0.00  0.00    +0.000 A 
ATOM      8  C   UNL     1      -4.650  12.971  22.686  0.00  0.00    +0.000 A 
ATOM      9  C   UNL     1      -3.620  12.941  23.628  0.00  0.00    +0.000 A 
ATOM     10  C   UNL     1      -2.332  12.544  23.252  0.00  0.00    +0.000 A 
ATOM     11  C   UNL     1      -2.061  12.225  21.916  0.00  0.00    +0.000 A 
ATOM     12  C   UNL     1      -0.715  11.755  21.491  0.00  0.00    +0.000 C 
ATOM     13  O   UNL     1       0.084  11.357  22.330  0.00  0.00    +0.000 OA
BRANCH   3  14
ATOM     14  O   UNL     1      -1.002  12.718  17.901  0.00  0.00    +0.000 OA
ATOM     15  H   UNL     1      -0.196  13.264  17.954  0.00  0.00    +0.000 HD
ENDBRANCH   3  14
ENDBRANCH   1   2
BRANCH   1  16
ATOM     16  C   UNL     1       1.888  12.854  19.422  0.00  0.00    +0.000 A 
ATOM     17  C   UNL     1       2.482  13.155  18.179  0.00  0.00    +0.000 A 
ATOM     18  C   UNL     1       3.010  14.423  17.910  0.00  0.00    +0.000 A 
ATOM     19  C   UNL     1       2.958  15.413  18.893  0.00  0.00    +0.000 A 
ATOM     20  C   UNL     1       2.450  15.118  20.164  0.00  0.00    +0.000 A 
ATOM     21  C   UNL     1       1.925  13.847  20.422  0.00  0.00    +0.000 A 
BRANCH  19  22
ATOM     22  N   UNL     1       3.381  16.782  18.572  0.00  0.00    +0.000 N 
ATOM     23  O   UNL     1       3.157  17.200  17.426  0.00  0.00    +0.000 OA
ATOM     24  O   UNL     1       3.906  17.451  19.473  0.00  0.00    +0.000 OA
ENDBRANCH  19  22
ENDBRANCH   1  16
BRANCH   1  25
ATOM     25  S   UNL     1       1.218  10.333  18.284  0.00  0.00    +0.000 S 
BRANCH  25  30
ATOM     26  C   UNL     1       2.291   4.789  20.608  0.00  0.00    +0.000 C 
ATOM     27  C   UNL     1       2.178   6.187  20.067  0.00  0.00    +0.000 A 
ATOM     28  C   UNL     1       1.574   7.197  20.818  0.00  0.00    +0.000 A 
ATOM     29  C   UNL     1       1.373   8.466  20.262  0.00  0.00    +0.000 A 
ATOM     30  C   UNL     1       1.762   8.760  18.941  0.00  0.00    +0.000 A 
ATOM     31  C   UNL     1       2.389   7.758  18.206  0.00  0.00    +0.000 A 
ATOM     32  C   UNL     1       2.592   6.483  18.760  0.00  0.00    +0.000 A 
ENDBRANCH  25  30
ENDBRANCH   1  25
TORSDOF 6
ENDMDL
MODEL 2
REMARK VINA RESULT:      -7.3      0.589      1.128
REMARK  Name = 
REMARK  7 active torsions:
REMARK  status: ('A' for Active; 'I' for Inactive)
REMARK    1  A    between atoms: C_1  and  C_2
REMARK    2  A    between atoms: C_5  and  S_6
REMARK    3  A    between atoms: S_6  and  C_7
REMARK    4  A    between atoms: C_7  and  C_8
REMARK    5  A    between atoms: C_7  and  C_21
REMARK    6  A    between atoms: C_9  and  O_10
REMARK    7  A    between atoms: C_24  and  N_25
REMARK                            x       y       z     vdW  Elec       q    Type
REMARK                         _______ _______ _______ _____ _____    ______ ____
ROOT
ATOM      1  C   UNL     1       0.829  11.613  19.769  0.00  0.00    +0.000 C 
ENDROOT
BRANCH   1   2
ATOM      2  C   UNL     1      -0.608  11.934  20.176  0.00  0.00    +0.000 C 
ATOM      3  C   UNL     1      -1.580  12.384  19.357  0.00  0.00    +0.000 C 
ATOM      4  C   UNL     1      -3.010  12.373  19.779  0.00  0.00    +0.000 C 
ATOM      5  O   UNL     1      -3.927  12.392  18.965  0.00  0.00    +0.000 OA
ATOM      6  C   UNL     1      -3.284  12.427  21.214  0.00  0.00    +0.000 A 
ATOM      7  C   UNL     1      -4.574  12.750  21.656  0.00  0.00    +0.000 A 
ATOM      8  C   UNL     1      -4.793  13.015  23.004  0.00  0.00    +0.000 A 
ATOM      9  C   UNL     1      -3.728  12.954  23.905  0.00  0.00    +0.000 A 
ATOM     10  C   UNL     1      -2.460  12.553  23.469  0.00  0.00    +0.000 A 
ATOM     11  C   UNL     1      -2.244  12.265  22.117  0.00  0.00    +0.000 A 
ATOM     12  C   UNL     1      -0.919  11.792  21.629  0.00  0.00    +0.000 C 
ATOM     13  O   UNL     1      -0.093  11.367  22.427  0.00  0.00    +0.000 OA
BRANCH   3  14
ATOM     14  O   UNL     1      -1.335  12.845  18.077  0.00  0.00    +0.000 OA
ATOM     15  H   UNL     1      -0.578  12.342  17.726  0.00  0.00    +0.000 HD
ENDBRANCH   3  14
ENDBRANCH   1   2
BRANCH   1  16
ATOM     16  C   UNL     1       1.609  12.917  19.476  0.00  0.00    +0.000 A 
ATOM     17  C   UNL     1       1.638  14.023  20.350  0.00  0.00    +0.000 A 
ATOM     18  C   UNL     1       2.507  15.100  20.137  0.00  0.00    +0.000 A 
ATOM     19  C   UNL     1       3.360  15.087  19.032  0.00  0.00    +0.000 A 
ATOM     20  C   UNL     1       3.295  14.043  18.102  0.00  0.00    +0.000 A 
ATOM     21  C   UNL     1       2.421  12.972  18.325  0.00  0.00    +0.000 A 
BRANCH  19  22
ATOM     22  N   UNL     1       4.370  16.142  18.880  0.00  0.00    +0.000 N 
ATOM     23  O   UNL     1       5.517  15.904  19.288  0.00  0.00    +0.000 OA
ATOM     24  O   UNL     1       4.027  17.195  18.324  0.00  0.00    +0.000 OA
ENDBRANCH  19  22
ENDBRANCH   1  16
BRANCH   1  25
ATOM     25  S   UNL     1       0.874  10.420  18.326  0.00  0.00    +0.000 S 
BRANCH  25  30
ATOM     26  C   UNL     1       2.592   4.935  20.388  0.00  0.00    +0.000 C 
ATOM     27  C   UNL     1       2.318   6.332  19.905  0.00  0.00    +0.000 A 
ATOM     28  C   UNL     1       1.668   7.256  20.724  0.00  0.00    +0.000 A 
ATOM     29  C   UNL     1       1.317   8.517  20.225  0.00  0.00    +0.000 A 
ATOM     30  C   UNL     1       1.599   8.887  18.896  0.00  0.00    +0.000 A 
ATOM     31  C   UNL     1       2.273   7.971  18.091  0.00  0.00    +0.000 A 
ATOM     32  C   UNL     1       2.626   6.706  18.589  0.00  0.00    +0.000 A 
ENDBRANCH  25  30
ENDBRANCH   1  25
TORSDOF 6
ENDMDL
MODEL 3
REMARK VINA RESULT:      -7.3      0.385      1.089
REMARK  Name = 
REMARK  7 active torsions:
REMARK  status: ('A' for Active; 'I' for Inactive)
REMARK    1  A    between atoms: C_1  and  C_2
REMARK    2  A    between atoms: C_5  and  S_6
REMARK    3  A    between atoms: S_6  and  C_7
REMARK    4  A    between atoms: C_7  and  C_8
REMARK    5  A    between atoms: C_7  and  C_21
REMARK    6  A    between atoms: C_9  and  O_10
REMARK    7  A    between atoms: C_24  and  N_25
REMARK                            x       y       z     vdW  Elec       q    Type
REMARK                         _______ _______ _______ _____ _____    ______ ____
ROOT
ATOM      1  C   UNL     1       1.013  11.667  19.681  0.00  0.00    +0.000 C 
ENDROOT
BRANCH   1   2
ATOM      2  C   UNL     1      -0.425  11.965  20.101  0.00  0.00    +0.000 C 
ATOM      3  C   UNL     1      -1.403  12.430  19.296  0.00  0.00    +0.000 C 
ATOM      4  C   UNL     1      -2.831  12.396  19.721  0.00  0.00    +0.000 C 
ATOM      5  O   UNL     1      -3.751  12.430  18.911  0.00  0.00    +0.000 OA
ATOM      6  C   UNL     1      -3.103  12.407  21.158  0.00  0.00    +0.000 A 
ATOM      7  C   UNL     1      -4.394  12.707  21.613  0.00  0.00    +0.000 A 
ATOM      8  C   UNL     1      -4.612  12.932  22.968  0.00  0.00    +0.000 A 
ATOM      9  C   UNL     1      -3.544  12.854  23.864  0.00  0.00    +0.000 A 
ATOM     10  C   UNL     1      -2.273  12.476  23.414  0.00  0.00    +0.000 A 
ATOM     11  C   UNL     1      -2.058  12.228  22.053  0.00  0.00    +0.000 A 
ATOM     12  C   UNL     1      -0.731  11.780  21.550  0.00  0.00    +0.000 C 
ATOM     13  O   UNL     1       0.100  11.339  22.333  0.00  0.00    +0.000 OA
BRANCH   3  14
ATOM     14  O   UNL     1      -1.165  12.929  18.030  0.00  0.00    +0.000 OA
ATOM     15  H   UNL     1      -1.405  12.232  17.392  0.00  0.00    +0.000 HD
ENDBRANCH   3  14
ENDBRANCH   1   2
BRANCH   1  16
ATOM     16  C   UNL     1       1.789  12.985  19.444  0.00  0.00    +0.000 A 
ATOM     17  C   UNL     1       2.420  13.311  18.226  0.00  0.00    +0.000 A 
ATOM     18  C   UNL     1       2.941  14.589  17.993  0.00  0.00    +0.000 A 
ATOM     19  C   UNL     1       2.845  15.563  18.989  0.00  0.00    +0.000 A 
ATOM     20  C   UNL     1       2.300  15.244  20.239  0.00  0.00    +0.000 A 
ATOM     21  C   UNL     1       1.782  13.962  20.460  0.00  0.00    +0.000 A 
BRANCH  19  22
ATOM     22  N   UNL     1       3.262  16.942  18.702  0.00  0.00    +0.000 N 
ATOM     23  O   UNL     1       3.659  17.633  19.652  0.00  0.00    +0.000 OA
ATOM     24  O   UNL     1       3.225  17.323  17.524  0.00  0.00    +0.000 OA
ENDBRANCH  19  22
ENDBRANCH   1  16
BRANCH   1  25
ATOM     25  S   UNL     1       1.063  10.536  18.189  0.00  0.00    +0.000 S 
BRANCH  25  30
ATOM     26  C   UNL     1       3.349   5.160  19.967  0.00  0.00    +0.000 C 
ATOM     27  C   UNL     1       2.647   6.411  19.520  0.00  0.00    +0.000 A 
ATOM     28  C   UNL     1       2.752   6.857  18.202  0.00  0.00    +0.000 A 
ATOM     29  C   UNL     1       2.187   8.081  17.824  0.00  0.00    +0.000 A 
ATOM     30  C   UNL     1       1.509   8.896  18.750  0.00  0.00    +0.000 A 
ATOM     31  C   UNL     1       1.383   8.434  20.058  0.00  0.00    +0.000 A 
ATOM     32  C   UNL     1       1.949   7.206  20.440  0.00  0.00    +0.000 A 
ENDBRANCH  25  30
ENDBRANCH   1  25
TORSDOF 6
ENDMDL
MODEL 4
REMARK VINA RESULT:      -7.3      3.044      5.928
REMARK  Name = 
REMARK  7 active torsions:
REMARK  status: ('A' for Active; 'I' for Inactive)
REMARK    1  A    between atoms: C_1  and  C_2
REMARK    2  A    between atoms: C_5  and  S_6
REMARK    3  A    between atoms: S_6  and  C_7
REMARK    4  A    between atoms: C_7  and  C_8
REMARK    5  A    between atoms: C_7  and  C_21
REMARK    6  A    between atoms: C_9  and  O_10
REMARK    7  A    between atoms: C_24  and  N_25
REMARK                            x       y       z     vdW  Elec       q    Type
REMARK                         _______ _______ _______ _____ _____    ______ ____
ROOT
ATOM      1  C   UNL     1       1.048  10.732  19.225  0.00  0.00    +0.000 C 
ENDROOT
BRANCH   1   2
ATOM      2  C   UNL     1       1.532  12.130  19.606  0.00  0.00    +0.000 C 
ATOM      3  C   UNL     1       1.238  12.784  20.748  0.00  0.00    +0.000 C 
ATOM      4  C   UNL     1       1.997  14.000  21.157  0.00  0.00    +0.000 C 
ATOM      5  O   UNL     1       2.039  14.379  22.322  0.00  0.00    +0.000 OA
ATOM      6  C   UNL     1       2.628  14.784  20.095  0.00  0.00    +0.000 A 
ATOM      7  C   UNL     1       3.064  16.087  20.368  0.00  0.00    +0.000 A 
ATOM      8  C   UNL     1       3.464  16.913  19.322  0.00  0.00    +0.000 A 
ATOM      9  C   UNL     1       3.431  16.434  18.011  0.00  0.00    +0.000 A 
ATOM     10  C   UNL     1       3.071  15.106  17.754  0.00  0.00    +0.000 A 
ATOM     11  C   UNL     1       2.690  14.269  18.809  0.00  0.00    +0.000 A 
ATOM     12  C   UNL     1       2.346  12.840  18.575  0.00  0.00    +0.000 C 
ATOM     13  O   UNL     1       2.670  12.299  17.526  0.00  0.00    +0.000 OA
BRANCH   3  14
ATOM     14  O   UNL     1       0.256  12.366  21.626  0.00  0.00    +0.000 OA
ATOM     15  H   UNL     1       0.385  12.852  22.461  0.00  0.00    +0.000 HD
ENDBRANCH   3  14
ENDBRANCH   1   2
BRANCH   1  16
ATOM     16  C   UNL     1      -0.382  10.799  18.636  0.00  0.00    +0.000 A 
ATOM     17  C   UNL     1      -1.275  11.863  18.875  0.00  0.00    +0.000 A 
ATOM     18  C   UNL     1      -2.480  11.976  18.171  0.00  0.00    +0.000 A 
ATOM     19  C   UNL     1      -2.813  11.012  17.217  0.00  0.00    +0.000 A 
ATOM     20  C   UNL     1      -1.986   9.900  17.020  0.00  0.00    +0.000 A 
ATOM     21  C   UNL     1      -0.784   9.797  17.730  0.00  0.00    +0.000 A 
BRANCH  19  22
ATOM     22  N   UNL     1      -4.003  11.199  16.378  0.00  0.00    +0.000 N 
ATOM     23  O   UNL     1      -4.879  11.977  16.785  0.00  0.00    +0.000 OA
ATOM     24  O   UNL     1      -4.048  10.595  15.297  0.00  0.00    +0.000 OA
ENDBRANCH  19  22
ENDBRANCH   1  16
BRANCH   1  25
ATOM     25  S   UNL     1       1.163   9.556  20.678  0.00  0.00    +0.000 S 
BRANCH  25  30
ATOM     26  C   UNL     1       2.456   3.948  18.638  0.00  0.00    +0.000 C 
ATOM     27  C   UNL     1       2.292   5.344  19.171  0.00  0.00    +0.000 A 
ATOM     28  C   UNL     1       1.791   5.564  20.455  0.00  0.00    +0.000 A 
ATOM     29  C   UNL     1       1.536   6.867  20.900  0.00  0.00    +0.000 A 
ATOM     30  C   UNL     1       1.767   7.984  20.075  0.00  0.00    +0.000 A 
ATOM     31  C   UNL     1       2.293   7.761  18.805  0.00  0.00    +0.000 A 
ATOM     32  C   UNL     1       2.549   6.455  18.355  0.00  0.00    +0.000 A 
ENDBRANCH  25  30
ENDBRANCH   1  25
TORSDOF 6
ENDMDL
MODEL 5
REMARK VINA RESULT:      -7.2      3.446      7.554
REMARK  Name = 
REMARK  7 active torsions:
REMARK  status: ('A' for Active; 'I' for Inactive)
REMARK    1  A    between atoms: C_1  and  C_2
REMARK    2  A    between atoms: C_5  and  S_6
REMARK    3  A    between atoms: S_6  and  C_7
REMARK    4  A    between atoms: C_7  and  C_8
REMARK    5  A    between atoms: C_7  and  C_21
REMARK    6  A    between atoms: C_9  and  O_10
REMARK    7  A    between atoms: C_24  and  N_25
REMARK                            x       y       z     vdW  Elec       q    Type
REMARK                         _______ _______ _______ _____ _____    ______ ____
ROOT
ATOM      1  C   UNL     1       0.333  10.420  20.106  0.00  0.00    +0.000 C 
ENDROOT
BRANCH   1   2
ATOM      2  C   UNL     1       1.166   9.246  19.595  0.00  0.00    +0.000 C 
ATOM      3  C   UNL     1       1.713   9.141  18.367  0.00  0.00    +0.000 C 
ATOM      4  C   UNL     1       2.751   8.113  18.072  0.00  0.00    +0.000 C 
ATOM      5  O   UNL     1       3.533   8.230  17.135  0.00  0.00    +0.000 OA
ATOM      6  C   UNL     1       2.751   6.905  18.897  0.00  0.00    +0.000 A 
ATOM      7  C   UNL     1       3.468   5.779  18.469  0.00  0.00    +0.000 A 
ATOM      8  C   UNL     1       3.301   4.566  19.128  0.00  0.00    +0.000 A 
ATOM      9  C   UNL     1       2.424   4.481  20.212  0.00  0.00    +0.000 A 
ATOM     10  C   UNL     1       1.773   5.627  20.683  0.00  0.00    +0.000 A 
ATOM     11  C   UNL     1       1.958   6.852  20.033  0.00  0.00    +0.000 A 
ATOM     12  C   UNL     1       1.317   8.098  20.537  0.00  0.00    +0.000 C 
ATOM     13  O   UNL     1       0.867   8.134  21.675  0.00  0.00    +0.000 OA
BRANCH   3  14
ATOM     14  O   UNL     1       1.386   9.982  17.320  0.00  0.00    +0.000 OA
ATOM     15  H   UNL     1       2.045   9.841  16.616  0.00  0.00    +0.000 HD
ENDBRANCH   3  14
ENDBRANCH   1   2
BRANCH   1  16
ATOM     16  C   UNL     1      -0.838  10.712  19.136  0.00  0.00    +0.000 A 
ATOM     17  C   UNL     1      -1.020  11.948  18.482  0.00  0.00    +0.000 A 
ATOM     18  C   UNL     1      -1.976  12.105  17.471  0.00  0.00    +0.000 A 
ATOM     19  C   UNL     1      -2.774  11.019  17.105  0.00  0.00    +0.000 A 
ATOM     20  C   UNL     1      -2.673   9.805  17.794  0.00  0.00    +0.000 A 
ATOM     21  C   UNL     1      -1.715   9.660  18.804  0.00  0.00    +0.000 A 
BRANCH  19  22
ATOM     22  N   UNL     1      -3.678  11.136  15.953  0.00  0.00    +0.000 N 
ATOM     23  O   UNL     1      -4.848  11.483  16.173  0.00  0.00    +0.000 OA
ATOM     24  O   UNL     1      -3.211  10.914  14.827  0.00  0.00    +0.000 OA
ENDBRANCH  19  22
ENDBRANCH   1  16
BRANCH   1  25
ATOM     25  S   UNL     1       1.400  11.930  20.404  0.00  0.00    +0.000 S 
BRANCH  25  30
ATOM     26  C   UNL     1      -1.507  15.418  24.487  0.00  0.00    +0.000 C 
ATOM     27  C   UNL     1      -0.885  14.625  23.372  0.00  0.00    +0.000 A 
ATOM     28  C   UNL     1      -1.222  13.285  23.175  0.00  0.00    +0.000 A 
ATOM     29  C   UNL     1      -0.554  12.524  22.207  0.00  0.00    +0.000 A 
ATOM     30  C   UNL     1       0.471  13.077  21.415  0.00  0.00    +0.000 A 
ATOM     31  C   UNL     1       0.784  14.422  21.597  0.00  0.00    +0.000 A 
ATOM     32  C   UNL     1       0.116  15.187  22.567  0.00  0.00    +0.000 A 
ENDBRANCH  25  30
ENDBRANCH   1  25
TORSDOF 6
ENDMDL
MODEL 6
REMARK VINA RESULT:      -7.2      0.590      1.411
REMARK  Name = 
REMARK  7 active torsions:
REMARK  status: ('A' for Active; 'I' for Inactive)
REMARK    1  A    between atoms: C_1  and  C_2
REMARK    2  A    between atoms: C_5  and  S_6
REMARK    3  A    between atoms: S_6  and  C_7
REMARK    4  A    between atoms: C_7  and  C_8
REMARK    5  A    between atoms: C_7  and  C_21
REMARK    6  A    between atoms: C_9  and  O_10
REMARK    7  A    between atoms: C_24  and  N_25
REMARK                            x       y       z     vdW  Elec       q    Type
REMARK                         _______ _______ _______ _____ _____    ______ ____
ROOT
ATOM      1  C   UNL     1       1.104  11.772  19.671  0.00  0.00    +0.000 C 
ENDROOT
BRANCH   1   2
ATOM      2  C   UNL     1      -0.369  12.017  19.995  0.00  0.00    +0.000 C 
ATOM      3  C   UNL     1      -1.321  12.385  19.114  0.00  0.00    +0.000 C 
ATOM      4  C   UNL     1      -2.768  12.300  19.463  0.00  0.00    +0.000 C 
ATOM      5  O   UNL     1      -3.641  12.242  18.604  0.00  0.00    +0.000 OA
ATOM      6  C   UNL     1      -3.120  12.376  20.881  0.00  0.00    +0.000 A 
ATOM      7  C   UNL     1      -4.448  12.632  21.247  0.00  0.00    +0.000 A 
ATOM      8  C   UNL     1      -4.753  12.920  22.574  0.00  0.00    +0.000 A 
ATOM      9  C   UNL     1      -3.734  12.947  23.528  0.00  0.00    +0.000 A 
ATOM     10  C   UNL     1      -2.423  12.612  23.170  0.00  0.00    +0.000 A 
ATOM     11  C   UNL     1      -2.120  12.301  21.839  0.00  0.00    +0.000 A 
ATOM     12  C   UNL     1      -0.747  11.896  21.434  0.00  0.00    +0.000 C 
ATOM     13  O   UNL     1       0.060  11.543  22.285  0.00  0.00    +0.000 OA
BRANCH   3  14
ATOM     14  O   UNL     1      -1.037  12.826  17.836  0.00  0.00    +0.000 OA
ATOM     15  H   UNL     1      -0.403  13.562  17.915  0.00  0.00    +0.000 HD
ENDBRANCH   3  14
ENDBRANCH   1   2
BRANCH   1  16
ATOM     16  C   UNL     1       1.845  13.118  19.484  0.00  0.00    +0.000 A 
ATOM     17  C   UNL     1       2.093  14.025  20.534  0.00  0.00    +0.000 A 
ATOM     18  C   UNL     1       2.930  15.133  20.360  0.00  0.00    +0.000 A 
ATOM     19  C   UNL     1       3.528  15.355  19.118  0.00  0.00    +0.000 A 
ATOM     20  C   UNL     1       3.234  14.519  18.034  0.00  0.00    +0.000 A 
ATOM     21  C   UNL     1       2.394  13.414  18.220  0.00  0.00    +0.000 A 
BRANCH  19  22
ATOM     22  N   UNL     1       4.516  16.431  18.967  0.00  0.00    +0.000 N 
ATOM     23  O   UNL     1       4.197  17.564  19.357  0.00  0.00    +0.000 OA
ATOM     24  O   UNL     1       5.621  16.139  18.489  0.00  0.00    +0.000 OA
ENDBRANCH  19  22
ENDBRANCH   1  16
BRANCH   1  25
ATOM     25  S   UNL     1       1.293  10.647  18.186  0.00  0.00    +0.000 S 
BRANCH  25  30
ATOM     26  C   UNL     1       3.027   5.115  20.103  0.00  0.00    +0.000 C 
ATOM     27  C   UNL     1       2.454   6.417  19.619  0.00  0.00    +0.000 A 
ATOM     28  C   UNL     1       2.633   6.828  18.297  0.00  0.00    +0.000 A 
ATOM     29  C   UNL     1       2.194   8.093  17.886  0.00  0.00    +0.000 A 
ATOM     30  C   UNL     1       1.571   8.983  18.783  0.00  0.00    +0.000 A 
ATOM     31  C   UNL     1       1.370   8.556  20.093  0.00  0.00    +0.000 A 
ATOM     32  C   UNL     1       1.810   7.289  20.509  0.00  0.00    +0.000 A 
ENDBRANCH  25  30
ENDBRANCH   1  25
TORSDOF 6
ENDMDL
MODEL 7
REMARK VINA RESULT:      -7.1      3.474      7.685
REMARK  Name = 
REMARK  7 active torsions:
REMARK  status: ('A' for Active; 'I' for Inactive)
REMARK    1  A    between atoms: C_1  and  C_2
REMARK    2  A    between atoms: C_5  and  S_6
REMARK    3  A    between atoms: S_6  and  C_7
REMARK    4  A    between atoms: C_7  and  C_8
REMARK    5  A    between atoms: C_7  and  C_21
REMARK    6  A    between atoms: C_9  and  O_10
REMARK    7  A    between atoms: C_24  and  N_25
REMARK                            x       y       z     vdW  Elec       q    Type
REMARK                         _______ _______ _______ _____ _____    ______ ____
ROOT
ATOM      1  C   UNL     1       0.762  10.566  19.709  0.00  0.00    +0.000 C 
ENDROOT
BRANCH   1   2
ATOM      2  C   UNL     1       1.450   9.238  19.399  0.00  0.00    +0.000 C 
ATOM      3  C   UNL     1       2.079   8.923  18.249  0.00  0.00    +0.000 C 
ATOM      4  C   UNL     1       2.973   7.734  18.160  0.00  0.00    +0.000 C 
ATOM      5  O   UNL     1       3.841   7.637  17.299  0.00  0.00    +0.000 OA
ATOM      6  C   UNL     1       2.721   6.635  19.092  0.00  0.00    +0.000 A 
ATOM      7  C   UNL     1       3.294   5.380  18.848  0.00  0.00    +0.000 A 
ATOM      8  C   UNL     1       2.891   4.281  19.599  0.00  0.00    +0.000 A 
ATOM      9  C   UNL     1       1.922   4.439  20.592  0.00  0.00    +0.000 A 
ATOM     10  C   UNL     1       1.411   5.709  20.883  0.00  0.00    +0.000 A 
ATOM     11  C   UNL     1       1.834   6.819  20.142  0.00  0.00    +0.000 A 
ATOM     12  C   UNL     1       1.345   8.189  20.457  0.00  0.00    +0.000 C 
ATOM     13  O   UNL     1       0.810   8.412  21.535  0.00  0.00    +0.000 OA
BRANCH   3  14
ATOM     14  O   UNL     1       1.973   9.682  17.099  0.00  0.00    +0.000 OA
ATOM     15  H   UNL     1       2.874   9.955  16.845  0.00  0.00    +0.000 HD
ENDBRANCH   3  14
ENDBRANCH   1   2
BRANCH   1  16
ATOM     16  C   UNL     1      -0.624  10.626  19.023  0.00  0.00    +0.000 A 
ATOM     17  C   UNL     1      -1.668  11.476  19.444  0.00  0.00    +0.000 A 
ATOM     18  C   UNL     1      -2.830  11.638  18.682  0.00  0.00    +0.000 A 
ATOM     19  C   UNL     1      -2.969  10.938  17.481  0.00  0.00    +0.000 A 
ATOM     20  C   UNL     1      -1.987  10.024  17.080  0.00  0.00    +0.000 A 
ATOM     21  C   UNL     1      -0.829   9.870  17.851  0.00  0.00    +0.000 A 
BRANCH  19  22
ATOM     22  N   UNL     1      -4.119  11.209  16.609  0.00  0.00    +0.000 N 
ATOM     23  O   UNL     1      -4.132  10.674  15.490  0.00  0.00    +0.000 OA
ATOM     24  O   UNL     1      -5.024  11.929  17.054  0.00  0.00    +0.000 OA
ENDBRANCH  19  22
ENDBRANCH   1  16
BRANCH   1  25
ATOM     25  S   UNL     1       1.848  12.018  19.242  0.00  0.00    +0.000 S 
BRANCH  25  30
ATOM     26  C   UNL     1      -1.646  16.840  20.590  0.00  0.00    +0.000 C 
ATOM     27  C   UNL     1      -0.662  15.744  20.294  0.00  0.00    +0.000 A 
ATOM     28  C   UNL     1      -0.321  15.425  18.979  0.00  0.00    +0.000 A 
ATOM     29  C   UNL     1       0.509  14.330  18.710  0.00  0.00    +0.000 A 
ATOM     30  C   UNL     1       1.016  13.520  19.744  0.00  0.00    +0.000 A 
ATOM     31  C   UNL     1       0.695  13.858  21.056  0.00  0.00    +0.000 A 
ATOM     32  C   UNL     1      -0.137  14.956  21.329  0.00  0.00    +0.000 A 
ENDBRANCH  25  30
ENDBRANCH   1  25
TORSDOF 6
ENDMDL
MODEL 8
REMARK VINA RESULT:      -7.1      2.021      6.073
REMARK  Name = 
REMARK  7 active torsions:
REMARK  status: ('A' for Active; 'I' for Inactive)
REMARK    1  A    between atoms: C_1  and  C_2
REMARK    2  A    between atoms: C_5  and  S_6
REMARK    3  A    between atoms: S_6  and  C_7
REMARK    4  A    between atoms: C_7  and  C_8
REMARK    5  A    between atoms: C_7  and  C_21
REMARK    6  A    between atoms: C_9  and  O_10
REMARK    7  A    between atoms: C_24  and  N_25
REMARK                            x       y       z     vdW  Elec       q    Type
REMARK                         _______ _______ _______ _____ _____    ______ ____
ROOT
ATOM      1  C   UNL     1      -1.315  13.466  20.010  0.00  0.00    +0.000 C 
ENDROOT
BRANCH   1   2
ATOM      2  C   UNL     1      -0.645  12.166  20.450  0.00  0.00    +0.000 C 
ATOM      3  C   UNL     1      -0.257  11.863  21.705  0.00  0.00    +0.000 C 
ATOM      4  C   UNL     1       0.102  10.467  22.085  0.00  0.00    +0.000 C 
ATOM      5  O   UNL     1       0.073  10.083  23.249  0.00  0.00    +0.000 OA
ATOM      6  C   UNL     1       0.577   9.584  21.020  0.00  0.00    +0.000 A 
ATOM      7  C   UNL     1       1.232   8.392  21.355  0.00  0.00    +0.000 A 
ATOM      8  C   UNL     1       1.874   7.657  20.364  0.00  0.00    +0.000 A 
ATOM      9  C   UNL     1       1.858   8.112  19.044  0.00  0.00    +0.000 A 
ATOM     10  C   UNL     1       1.135   9.262  18.703  0.00  0.00    +0.000 A 
ATOM     11  C   UNL     1       0.470   9.989  19.697  0.00  0.00    +0.000 A 
ATOM     12  C   UNL     1      -0.344  11.189  19.362  0.00  0.00    +0.000 C 
ATOM     13  O   UNL     1      -0.689  11.387  18.204  0.00  0.00    +0.000 OA
BRANCH   3  14
ATOM     14  O   UNL     1      -0.197  12.796  22.723  0.00  0.00    +0.000 OA
ATOM     15  H   UNL     1       0.289  13.569  22.381  0.00  0.00    +0.000 HD
ENDBRANCH   3  14
ENDBRANCH   1   2
BRANCH   1  16
ATOM     16  C   UNL     1      -0.249  14.503  19.582  0.00  0.00    +0.000 A 
ATOM     17  C   UNL     1       1.113  14.191  19.395  0.00  0.00    +0.000 A 
ATOM     18  C   UNL     1       2.001  15.110  18.824  0.00  0.00    +0.000 A 
ATOM     19  C   UNL     1       1.535  16.369  18.438  0.00  0.00    +0.000 A 
ATOM     20  C   UNL     1       0.207  16.737  18.688  0.00  0.00    +0.000 A 
ATOM     21  C   UNL     1      -0.671  15.809  19.260  0.00  0.00    +0.000 A 
BRANCH  19  22
ATOM     22  N   UNL     1       2.425  17.284  17.712  0.00  0.00    +0.000 N 
ATOM     23  O   UNL     1       3.641  17.206  17.940  0.00  0.00    +0.000 OA
ATOM     24  O   UNL     1       1.913  18.057  16.890  0.00  0.00    +0.000 OA
ENDBRANCH  19  22
ENDBRANCH   1  16
BRANCH   1  25
ATOM     25  S   UNL     1      -2.453  14.127  21.342  0.00  0.00    +0.000 S 
BRANCH  25  30
ATOM     26  C   UNL     1      -7.596  10.959  20.448  0.00  0.00    +0.000 C 
ATOM     27  C   UNL     1      -6.414  11.868  20.634  0.00  0.00    +0.000 A 
ATOM     28  C   UNL     1      -5.434  11.977  19.646  0.00  0.00    +0.000 A 
ATOM     29  C   UNL     1      -4.282  12.739  19.875  0.00  0.00    +0.000 A 
ATOM     30  C   UNL     1      -4.072  13.406  21.097  0.00  0.00    +0.000 A 
ATOM     31  C   UNL     1      -5.066  13.317  22.069  0.00  0.00    +0.000 A 
ATOM     32  C   UNL     1      -6.223  12.553  21.842  0.00  0.00    +0.000 A 
ENDBRANCH  25  30
ENDBRANCH   1  25
TORSDOF 6
ENDMDL
MODEL 9
REMARK VINA RESULT:      -7.1      1.072      1.389
REMARK  Name = 
REMARK  7 active torsions:
REMARK  status: ('A' for Active; 'I' for Inactive)
REMARK    1  A    between atoms: C_1  and  C_2
REMARK    2  A    between atoms: C_5  and  S_6
REMARK    3  A    between atoms: S_6  and  C_7
REMARK    4  A    between atoms: C_7  and  C_8
REMARK    5  A    between atoms: C_7  and  C_21
REMARK    6  A    between atoms: C_9  and  O_10
REMARK    7  A    between atoms: C_24  and  N_25
REMARK                            x       y       z     vdW  Elec       q    Type
REMARK                         _______ _______ _______ _____ _____    ______ ____
ROOT
ATOM      1  C   UNL     1       0.177  11.815  19.786  0.00  0.00    +0.000 C 
ENDROOT
BRANCH   1   2
ATOM      2  C   UNL     1      -1.148  12.227  20.425  0.00  0.00    +0.000 C 
ATOM      3  C   UNL     1      -2.305  12.454  19.771  0.00  0.00    +0.000 C 
ATOM      4  C   UNL     1      -3.599  12.549  20.504  0.00  0.00    +0.000 C 
ATOM      5  O   UNL     1      -4.676  12.360  19.948  0.00  0.00    +0.000 OA
ATOM      6  C   UNL     1      -3.546  12.963  21.906  0.00  0.00    +0.000 A 
ATOM      7  C   UNL     1      -4.720  13.385  22.543  0.00  0.00    +0.000 A 
ATOM      8  C   UNL     1      -4.645  13.982  23.798  0.00  0.00    +0.000 A 
ATOM      9  C   UNL     1      -3.403  14.150  24.412  0.00  0.00    +0.000 A 
ATOM     10  C   UNL     1      -2.243  13.654  23.804  0.00  0.00    +0.000 A 
ATOM     11  C   UNL     1      -2.321  13.034  22.552  0.00  0.00    +0.000 A 
ATOM     12  C   UNL     1      -1.115  12.456  21.900  0.00  0.00    +0.000 C 
ATOM     13  O   UNL     1      -0.106  12.246  22.562  0.00  0.00    +0.000 OA
BRANCH   3  14
ATOM     14  O   UNL     1      -2.383  12.578  18.397  0.00  0.00    +0.000 OA
ATOM     15  H   UNL     1      -2.612  13.505  18.200  0.00  0.00    +0.000 HD
ENDBRANCH   3  14
ENDBRANCH   1   2
BRANCH   1  16
ATOM     16  C   UNL     1       0.902  13.053  19.206  0.00  0.00    +0.000 A 
ATOM     17  C   UNL     1       0.440  14.375  19.368  0.00  0.00    +0.000 A 
ATOM     18  C   UNL     1       1.225  15.473  18.995  0.00  0.00    +0.000 A 
ATOM     19  C   UNL     1       2.489  15.260  18.443  0.00  0.00    +0.000 A 
ATOM     20  C   UNL     1       2.939  13.958  18.193  0.00  0.00    +0.000 A 
ATOM     21  C   UNL     1       2.146  12.867  18.569  0.00  0.00    +0.000 A 
BRANCH  19  22
ATOM     22  N   UNL     1       3.372  16.403  18.181  0.00  0.00    +0.000 N 
ATOM     23  O   UNL     1       2.842  17.484  17.884  0.00  0.00    +0.000 OA
ATOM     24  O   UNL     1       4.593  16.231  18.304  0.00  0.00    +0.000 OA
ENDBRANCH  19  22
ENDBRANCH   1  16
BRANCH   1  25
ATOM     25  S   UNL     1      -0.078  10.476  18.501  0.00  0.00    +0.000 S 
BRANCH  25  30
ATOM     26  C   UNL     1       3.454   5.625  19.632  0.00  0.00    +0.000 C 
ATOM     27  C   UNL     1       2.715   6.907  19.367  0.00  0.00    +0.000 A 
ATOM     28  C   UNL     1       1.948   7.508  20.365  0.00  0.00    +0.000 A 
ATOM     29  C   UNL     1       1.174   8.639  20.076  0.00  0.00    +0.000 A 
ATOM     30  C   UNL     1       1.140   9.197  18.783  0.00  0.00    +0.000 A 
ATOM     31  C   UNL     1       1.929   8.609  17.798  0.00  0.00    +0.000 A 
ATOM     32  C   UNL     1       2.706   7.475  18.084  0.00  0.00    +0.000 A 
ENDBRANCH  25  30
ENDBRANCH   1  25
TORSDOF 6
ENDMDL
