MODEL 1
REMARK VINA RESULT:      -7.3      0.000      0.000
REMARK  Name = 
REMARK  16 active torsions:
REMARK  status: ('A' for Active; 'I' for Inactive)
REMARK    1  A    between atoms: C_1  and  C_2
REMARK    2  A    between atoms: C_2  and  C_3
REMARK    3  A    between atoms: C_3  and  C_4
REMARK    4  A    between atoms: C_4  and  C_5
REMARK    5  A    between atoms: C_5  and  C_6
REMARK    6  A    between atoms: C_6  and  C_7
REMARK    7  A    between atoms: C_6  and  C_12
REMARK    8  A    between atoms: C_7  and  N_8
REMARK    9  A    between atoms: N_8  and  O_9
REMARK   10  A    between atoms: N_14  and  C_15
REMARK   11  A    between atoms: C_15  and  N_16
REMARK   12  A    between atoms: C_17  and  C_19
REMARK   13  A    between atoms: C_22  and  C_23
REMARK   14  A    between atoms: C_27  and  C_28
REMARK   15  A    between atoms: C_28  and  O_30
REMARK   16  A    between atoms: O_30  and  C_31
REMARK                            x       y       z     vdW  Elec       q    Type
REMARK                         _______ _______ _______ _____ _____    ______ ____
ROOT
ATOM      1  N   UNL     1       3.311   5.920  20.043  0.00  0.00    +0.000 N 
ATOM      2  C   UNL     1       2.543   6.692  19.189  0.00  0.00    +0.000 C 
ATOM      3  O   UNL     1       2.506   6.484  17.980  0.00  0.00    +0.000 OA
ATOM      4  H   UNL     1       3.167   6.039  21.035  0.00  0.00    +0.000 HD
ENDROOT
BRANCH   2   5
ATOM      5  C   UNL     1       1.796   7.762  19.825  0.00  0.00    +0.000 A 
ATOM      6  C   UNL     1       1.253   7.842  21.093  0.00  0.00    +0.000 A 
ATOM      7  C   UNL     1       0.622   9.103  21.188  0.00  0.00    +0.000 A 
ATOM      8  C   UNL     1       0.817   9.743  19.980  0.00  0.00    +0.000 A 
ATOM      9  O   UNL     1       1.528   8.921  19.142  0.00  0.00    +0.000 OA
BRANCH   8  10
ATOM     10  C   UNL     1       0.450  11.060  19.461  0.00  0.00    +0.000 A 
ATOM     11  C   UNL     1      -0.767  11.238  18.783  0.00  0.00    +0.000 A 
ATOM     12  C   UNL     1      -1.154  12.494  18.308  0.00  0.00    +0.000 A 
ATOM     13  C   UNL     1      -0.323  13.596  18.503  0.00  0.00    +0.000 A 
ATOM     14  C   UNL     1       0.900  13.443  19.168  0.00  0.00    +0.000 A 
ATOM     15  C   UNL     1       1.281  12.177  19.642  0.00  0.00    +0.000 A 
BRANCH  14  16
ATOM     16  C   UNL     1       1.751  14.653  19.339  0.00  0.00    +0.000 C 
ATOM     17  O   UNL     1       2.006  15.431  18.436  0.00  0.00    +0.000 OA
BRANCH  16  18
ATOM     18  O   UNL     1       2.197  14.754  20.618  0.00  0.00    +0.000 OA
ATOM     19  C   UNL     1       2.085  16.071  21.161  0.00  0.00    +0.000 C 
ENDBRANCH  16  18
ENDBRANCH  14  16
ENDBRANCH   8  10
ENDBRANCH   2   5
BRANCH   1  20
ATOM     20  C   UNL     1       4.020   4.796  19.518  0.00  0.00    +0.000 C 
BRANCH  20  23
ATOM     21  C   UNL     1       6.251   5.464  18.852  0.00  0.00    +0.000 C 
ATOM     22  O   UNL     1       6.628   5.397  20.022  0.00  0.00    +0.000 OA
ATOM     23  N   UNL     1       4.955   5.158  18.491  0.00  0.00    +0.000 N 
ATOM     24  H   UNL     1       4.626   5.285  17.548  0.00  0.00    +0.000 HD
BRANCH  21  25
ATOM     25  C   UNL     1       7.187   5.893  17.720  0.00  0.00    +0.000 C 
BRANCH  25  26
ATOM     26  C   UNL     1       8.070   7.110  18.114  0.00  0.00    +0.000 C 
BRANCH  26  27
ATOM     27  C   UNL     1       7.493   8.456  17.647  0.00  0.00    +0.000 C 
BRANCH  27  28
ATOM     28  C   UNL     1       8.499   9.609  17.771  0.00  0.00    +0.000 C 
BRANCH  28  30
ATOM     29  C   UNL     1       9.560  11.067  19.555  0.00  0.00    +0.000 C 
ATOM     30  C   UNL     1       9.067   9.674  19.193  0.00  0.00    +0.000 C 
ENDBRANCH  28  30
ENDBRANCH  27  28
ENDBRANCH  26  27
ENDBRANCH  25  26
BRANCH  25  31
ATOM     31  C   UNL     1       6.363   6.185  16.452  0.00  0.00    +0.000 C 
BRANCH  31  32
ATOM     32  N   UNL     1       6.650   5.261  15.360  0.00  0.00    +0.000 N 
ATOM     33  C   UNL     1       6.211   3.961  15.323  0.00  0.00    +0.000 C 
ATOM     34  O   UNL     1       5.360   3.476  16.062  0.00  0.00    +0.000 OA
BRANCH  32  35
ATOM     35  O   UNL     1       7.860   5.525  14.688  0.00  0.00    +0.000 OA
ATOM     36  H   UNL     1       8.471   4.901  15.125  0.00  0.00    +0.000 HD
ENDBRANCH  32  35
ENDBRANCH  31  32
ENDBRANCH  25  31
ENDBRANCH  21  25
ENDBRANCH  20  23
ENDBRANCH   1  20
TORSDOF 14
ENDMDL
MODEL 2
REMARK VINA RESULT:      -7.3      4.561      6.927
REMARK  Name = 
REMARK  16 active torsions:
REMARK  status: ('A' for Active; 'I' for Inactive)
REMARK    1  A    between atoms: C_1  and  C_2
REMARK    2  A    between atoms: C_2  and  C_3
REMARK    3  A    between atoms: C_3  and  C_4
REMARK    4  A    between atoms: C_4  and  C_5
REMARK    5  A    between atoms: C_5  and  C_6
REMARK    6  A    between atoms: C_6  and  C_7
REMARK    7  A    between atoms: C_6  and  C_12
REMARK    8  A    between atoms: C_7  and  N_8
REMARK    9  A    between atoms: N_8  and  O_9
REMARK   10  A    between atoms: N_14  and  C_15
REMARK   11  A    between atoms: C_15  and  N_16
REMARK   12  A    between atoms: C_17  and  C_19
REMARK   13  A    between atoms: C_22  and  C_23
REMARK   14  A    between atoms: C_27  and  C_28
REMARK   15  A    between atoms: C_28  and  O_30
REMARK   16  A    between atoms: O_30  and  C_31
REMARK                            x       y       z     vdW  Elec       q    Type
REMARK                         _______ _______ _______ _____ _____    ______ ____
ROOT
ATOM      1  N   UNL     1       0.315   9.962  17.539  0.00  0.00    +0.000 N 
ATOM      2  C   UNL     1      -0.735  10.310  18.370  0.00  0.00    +0.000 C 
ATOM      3  O   UNL     1      -0.618  10.329  19.591  0.00  0.00    +0.000 OA
ATOM      4  H   UNL     1       0.200  10.127  16.550  0.00  0.00    +0.000 HD
ENDROOT
BRANCH   2   5
ATOM      5  C   UNL     1      -1.976  10.641  17.694  0.00  0.00    +0.000 A 
ATOM      6  C   UNL     1      -2.326  10.528  16.363  0.00  0.00    +0.000 A 
ATOM      7  C   UNL     1      -3.653  11.003  16.247  0.00  0.00    +0.000 A 
ATOM      8  C   UNL     1      -4.059  11.373  17.515  0.00  0.00    +0.000 A 
ATOM      9  O   UNL     1      -3.032  11.160  18.400  0.00  0.00    +0.000 OA
BRANCH   8  10
ATOM     10  C   UNL     1      -5.308  11.898  18.064  0.00  0.00    +0.000 A 
ATOM     11  C   UNL     1      -6.114  12.754  17.295  0.00  0.00    +0.000 A 
ATOM     12  C   UNL     1      -7.327  13.241  17.786  0.00  0.00    +0.000 A 
ATOM     13  C   UNL     1      -7.754  12.880  19.063  0.00  0.00    +0.000 A 
ATOM     14  C   UNL     1      -6.965  12.036  19.853  0.00  0.00    +0.000 A 
ATOM     15  C   UNL     1      -5.746  11.550  19.351  0.00  0.00    +0.000 A 
BRANCH  14  16
ATOM     16  C   UNL     1      -7.467  11.691  21.213  0.00  0.00    +0.000 C 
ATOM     17  O   UNL     1      -7.772  10.561  21.553  0.00  0.00    +0.000 OA
BRANCH  16  18
ATOM     18  O   UNL     1      -7.539  12.798  21.997  0.00  0.00    +0.000 OA
ATOM     19  C   UNL     1      -7.803  12.510  23.371  0.00  0.00    +0.000 C 
ENDBRANCH  16  18
ENDBRANCH  14  16
ENDBRANCH   8  10
ENDBRANCH   2   5
BRANCH   1  20
ATOM     20  C   UNL     1       1.598   9.695  18.110  0.00  0.00    +0.000 C 
BRANCH  20  23
ATOM     21  C   UNL     1       2.296   7.436  18.636  0.00  0.00    +0.000 C 
ATOM     22  O   UNL     1       1.950   7.596  19.807  0.00  0.00    +0.000 OA
ATOM     23  N   UNL     1       2.139   8.433  17.694  0.00  0.00    +0.000 N 
ATOM     24  H   UNL     1       2.490   8.331  16.756  0.00  0.00    +0.000 HD
BRANCH  21  25
ATOM     25  C   UNL     1       2.926   6.131  18.145  0.00  0.00    +0.000 C 
BRANCH  25  26
ATOM     26  C   UNL     1       1.989   4.909  18.354  0.00  0.00    +0.000 C 
BRANCH  26  27
ATOM     27  C   UNL     1       2.701   3.559  18.166  0.00  0.00    +0.000 C 
BRANCH  27  28
ATOM     28  C   UNL     1       1.949   2.394  18.824  0.00  0.00    +0.000 C 
BRANCH  28  30
ATOM     29  C   UNL     1       1.436   2.701  21.289  0.00  0.00    +0.000 C 
ATOM     30  C   UNL     1       0.952   2.918  19.863  0.00  0.00    +0.000 C 
ENDBRANCH  28  30
ENDBRANCH  27  28
ENDBRANCH  26  27
ENDBRANCH  25  26
BRANCH  25  31
ATOM     31  C   UNL     1       4.285   5.922  18.838  0.00  0.00    +0.000 C 
BRANCH  31  32
ATOM     32  N   UNL     1       5.411   5.959  17.910  0.00  0.00    +0.000 N 
ATOM     33  C   UNL     1       6.570   5.245  18.086  0.00  0.00    +0.000 C 
ATOM     34  O   UNL     1       6.731   4.338  18.895  0.00  0.00    +0.000 OA
BRANCH  32  35
ATOM     35  O   UNL     1       5.530   7.170  17.202  0.00  0.00    +0.000 OA
ATOM     36  H   UNL     1       6.410   7.482  17.487  0.00  0.00    +0.000 HD
ENDBRANCH  32  35
ENDBRANCH  31  32
ENDBRANCH  25  31
ENDBRANCH  21  25
ENDBRANCH  20  23
ENDBRANCH   1  20
TORSDOF 14
ENDMDL
MODEL 3
REMARK VINA RESULT:      -7.2      4.542      7.314
REMARK  Name = 
REMARK  16 active torsions:
REMARK  status: ('A' for Active; 'I' for Inactive)
REMARK    1  A    between atoms: C_1  and  C_2
REMARK    2  A    between atoms: C_2  and  C_3
REMARK    3  A    between atoms: C_3  and  C_4
REMARK    4  A    between atoms: C_4  and  C_5
REMARK    5  A    between atoms: C_5  and  C_6
REMARK    6  A    between atoms: C_6  and  C_7
REMARK    7  A    between atoms: C_6  and  C_12
REMARK    8  A    between atoms: C_7  and  N_8
REMARK    9  A    between atoms: N_8  and  O_9
REMARK   10  A    between atoms: N_14  and  C_15
REMARK   11  A    between atoms: C_15  and  N_16
REMARK   12  A    between atoms: C_17  and  C_19
REMARK   13  A    between atoms: C_22  and  C_23
REMARK   14  A    between atoms: C_27  and  C_28
REMARK   15  A    between atoms: C_28  and  O_30
REMARK   16  A    between atoms: O_30  and  C_31
REMARK                            x       y       z     vdW  Elec       q    Type
REMARK                         _______ _______ _______ _____ _____    ______ ____
ROOT
ATOM      1  N   UNL     1       8.573   7.519  19.088  0.00  0.00    +0.000 N 
ATOM      2  C   UNL     1       8.354   8.531  18.170  0.00  0.00    +0.000 C 
ATOM      3  O   UNL     1       7.753   8.335  17.118  0.00  0.00    +0.000 OA
ATOM      4  H   UNL     1       8.923   7.783  19.998  0.00  0.00    +0.000 HD
ENDROOT
BRANCH   2   5
ATOM      5  C   UNL     1       8.889   9.828  18.539  0.00  0.00    +0.000 A 
ATOM      6  C   UNL     1       9.651  10.720  17.810  0.00  0.00    +0.000 A 
ATOM      7  C   UNL     1       9.907  11.824  18.655  0.00  0.00    +0.000 A 
ATOM      8  C   UNL     1       9.280  11.564  19.858  0.00  0.00    +0.000 A 
ATOM      9  O   UNL     1       8.664  10.339  19.792  0.00  0.00    +0.000 OA
BRANCH   8  10
ATOM     10  C   UNL     1       9.139  12.309  21.109  0.00  0.00    +0.000 A 
ATOM     11  C   UNL     1       9.618  13.625  21.205  0.00  0.00    +0.000 A 
ATOM     12  C   UNL     1       9.465  14.368  22.378  0.00  0.00    +0.000 A 
ATOM     13  C   UNL     1       8.828  13.800  23.480  0.00  0.00    +0.000 A 
ATOM     14  C   UNL     1       8.349  12.487  23.413  0.00  0.00    +0.000 A 
ATOM     15  C   UNL     1       8.507  11.747  22.229  0.00  0.00    +0.000 A 
BRANCH  14  16
ATOM     16  C   UNL     1       7.686  11.929  24.625  0.00  0.00    +0.000 C 
ATOM     17  O   UNL     1       6.796  11.097  24.583  0.00  0.00    +0.000 OA
BRANCH  16  18
ATOM     18  O   UNL     1       8.202  12.478  25.755  0.00  0.00    +0.000 OA
ATOM     19  C   UNL     1       7.263  12.569  26.828  0.00  0.00    +0.000 C 
ENDBRANCH  16  18
ENDBRANCH  14  16
ENDBRANCH   8  10
ENDBRANCH   2   5
BRANCH   1  20
ATOM     20  C   UNL     1       8.015   6.225  18.848  0.00  0.00    +0.000 C 
BRANCH  20  23
ATOM     21  C   UNL     1       5.832   5.236  18.495  0.00  0.00    +0.000 C 
ATOM     22  O   UNL     1       6.146   4.277  19.199  0.00  0.00    +0.000 OA
ATOM     23  N   UNL     1       6.701   6.285  18.273  0.00  0.00    +0.000 N 
ATOM     24  H   UNL     1       6.474   7.032  17.638  0.00  0.00    +0.000 HD
BRANCH  21  25
ATOM     25  C   UNL     1       4.465   5.332  17.814  0.00  0.00    +0.000 C 
BRANCH  25  26
ATOM     26  C   UNL     1       3.323   4.760  18.699  0.00  0.00    +0.000 C 
BRANCH  26  27
ATOM     27  C   UNL     1       2.560   5.842  19.480  0.00  0.00    +0.000 C 
BRANCH  27  28
ATOM     28  C   UNL     1       1.758   5.271  20.658  0.00  0.00    +0.000 C 
BRANCH  28  30
ATOM     29  C   UNL     1       1.342   2.832  21.216  0.00  0.00    +0.000 C 
ATOM     30  C   UNL     1       1.057   3.970  20.249  0.00  0.00    +0.000 C 
ENDBRANCH  28  30
ENDBRANCH  27  28
ENDBRANCH  26  27
ENDBRANCH  25  26
BRANCH  25  31
ATOM     31  C   UNL     1       4.520   4.629  16.445  0.00  0.00    +0.000 C 
BRANCH  31  32
ATOM     32  N   UNL     1       5.220   5.410  15.430  0.00  0.00    +0.000 N 
ATOM     33  C   UNL     1       6.223   4.910  14.638  0.00  0.00    +0.000 C 
ATOM     34  O   UNL     1       6.510   3.724  14.517  0.00  0.00    +0.000 OA
BRANCH  32  35
ATOM     35  O   UNL     1       5.279   6.789  15.708  0.00  0.00    +0.000 OA
ATOM     36  H   UNL     1       4.430   7.103  15.341  0.00  0.00    +0.000 HD
ENDBRANCH  32  35
ENDBRANCH  31  32
ENDBRANCH  25  31
ENDBRANCH  21  25
ENDBRANCH  20  23
ENDBRANCH   1  20
TORSDOF 14
ENDMDL
MODEL 4
REMARK VINA RESULT:      -7.1      3.292      5.683
REMARK  Name = 
REMARK  16 active torsions:
REMARK  status: ('A' for Active; 'I' for Inactive)
REMARK    1  A    between atoms: C_1  and  C_2
REMARK    2  A    between atoms: C_2  and  C_3
REMARK    3  A    between atoms: C_3  and  C_4
REMARK    4  A    between atoms: C_4  and  C_5
REMARK    5  A    between atoms: C_5  and  C_6
REMARK    6  A    between atoms: C_6  and  C_7
REMARK    7  A    between atoms: C_6  and  C_12
REMARK    8  A    between atoms: C_7  and  N_8
REMARK    9  A    between atoms: N_8  and  O_9
REMARK   10  A    between atoms: N_14  and  C_15
REMARK   11  A    between atoms: C_15  and  N_16
REMARK   12  A    between atoms: C_17  and  C_19
REMARK   13  A    between atoms: C_22  and  C_23
REMARK   14  A    between atoms: C_27  and  C_28
REMARK   15  A    between atoms: C_28  and  O_30
REMARK   16  A    between atoms: O_30  and  C_31
REMARK                            x       y       z     vdW  Elec       q    Type
REMARK                         _______ _______ _______ _____ _____    ______ ____
ROOT
ATOM      1  N   UNL     1       2.108   7.325  19.562  0.00  0.00    +0.000 N 
ATOM      2  C   UNL     1       2.201   8.375  18.665  0.00  0.00    +0.000 C 
ATOM      3  O   UNL     1       3.110   8.450  17.844  0.00  0.00    +0.000 OA
ATOM      4  H   UNL     1       1.253   7.240  20.091  0.00  0.00    +0.000 HD
ENDROOT
BRANCH   2   5
ATOM      5  C   UNL     1       1.155   9.375  18.772  0.00  0.00    +0.000 A 
ATOM      6  C   UNL     1       1.016  10.431  19.652  0.00  0.00    +0.000 A 
ATOM      7  C   UNL     1      -0.194  11.083  19.318  0.00  0.00    +0.000 A 
ATOM      8  C   UNL     1      -0.733  10.405  18.243  0.00  0.00    +0.000 A 
ATOM      9  O   UNL     1       0.086   9.355  17.912  0.00  0.00    +0.000 OA
BRANCH   8  10
ATOM     10  C   UNL     1      -1.930  10.593  17.424  0.00  0.00    +0.000 A 
ATOM     11  C   UNL     1      -3.037  11.288  17.939  0.00  0.00    +0.000 A 
ATOM     12  C   UNL     1      -4.177  11.510  17.164  0.00  0.00    +0.000 A 
ATOM     13  C   UNL     1      -4.231  11.033  15.855  0.00  0.00    +0.000 A 
ATOM     14  C   UNL     1      -3.145  10.329  15.321  0.00  0.00    +0.000 A 
ATOM     15  C   UNL     1      -2.001  10.112  16.107  0.00  0.00    +0.000 A 
BRANCH  14  16
ATOM     16  C   UNL     1      -3.261   9.836  13.921  0.00  0.00    +0.000 C 
ATOM     17  O   UNL     1      -2.302   9.553  13.224  0.00  0.00    +0.000 OA
BRANCH  16  18
ATOM     18  O   UNL     1      -4.563   9.756  13.542  0.00  0.00    +0.000 OA
ATOM     19  C   UNL     1      -4.748   9.741  12.126  0.00  0.00    +0.000 C 
ENDBRANCH  16  18
ENDBRANCH  14  16
ENDBRANCH   8  10
ENDBRANCH   2   5
BRANCH   1  20
ATOM     20  C   UNL     1       3.049   6.252  19.481  0.00  0.00    +0.000 C 
BRANCH  20  23
ATOM     21  C   UNL     1       4.620   5.180  17.982  0.00  0.00    +0.000 C 
ATOM     22  O   UNL     1       4.790   4.274  18.798  0.00  0.00    +0.000 OA
ATOM     23  N   UNL     1       3.743   6.216  18.225  0.00  0.00    +0.000 N 
ATOM     24  H   UNL     1       3.659   6.996  17.593  0.00  0.00    +0.000 HD
BRANCH  21  25
ATOM     25  C   UNL     1       5.370   5.224  16.649  0.00  0.00    +0.000 C 
BRANCH  25  26
ATOM     26  C   UNL     1       4.960   4.060  15.703  0.00  0.00    +0.000 C 
BRANCH  26  27
ATOM     27  C   UNL     1       6.111   3.568  14.811  0.00  0.00    +0.000 C 
BRANCH  27  28
ATOM     28  C   UNL     1       6.174   4.300  13.463  0.00  0.00    +0.000 C 
BRANCH  28  30
ATOM     29  C   UNL     1       4.640   3.296  11.711  0.00  0.00    +0.000 C 
ATOM     30  C   UNL     1       6.040   3.304  12.306  0.00  0.00    +0.000 C 
ENDBRANCH  28  30
ENDBRANCH  27  28
ENDBRANCH  26  27
ENDBRANCH  25  26
BRANCH  25  31
ATOM     31  C   UNL     1       6.887   5.227  16.910  0.00  0.00    +0.000 C 
BRANCH  31  32
ATOM     32  N   UNL     1       7.264   6.018  18.077  0.00  0.00    +0.000 N 
ATOM     33  C   UNL     1       7.761   7.295  18.007  0.00  0.00    +0.000 C 
ATOM     34  O   UNL     1       7.750   8.010  17.010  0.00  0.00    +0.000 OA
BRANCH  32  35
ATOM     35  O   UNL     1       7.685   5.248  19.179  0.00  0.00    +0.000 OA
ATOM     36  H   UNL     1       6.893   4.706  19.358  0.00  0.00    +0.000 HD
ENDBRANCH  32  35
ENDBRANCH  31  32
ENDBRANCH  25  31
ENDBRANCH  21  25
ENDBRANCH  20  23
ENDBRANCH   1  20
TORSDOF 14
ENDMDL
MODEL 5
REMARK VINA RESULT:      -7.1      3.471      6.037
REMARK  Name = 
REMARK  16 active torsions:
REMARK  status: ('A' for Active; 'I' for Inactive)
REMARK    1  A    between atoms: C_1  and  C_2
REMARK    2  A    between atoms: C_2  and  C_3
REMARK    3  A    between atoms: C_3  and  C_4
REMARK    4  A    between atoms: C_4  and  C_5
REMARK    5  A    between atoms: C_5  and  C_6
REMARK    6  A    between atoms: C_6  and  C_7
REMARK    7  A    between atoms: C_6  and  C_12
REMARK    8  A    between atoms: C_7  and  N_8
REMARK    9  A    between atoms: N_8  and  O_9
REMARK   10  A    between atoms: N_14  and  C_15
REMARK   11  A    between atoms: C_15  and  N_16
REMARK   12  A    between atoms: C_17  and  C_19
REMARK   13  A    between atoms: C_22  and  C_23
REMARK   14  A    between atoms: C_27  and  C_28
REMARK   15  A    between atoms: C_28  and  O_30
REMARK   16  A    between atoms: O_30  and  C_31
REMARK                            x       y       z     vdW  Elec       q    Type
REMARK                         _______ _______ _______ _____ _____    ______ ____
ROOT
ATOM      1  N   UNL     1       1.108   8.577  20.488  0.00  0.00    +0.000 N 
ATOM      2  C   UNL     1       0.826   9.727  21.206  0.00  0.00    +0.000 C 
ATOM      3  O   UNL     1       1.175   9.865  22.374  0.00  0.00    +0.000 OA
ATOM      4  H   UNL     1       0.941   8.597  19.493  0.00  0.00    +0.000 HD
ENDROOT
BRANCH   2   5
ATOM      5  C   UNL     1       0.089  10.745  20.480  0.00  0.00    +0.000 A 
ATOM      6  C   UNL     1       0.189  12.121  20.523  0.00  0.00    +0.000 A 
ATOM      7  C   UNL     1      -0.773  12.629  19.619  0.00  0.00    +0.000 A 
ATOM      8  C   UNL     1      -1.408  11.540  19.055  0.00  0.00    +0.000 A 
ATOM      9  O   UNL     1      -0.888  10.386  19.585  0.00  0.00    +0.000 OA
BRANCH   8  10
ATOM     10  C   UNL     1      -2.454  11.390  18.043  0.00  0.00    +0.000 A 
ATOM     11  C   UNL     1      -2.125  10.982  16.741  0.00  0.00    +0.000 A 
ATOM     12  C   UNL     1      -3.110  10.799  15.768  0.00  0.00    +0.000 A 
ATOM     13  C   UNL     1      -4.449  11.027  16.085  0.00  0.00    +0.000 A 
ATOM     14  C   UNL     1      -4.803  11.443  17.373  0.00  0.00    +0.000 A 
ATOM     15  C   UNL     1      -3.805  11.624  18.346  0.00  0.00    +0.000 A 
BRANCH  14  16
ATOM     16  C   UNL     1      -6.247  11.681  17.652  0.00  0.00    +0.000 C 
ATOM     17  O   UNL     1      -6.903  11.006  18.426  0.00  0.00    +0.000 OA
BRANCH  16  18
ATOM     18  O   UNL     1      -6.713  12.731  16.928  0.00  0.00    +0.000 OA
ATOM     19  C   UNL     1      -6.829  13.939  17.681  0.00  0.00    +0.000 C 
ENDBRANCH  16  18
ENDBRANCH  14  16
ENDBRANCH   8  10
ENDBRANCH   2   5
BRANCH   1  20
ATOM     20  C   UNL     1       1.897   7.552  21.095  0.00  0.00    +0.000 C 
BRANCH  20  23
ATOM     21  C   UNL     1       2.665   6.760  18.939  0.00  0.00    +0.000 C 
ATOM     22  O   UNL     1       2.886   7.918  18.585  0.00  0.00    +0.000 OA
ATOM     23  N   UNL     1       2.184   6.468  20.199  0.00  0.00    +0.000 N 
ATOM     24  H   UNL     1       1.933   5.530  20.463  0.00  0.00    +0.000 HD
BRANCH  21  25
ATOM     25  C   UNL     1       2.904   5.567  18.011  0.00  0.00    +0.000 C 
BRANCH  25  26
ATOM     26  C   UNL     1       1.655   4.648  17.898  0.00  0.00    +0.000 C 
BRANCH  26  27
ATOM     27  C   UNL     1       1.903   3.220  18.408  0.00  0.00    +0.000 C 
BRANCH  27  28
ATOM     28  C   UNL     1       0.793   2.721  19.344  0.00  0.00    +0.000 C 
BRANCH  28  30
ATOM     29  C   UNL     1       2.471   2.810  21.243  0.00  0.00    +0.000 C 
ATOM     30  C   UNL     1       1.065   3.167  20.784  0.00  0.00    +0.000 C 
ENDBRANCH  28  30
ENDBRANCH  27  28
ENDBRANCH  26  27
ENDBRANCH  25  26
BRANCH  25  31
ATOM     31  C   UNL     1       4.138   4.780  18.489  0.00  0.00    +0.000 C 
BRANCH  31  32
ATOM     32  N   UNL     1       5.149   4.618  17.449  0.00  0.00    +0.000 N 
ATOM     33  C   UNL     1       5.797   5.665  16.843  0.00  0.00    +0.000 C 
ATOM     34  O   UNL     1       5.785   6.828  17.229  0.00  0.00    +0.000 OA
BRANCH  32  35
ATOM     35  O   UNL     1       4.990   3.454  16.671  0.00  0.00    +0.000 OA
ATOM     36  H   UNL     1       4.879   2.769  17.358  0.00  0.00    +0.000 HD
ENDBRANCH  32  35
ENDBRANCH  31  32
ENDBRANCH  25  31
ENDBRANCH  21  25
ENDBRANCH  20  23
ENDBRANCH   1  20
TORSDOF 14
ENDMDL
MODEL 6
REMARK VINA RESULT:      -7.0      3.526      7.601
REMARK  Name = 
REMARK  16 active torsions:
REMARK  status: ('A' for Active; 'I' for Inactive)
REMARK    1  A    between atoms: C_1  and  C_2
REMARK    2  A    between atoms: C_2  and  C_3
REMARK    3  A    between atoms: C_3  and  C_4
REMARK    4  A    between atoms: C_4  and  C_5
REMARK    5  A    between atoms: C_5  and  C_6
REMARK    6  A    between atoms: C_6  and  C_7
REMARK    7  A    between atoms: C_6  and  C_12
REMARK    8  A    between atoms: C_7  and  N_8
REMARK    9  A    between atoms: N_8  and  O_9
REMARK   10  A    between atoms: N_14  and  C_15
REMARK   11  A    between atoms: C_15  and  N_16
REMARK   12  A    between atoms: C_17  and  C_19
REMARK   13  A    between atoms: C_22  and  C_23
REMARK   14  A    between atoms: C_27  and  C_28
REMARK   15  A    between atoms: C_28  and  O_30
REMARK   16  A    between atoms: O_30  and  C_31
REMARK                            x       y       z     vdW  Elec       q    Type
REMARK                         _______ _______ _______ _____ _____    ______ ____
ROOT
ATOM      1  N   UNL     1       8.537   7.527  19.053  0.00  0.00    +0.000 N 
ATOM      2  C   UNL     1       8.310   8.550  18.149  0.00  0.00    +0.000 C 
ATOM      3  O   UNL     1       7.668   8.376  17.117  0.00  0.00    +0.000 OA
ATOM      4  H   UNL     1       8.924   7.776  19.950  0.00  0.00    +0.000 HD
ENDROOT
BRANCH   2   5
ATOM      5  C   UNL     1       8.890   9.831  18.506  0.00  0.00    +0.000 A 
ATOM      6  C   UNL     1       9.721  10.668  17.787  0.00  0.00    +0.000 A 
ATOM      7  C   UNL     1       9.993  11.782  18.613  0.00  0.00    +0.000 A 
ATOM      8  C   UNL     1       9.307  11.583  19.795  0.00  0.00    +0.000 A 
ATOM      9  O   UNL     1       8.639  10.387  19.736  0.00  0.00    +0.000 OA
BRANCH   8  10
ATOM     10  C   UNL     1       9.151  12.368  21.019  0.00  0.00    +0.000 A 
ATOM     11  C   UNL     1       9.742  13.638  21.125  0.00  0.00    +0.000 A 
ATOM     12  C   UNL     1       9.578  14.419  22.271  0.00  0.00    +0.000 A 
ATOM     13  C   UNL     1       8.818  13.938  23.337  0.00  0.00    +0.000 A 
ATOM     14  C   UNL     1       8.226  12.673  23.260  0.00  0.00    +0.000 A 
ATOM     15  C   UNL     1       8.395  11.893  22.103  0.00  0.00    +0.000 A 
BRANCH  14  16
ATOM     16  C   UNL     1       7.433  12.207  24.432  0.00  0.00    +0.000 C 
ATOM     17  O   UNL     1       7.070  11.053  24.584  0.00  0.00    +0.000 OA
BRANCH  16  18
ATOM     18  O   UNL     1       7.176  13.235  25.281  0.00  0.00    +0.000 OA
ATOM     19  C   UNL     1       5.789  13.387  25.592  0.00  0.00    +0.000 C 
ENDBRANCH  16  18
ENDBRANCH  14  16
ENDBRANCH   8  10
ENDBRANCH   2   5
BRANCH   1  20
ATOM     20  C   UNL     1       7.939   6.249  18.824  0.00  0.00    +0.000 C 
BRANCH  20  23
ATOM     21  C   UNL     1       5.804   5.146  18.517  0.00  0.00    +0.000 C 
ATOM     22  O   UNL     1       6.371   4.055  18.445  0.00  0.00    +0.000 OA
ATOM     23  N   UNL     1       6.509   6.313  18.729  0.00  0.00    +0.000 N 
ATOM     24  H   UNL     1       6.055   7.212  18.713  0.00  0.00    +0.000 HD
BRANCH  21  25
ATOM     25  C   UNL     1       4.287   5.285  18.373  0.00  0.00    +0.000 C 
BRANCH  25  26
ATOM     26  C   UNL     1       3.695   4.263  17.362  0.00  0.00    +0.000 C 
BRANCH  26  27
ATOM     27  C   UNL     1       2.834   3.178  18.029  0.00  0.00    +0.000 C 
BRANCH  27  28
ATOM     28  C   UNL     1       1.372   3.608  18.212  0.00  0.00    +0.000 C 
BRANCH  28  30
ATOM     29  C   UNL     1       1.248   3.654  20.745  0.00  0.00    +0.000 C 
ATOM     30  C   UNL     1       0.779   2.967  19.472  0.00  0.00    +0.000 C 
ENDBRANCH  28  30
ENDBRANCH  27  28
ENDBRANCH  26  27
ENDBRANCH  25  26
BRANCH  25  31
ATOM     31  C   UNL     1       3.937   6.731  17.979  0.00  0.00    +0.000 C 
BRANCH  31  32
ATOM     32  N   UNL     1       2.736   7.228  18.643  0.00  0.00    +0.000 N 
ATOM     33  C   UNL     1       2.096   8.392  18.295  0.00  0.00    +0.000 C 
ATOM     34  O   UNL     1       2.302   9.039  17.274  0.00  0.00    +0.000 OA
BRANCH  32  35
ATOM     35  O   UNL     1       2.623   6.838  19.991  0.00  0.00    +0.000 OA
ATOM     36  H   UNL     1       1.929   6.153  19.944  0.00  0.00    +0.000 HD
ENDBRANCH  32  35
ENDBRANCH  31  32
ENDBRANCH  25  31
ENDBRANCH  21  25
ENDBRANCH  20  23
ENDBRANCH   1  20
TORSDOF 14
ENDMDL
MODEL 7
REMARK VINA RESULT:      -7.0      2.899     10.173
REMARK  Name = 
REMARK  16 active torsions:
REMARK  status: ('A' for Active; 'I' for Inactive)
REMARK    1  A    between atoms: C_1  and  C_2
REMARK    2  A    between atoms: C_2  and  C_3
REMARK    3  A    between atoms: C_3  and  C_4
REMARK    4  A    between atoms: C_4  and  C_5
REMARK    5  A    between atoms: C_5  and  C_6
REMARK    6  A    between atoms: C_6  and  C_7
REMARK    7  A    between atoms: C_6  and  C_12
REMARK    8  A    between atoms: C_7  and  N_8
REMARK    9  A    between atoms: N_8  and  O_9
REMARK   10  A    between atoms: N_14  and  C_15
REMARK   11  A    between atoms: C_15  and  N_16
REMARK   12  A    between atoms: C_17  and  C_19
REMARK   13  A    between atoms: C_22  and  C_23
REMARK   14  A    between atoms: C_27  and  C_28
REMARK   15  A    between atoms: C_28  and  O_30
REMARK   16  A    between atoms: O_30  and  C_31
REMARK                            x       y       z     vdW  Elec       q    Type
REMARK                         _______ _______ _______ _____ _____    ______ ____
ROOT
ATOM      1  N   UNL     1       3.331   6.681  19.408  0.00  0.00    +0.000 N 
ATOM      2  C   UNL     1       3.249   5.795  18.348  0.00  0.00    +0.000 C 
ATOM      3  O   UNL     1       2.172   5.378  17.932  0.00  0.00    +0.000 OA
ATOM      4  H   UNL     1       4.227   7.109  19.589  0.00  0.00    +0.000 HD
ENDROOT
BRANCH   2   5
ATOM      5  C   UNL     1       4.521   5.396  17.776  0.00  0.00    +0.000 A 
ATOM      6  C   UNL     1       5.725   5.108  18.387  0.00  0.00    +0.000 A 
ATOM      7  C   UNL     1       6.639   4.784  17.358  0.00  0.00    +0.000 A 
ATOM      8  C   UNL     1       5.949   4.875  16.165  0.00  0.00    +0.000 A 
ATOM      9  O   UNL     1       4.656   5.257  16.417  0.00  0.00    +0.000 OA
BRANCH   8  10
ATOM     10  C   UNL     1       6.308   4.636  14.768  0.00  0.00    +0.000 A 
ATOM     11  C   UNL     1       7.457   5.232  14.221  0.00  0.00    +0.000 A 
ATOM     12  C   UNL     1       7.838   4.991  12.899  0.00  0.00    +0.000 A 
ATOM     13  C   UNL     1       7.070   4.148  12.098  0.00  0.00    +0.000 A 
ATOM     14  C   UNL     1       5.916   3.548  12.616  0.00  0.00    +0.000 A 
ATOM     15  C   UNL     1       5.540   3.795  13.947  0.00  0.00    +0.000 A 
BRANCH  14  16
ATOM     16  C   UNL     1       5.129   2.664  11.711  0.00  0.00    +0.000 C 
ATOM     17  O   UNL     1       5.582   1.661  11.188  0.00  0.00    +0.000 OA
BRANCH  16  18
ATOM     18  O   UNL     1       3.865   3.135  11.555  0.00  0.00    +0.000 OA
ATOM     19  C   UNL     1       3.620   3.702  10.266  0.00  0.00    +0.000 C 
ENDBRANCH  16  18
ENDBRANCH  14  16
ENDBRANCH   8  10
ENDBRANCH   2   5
BRANCH   1  20
ATOM     20  C   UNL     1       2.127   7.191  19.986  0.00  0.00    +0.000 C 
BRANCH  20  23
ATOM     21  C   UNL     1       0.951   9.308  20.038  0.00  0.00    +0.000 C 
ATOM     22  O   UNL     1       0.786   9.194  21.252  0.00  0.00    +0.000 OA
ATOM     23  N   UNL     1       1.636   8.358  19.309  0.00  0.00    +0.000 N 
ATOM     24  H   UNL     1       1.707   8.412  18.306  0.00  0.00    +0.000 HD
BRANCH  21  25
ATOM     25  C   UNL     1       0.407  10.503  19.253  0.00  0.00    +0.000 C 
BRANCH  25  26
ATOM     26  C   UNL     1      -0.529  10.069  18.090  0.00  0.00    +0.000 C 
BRANCH  26  27
ATOM     27  C   UNL     1      -2.019  10.095  18.468  0.00  0.00    +0.000 C 
BRANCH  27  28
ATOM     28  C   UNL     1      -2.940   9.805  17.275  0.00  0.00    +0.000 C 
BRANCH  28  30
ATOM     29  C   UNL     1      -3.087  10.067  14.757  0.00  0.00    +0.000 C 
ATOM     30  C   UNL     1      -2.499  10.612  16.049  0.00  0.00    +0.000 C 
ENDBRANCH  28  30
ENDBRANCH  27  28
ENDBRANCH  26  27
ENDBRANCH  25  26
BRANCH  25  31
ATOM     31  C   UNL     1       1.579  11.360  18.739  0.00  0.00    +0.000 C 
BRANCH  31  32
ATOM     32  N   UNL     1       1.381  12.789  18.960  0.00  0.00    +0.000 N 
ATOM     33  C   UNL     1       1.633  13.421  20.151  0.00  0.00    +0.000 C 
ATOM     34  O   UNL     1       2.250  12.939  21.096  0.00  0.00    +0.000 OA
BRANCH  32  35
ATOM     35  O   UNL     1       0.373  13.358  18.158  0.00  0.00    +0.000 OA
ATOM     36  H   UNL     1      -0.437  13.082  18.629  0.00  0.00    +0.000 HD
ENDBRANCH  32  35
ENDBRANCH  31  32
ENDBRANCH  25  31
ENDBRANCH  21  25
ENDBRANCH  20  23
ENDBRANCH   1  20
TORSDOF 14
ENDMDL
MODEL 8
REMARK VINA RESULT:      -6.9      3.383      5.853
REMARK  Name = 
REMARK  16 active torsions:
REMARK  status: ('A' for Active; 'I' for Inactive)
REMARK    1  A    between atoms: C_1  and  C_2
REMARK    2  A    between atoms: C_2  and  C_3
REMARK    3  A    between atoms: C_3  and  C_4
REMARK    4  A    between atoms: C_4  and  C_5
REMARK    5  A    between atoms: C_5  and  C_6
REMARK    6  A    between atoms: C_6  and  C_7
REMARK    7  A    between atoms: C_6  and  C_12
REMARK    8  A    between atoms: C_7  and  N_8
REMARK    9  A    between atoms: N_8  and  O_9
REMARK   10  A    between atoms: N_14  and  C_15
REMARK   11  A    between atoms: C_15  and  N_16
REMARK   12  A    between atoms: C_17  and  C_19
REMARK   13  A    between atoms: C_22  and  C_23
REMARK   14  A    between atoms: C_27  and  C_28
REMARK   15  A    between atoms: C_28  and  O_30
REMARK   16  A    between atoms: O_30  and  C_31
REMARK                            x       y       z     vdW  Elec       q    Type
REMARK                         _______ _______ _______ _____ _____    ______ ____
ROOT
ATOM      1  N   UNL     1       1.949   8.398  18.877  0.00  0.00    +0.000 N 
ATOM      2  C   UNL     1       1.311   8.806  20.035  0.00  0.00    +0.000 C 
ATOM      3  O   UNL     1       1.576   8.317  21.130  0.00  0.00    +0.000 OA
ATOM      4  H   UNL     1       1.805   8.952  18.046  0.00  0.00    +0.000 HD
ENDROOT
BRANCH   2   5
ATOM      5  C   UNL     1       0.310   9.842  19.859  0.00  0.00    +0.000 A 
ATOM      6  C   UNL     1       0.102  11.012  20.562  0.00  0.00    +0.000 A 
ATOM      7  C   UNL     1      -1.017  11.647  19.975  0.00  0.00    +0.000 A 
ATOM      8  C   UNL     1      -1.435  10.843  18.932  0.00  0.00    +0.000 A 
ATOM      9  O   UNL     1      -0.629   9.734  18.864  0.00  0.00    +0.000 OA
BRANCH   8  10
ATOM     10  C   UNL     1      -2.497  10.952  17.933  0.00  0.00    +0.000 A 
ATOM     11  C   UNL     1      -3.725  11.544  18.268  0.00  0.00    +0.000 A 
ATOM     12  C   UNL     1      -4.741  11.690  17.321  0.00  0.00    +0.000 A 
ATOM     13  C   UNL     1      -4.544  11.239  16.017  0.00  0.00    +0.000 A 
ATOM     14  C   UNL     1      -3.333  10.637  15.659  0.00  0.00    +0.000 A 
ATOM     15  C   UNL     1      -2.315  10.495  16.618  0.00  0.00    +0.000 A 
BRANCH  14  16
ATOM     16  C   UNL     1      -3.181  10.166  14.254  0.00  0.00    +0.000 C 
ATOM     17  O   UNL     1      -2.181   9.612  13.833  0.00  0.00    +0.000 OA
BRANCH  16  18
ATOM     18  O   UNL     1      -4.295  10.446  13.528  0.00  0.00    +0.000 OA
ATOM     19  C   UNL     1      -4.310   9.825  12.241  0.00  0.00    +0.000 C 
ENDBRANCH  16  18
ENDBRANCH  14  16
ENDBRANCH   8  10
ENDBRANCH   2   5
BRANCH   1  20
ATOM     20  C   UNL     1       3.004   7.438  18.963  0.00  0.00    +0.000 C 
BRANCH  20  23
ATOM     21  C   UNL     1       3.792   5.358  18.003  0.00  0.00    +0.000 C 
ATOM     22  O   UNL     1       4.621   5.248  18.906  0.00  0.00    +0.000 OA
ATOM     23  N   UNL     1       2.913   6.420  17.955  0.00  0.00    +0.000 N 
ATOM     24  H   UNL     1       2.286   6.550  17.178  0.00  0.00    +0.000 HD
BRANCH  21  25
ATOM     25  C   UNL     1       3.680   4.332  16.873  0.00  0.00    +0.000 C 
BRANCH  25  26
ATOM     26  C   UNL     1       2.552   3.294  17.127  0.00  0.00    +0.000 C 
BRANCH  26  27
ATOM     27  C   UNL     1       2.785   2.440  18.384  0.00  0.00    +0.000 C 
BRANCH  27  28
ATOM     28  C   UNL     1       1.514   2.263  19.227  0.00  0.00    +0.000 C 
BRANCH  28  30
ATOM     29  C   UNL     1       1.349   2.820  21.696  0.00  0.00    +0.000 C 
ATOM     30  C   UNL     1       1.411   3.372  20.280  0.00  0.00    +0.000 C 
ENDBRANCH  28  30
ENDBRANCH  27  28
ENDBRANCH  26  27
ENDBRANCH  25  26
BRANCH  25  31
ATOM     31  C   UNL     1       5.041   3.643  16.666  0.00  0.00    +0.000 C 
BRANCH  31  32
ATOM     32  N   UNL     1       5.951   4.415  15.826  0.00  0.00    +0.000 N 
ATOM     33  C   UNL     1       7.200   4.821  16.223  0.00  0.00    +0.000 C 
ATOM     34  O   UNL     1       7.797   4.417  17.215  0.00  0.00    +0.000 OA
BRANCH  32  35
ATOM     35  O   UNL     1       5.302   5.238  14.885  0.00  0.00    +0.000 OA
ATOM     36  H   UNL     1       4.447   4.780  14.774  0.00  0.00    +0.000 HD
ENDBRANCH  32  35
ENDBRANCH  31  32
ENDBRANCH  25  31
ENDBRANCH  21  25
ENDBRANCH  20  23
ENDBRANCH   1  20
TORSDOF 14
ENDMDL
MODEL 9
REMARK VINA RESULT:      -6.9      3.121     10.293
REMARK  Name = 
REMARK  16 active torsions:
REMARK  status: ('A' for Active; 'I' for Inactive)
REMARK    1  A    between atoms: C_1  and  C_2
REMARK    2  A    between atoms: C_2  and  C_3
REMARK    3  A    between atoms: C_3  and  C_4
REMARK    4  A    between atoms: C_4  and  C_5
REMARK    5  A    between atoms: C_5  and  C_6
REMARK    6  A    between atoms: C_6  and  C_7
REMARK    7  A    between atoms: C_6  and  C_12
REMARK    8  A    between atoms: C_7  and  N_8
REMARK    9  A    between atoms: N_8  and  O_9
REMARK   10  A    between atoms: N_14  and  C_15
REMARK   11  A    between atoms: C_15  and  N_16
REMARK   12  A    between atoms: C_17  and  C_19
REMARK   13  A    between atoms: C_22  and  C_23
REMARK   14  A    between atoms: C_27  and  C_28
REMARK   15  A    between atoms: C_28  and  O_30
REMARK   16  A    between atoms: O_30  and  C_31
REMARK                            x       y       z     vdW  Elec       q    Type
REMARK                         _______ _______ _______ _____ _____    ______ ____
ROOT
ATOM      1  N   UNL     1       2.342   7.184  19.291  0.00  0.00    +0.000 N 
ATOM      2  C   UNL     1       2.350   5.857  19.683  0.00  0.00    +0.000 C 
ATOM      3  O   UNL     1       1.994   5.508  20.805  0.00  0.00    +0.000 OA
ATOM      4  H   UNL     1       2.486   7.381  18.312  0.00  0.00    +0.000 HD
ENDROOT
BRANCH   2   5
ATOM      5  C   UNL     1       2.814   4.917  18.679  0.00  0.00    +0.000 A 
ATOM      6  C   UNL     1       2.391   3.634  18.392  0.00  0.00    +0.000 A 
ATOM      7  C   UNL     1       3.192   3.169  17.324  0.00  0.00    +0.000 A 
ATOM      8  C   UNL     1       4.059   4.193  16.997  0.00  0.00    +0.000 A 
ATOM      9  O   UNL     1       3.836   5.260  17.829  0.00  0.00    +0.000 OA
BRANCH   8  10
ATOM     10  C   UNL     1       5.096   4.354  15.979  0.00  0.00    +0.000 A 
ATOM     11  C   UNL     1       6.288   5.032  16.284  0.00  0.00    +0.000 A 
ATOM     12  C   UNL     1       7.306   5.169  15.338  0.00  0.00    +0.000 A 
ATOM     13  C   UNL     1       7.146   4.628  14.063  0.00  0.00    +0.000 A 
ATOM     14  C   UNL     1       5.964   3.956  13.730  0.00  0.00    +0.000 A 
ATOM     15  C   UNL     1       4.945   3.822  14.688  0.00  0.00    +0.000 A 
BRANCH  14  16
ATOM     16  C   UNL     1       5.845   3.407  12.350  0.00  0.00    +0.000 C 
ATOM     17  O   UNL     1       4.781   3.253  11.776  0.00  0.00    +0.000 OA
BRANCH  16  18
ATOM     18  O   UNL     1       7.068   3.105  11.842  0.00  0.00    +0.000 OA
ATOM     19  C   UNL     1       7.126   1.823  11.214  0.00  0.00    +0.000 C 
ENDBRANCH  16  18
ENDBRANCH  14  16
ENDBRANCH   8  10
ENDBRANCH   2   5
BRANCH   1  20
ATOM     20  C   UNL     1       1.828   8.173  20.186  0.00  0.00    +0.000 C 
BRANCH  20  23
ATOM     21  C   UNL     1       0.031   9.792  20.075  0.00  0.00    +0.000 C 
ATOM     22  O   UNL     1      -0.394   9.405  21.164  0.00  0.00    +0.000 OA
ATOM     23  N   UNL     1       1.162   9.246  19.505  0.00  0.00    +0.000 N 
ATOM     24  H   UNL     1       1.466   9.509  18.582  0.00  0.00    +0.000 HD
BRANCH  21  25
ATOM     25  C   UNL     1      -0.665  10.898  19.278  0.00  0.00    +0.000 C 
BRANCH  25  26
ATOM     26  C   UNL     1      -1.161  10.402  17.891  0.00  0.00    +0.000 C 
BRANCH  26  27
ATOM     27  C   UNL     1      -2.560   9.767  17.937  0.00  0.00    +0.000 C 
BRANCH  27  28
ATOM     28  C   UNL     1      -3.565  10.475  17.017  0.00  0.00    +0.000 C 
BRANCH  28  30
ATOM     29  C   UNL     1      -3.018  10.082  14.572  0.00  0.00    +0.000 C 
ATOM     30  C   UNL     1      -2.861  11.011  15.766  0.00  0.00    +0.000 C 
ENDBRANCH  28  30
ENDBRANCH  27  28
ENDBRANCH  26  27
ENDBRANCH  25  26
BRANCH  25  31
ATOM     31  C   UNL     1       0.279  12.105  19.137  0.00  0.00    +0.000 C 
BRANCH  31  32
ATOM     32  N   UNL     1      -0.229  13.307  19.791  0.00  0.00    +0.000 N 
ATOM     33  C   UNL     1      -0.169  13.525  21.144  0.00  0.00    +0.000 C 
ATOM     34  O   UNL     1       0.496  12.872  21.941  0.00  0.00    +0.000 OA
BRANCH  32  35
ATOM     35  O   UNL     1      -1.302  13.918  19.112  0.00  0.00    +0.000 OA
ATOM     36  H   UNL     1      -0.858  14.278  18.321  0.00  0.00    +0.000 HD
ENDBRANCH  32  35
ENDBRANCH  31  32
ENDBRANCH  25  31
ENDBRANCH  21  25
ENDBRANCH  20  23
ENDBRANCH   1  20
TORSDOF 14
ENDMDL
