MODEL 1
REMARK VINA RESULT:      -6.8      0.000      0.000
REMARK  Name = 
REMARK  5 active torsions:
REMARK  status: ('A' for Active; 'I' for Inactive)
REMARK    1  A    between atoms: C_2  and  C_4
REMARK    2  A    between atoms: C_7  and  C_9
REMARK    3  A    between atoms: C_9  and  N_10
REMARK    4  A    between atoms: N_13  and  C_14
REMARK    5  A    between atoms: C_14  and  C_15
REMARK                            x       y       z     vdW  Elec       q    Type
REMARK                         _______ _______ _______ _____ _____    ______ ____
ROOT
ATOM      1  C   UNL     1       3.632   4.174  18.833  0.00  0.00    +0.000 C 
ENDROOT
BRANCH   1   5
ATOM      2  C   UNL     1       6.764   6.247  17.342  0.00  0.00    +0.000 C 
ATOM      3  C   UNL     1       6.408   4.921  18.035  0.00  0.00    +0.000 C 
ATOM      4  N   UNL     1       5.513   4.127  17.179  0.00  0.00    +0.000 N 
ATOM      5  C   UNL     1       4.196   3.813  17.457  0.00  0.00    +0.000 C 
ATOM      6  O   UNL     1       3.467   3.262  16.626  0.00  0.00    +0.000 OA
ATOM      7  C   UNL     1       6.030   3.925  15.828  0.00  0.00    +0.000 C 
ATOM      8  C   UNL     1       6.383   5.279  15.203  0.00  0.00    +0.000 C 
ATOM      9  O   UNL     1       7.316   6.006  16.026  0.00  0.00    +0.000 OA
BRANCH   2  11
ATOM     10  N   UNL     1       8.266   6.307  19.267  0.00  0.00    +0.000 N 
ATOM     11  C   UNL     1       7.778   7.013  18.201  0.00  0.00    +0.000 C 
ATOM     12  O   UNL     1       8.189   8.139  17.953  0.00  0.00    +0.000 OA
ATOM     13  H   UNL     1       8.852   6.809  19.921  0.00  0.00    +0.000 HD
ATOM     14  H   UNL     1       7.711   5.530  19.613  0.00  0.00    +0.000 HD
ENDBRANCH   2  11
ENDBRANCH   1   5
BRANCH   1  15
ATOM     15  N   UNL     1       2.224   4.633  18.752  0.00  0.00    +0.000 NA
ATOM     16  C   UNL     1       1.511   4.506  20.041  0.00  0.00    +0.000 C 
ATOM     17  C   UNL     1       1.920   5.537  21.122  0.00  0.00    +0.000 C 
ATOM     18  N   UNL     1       1.883   6.945  20.666  0.00  0.00    +0.000 NA
ATOM     19  C   UNL     1       2.639   7.052  19.399  0.00  0.00    +0.000 C 
ATOM     20  C   UNL     1       2.193   6.046  18.312  0.00  0.00    +0.000 C 
BRANCH  18  21
ATOM     21  C   UNL     1       0.486   7.400  20.529  0.00  0.00    +0.000 C 
BRANCH  21  22
ATOM     22  C   UNL     1       0.210   8.734  21.187  0.00  0.00    +0.000 A 
ATOM     23  C   UNL     1      -0.406   8.790  22.446  0.00  0.00    +0.000 A 
ATOM     24  C   UNL     1      -0.676  10.020  23.046  0.00  0.00    +0.000 A 
ATOM     25  C   UNL     1      -0.331  11.202  22.394  0.00  0.00    +0.000 A 
ATOM     26  C   UNL     1       0.277  11.157  21.139  0.00  0.00    +0.000 A 
ATOM     27  C   UNL     1       0.545   9.929  20.537  0.00  0.00    +0.000 A 
ENDBRANCH  21  22
ENDBRANCH  18  21
ENDBRANCH   1  15
TORSDOF 5
ENDMDL
MODEL 2
REMARK VINA RESULT:      -6.8      0.679      1.181
REMARK  Name = 
REMARK  5 active torsions:
REMARK  status: ('A' for Active; 'I' for Inactive)
REMARK    1  A    between atoms: C_2  and  C_4
REMARK    2  A    between atoms: C_7  and  C_9
REMARK    3  A    between atoms: C_9  and  N_10
REMARK    4  A    between atoms: N_13  and  C_14
REMARK    5  A    between atoms: C_14  and  C_15
REMARK                            x       y       z     vdW  Elec       q    Type
REMARK                         _______ _______ _______ _____ _____    ______ ____
ROOT
ATOM      1  C   UNL     1       3.663   4.124  18.788  0.00  0.00    +0.000 C 
ENDROOT
BRANCH   1   5
ATOM      2  C   UNL     1       6.647   6.244  17.076  0.00  0.00    +0.000 C 
ATOM      3  C   UNL     1       6.373   4.943  17.850  0.00  0.00    +0.000 C 
ATOM      4  N   UNL     1       5.485   4.067  17.070  0.00  0.00    +0.000 N 
ATOM      5  C   UNL     1       4.193   3.714  17.413  0.00  0.00    +0.000 C 
ATOM      6  O   UNL     1       3.460   3.089  16.639  0.00  0.00    +0.000 OA
ATOM      7  C   UNL     1       5.963   3.816  15.713  0.00  0.00    +0.000 C 
ATOM      8  C   UNL     1       6.234   5.148  15.006  0.00  0.00    +0.000 C 
ATOM      9  O   UNL     1       7.163   5.956  15.755  0.00  0.00    +0.000 OA
BRANCH   2  11
ATOM     10  N   UNL     1       7.824   8.364  17.369  0.00  0.00    +0.000 N 
ATOM     11  C   UNL     1       7.656   7.097  17.856  0.00  0.00    +0.000 C 
ATOM     12  O   UNL     1       8.237   6.731  18.869  0.00  0.00    +0.000 OA
ATOM     13  H   UNL     1       8.558   8.923  17.785  0.00  0.00    +0.000 HD
ATOM     14  H   UNL     1       7.577   8.535  16.399  0.00  0.00    +0.000 HD
ENDBRANCH   2  11
ENDBRANCH   1   5
BRANCH   1  15
ATOM     15  N   UNL     1       2.249   4.567  18.727  0.00  0.00    +0.000 NA
ATOM     16  C   UNL     1       1.554   4.425  20.025  0.00  0.00    +0.000 C 
ATOM     17  C   UNL     1       1.964   5.456  21.106  0.00  0.00    +0.000 C 
ATOM     18  N   UNL     1       1.905   6.865  20.658  0.00  0.00    +0.000 NA
ATOM     19  C   UNL     1       2.643   6.988  19.382  0.00  0.00    +0.000 C 
ATOM     20  C   UNL     1       2.196   5.982  18.295  0.00  0.00    +0.000 C 
BRANCH  18  21
ATOM     21  C   UNL     1       0.501   7.304  20.541  0.00  0.00    +0.000 C 
BRANCH  21  22
ATOM     22  C   UNL     1       0.231   8.660  21.155  0.00  0.00    +0.000 A 
ATOM     23  C   UNL     1       0.637   9.830  20.496  0.00  0.00    +0.000 A 
ATOM     24  C   UNL     1       0.403  11.081  21.068  0.00  0.00    +0.000 A 
ATOM     25  C   UNL     1      -0.239  11.171  22.301  0.00  0.00    +0.000 A 
ATOM     26  C   UNL     1      -0.641  10.014  22.968  0.00  0.00    +0.000 A 
ATOM     27  C   UNL     1      -0.405   8.763  22.398  0.00  0.00    +0.000 A 
ENDBRANCH  21  22
ENDBRANCH  18  21
ENDBRANCH   1  15
TORSDOF 5
ENDMDL
MODEL 3
REMARK VINA RESULT:      -6.7      2.892      5.356
REMARK  Name = 
REMARK  5 active torsions:
REMARK  status: ('A' for Active; 'I' for Inactive)
REMARK    1  A    between atoms: C_2  and  C_4
REMARK    2  A    between atoms: C_7  and  C_9
REMARK    3  A    between atoms: C_9  and  N_10
REMARK    4  A    between atoms: N_13  and  C_14
REMARK    5  A    between atoms: C_14  and  C_15
REMARK                            x       y       z     vdW  Elec       q    Type
REMARK                         _______ _______ _______ _____ _____    ______ ____
ROOT
ATOM      1  C   UNL     1       1.684   8.085  20.651  0.00  0.00    +0.000 C 
ENDROOT
BRANCH   1   5
ATOM      2  C   UNL     1       2.773   4.197  20.484  0.00  0.00    +0.000 C 
ATOM      3  C   UNL     1       1.644   5.159  20.074  0.00  0.00    +0.000 C 
ATOM      4  N   UNL     1       2.151   6.157  19.120  0.00  0.00    +0.000 N 
ATOM      5  C   UNL     1       2.267   7.515  19.356  0.00  0.00    +0.000 C 
ATOM      6  O   UNL     1       2.832   8.270  18.558  0.00  0.00    +0.000 OA
ATOM      7  C   UNL     1       2.824   5.569  17.966  0.00  0.00    +0.000 C 
ATOM      8  C   UNL     1       3.920   4.610  18.442  0.00  0.00    +0.000 C 
ATOM      9  O   UNL     1       3.384   3.598  19.317  0.00  0.00    +0.000 OA
BRANCH   2  11
ATOM     10  N   UNL     1       0.864   2.869  21.229  0.00  0.00    +0.000 N 
ATOM     11  C   UNL     1       2.202   3.103  21.394  0.00  0.00    +0.000 C 
ATOM     12  O   UNL     1       2.866   2.430  22.172  0.00  0.00    +0.000 OA
ATOM     13  H   UNL     1       0.424   2.234  21.883  0.00  0.00    +0.000 HD
ATOM     14  H   UNL     1       0.301   3.609  20.821  0.00  0.00    +0.000 HD
ENDBRANCH   2  11
ENDBRANCH   1   5
BRANCH   1  15
ATOM     15  N   UNL     1       0.305   8.597  20.459  0.00  0.00    +0.000 NA
ATOM     16  C   UNL     1      -0.501   8.531  21.696  0.00  0.00    +0.000 C 
ATOM     17  C   UNL     1      -0.128   9.572  22.781  0.00  0.00    +0.000 C 
ATOM     18  N   UNL     1      -0.075  10.968  22.292  0.00  0.00    +0.000 NA
ATOM     19  C   UNL     1       0.772  11.013  21.080  0.00  0.00    +0.000 C 
ATOM     20  C   UNL     1       0.363   9.999  19.987  0.00  0.00    +0.000 C 
BRANCH  18  21
ATOM     21  C   UNL     1      -1.439  11.473  22.046  0.00  0.00    +0.000 C 
BRANCH  21  22
ATOM     22  C   UNL     1      -1.860  12.579  22.987  0.00  0.00    +0.000 A 
ATOM     23  C   UNL     1      -3.143  12.576  23.557  0.00  0.00    +0.000 A 
ATOM     24  C   UNL     1      -3.538  13.604  24.413  0.00  0.00    +0.000 A 
ATOM     25  C   UNL     1      -2.656  14.642  24.707  0.00  0.00    +0.000 A 
ATOM     26  C   UNL     1      -1.381  14.658  24.142  0.00  0.00    +0.000 A 
ATOM     27  C   UNL     1      -0.985  13.633  23.284  0.00  0.00    +0.000 A 
ENDBRANCH  21  22
ENDBRANCH  18  21
ENDBRANCH   1  15
TORSDOF 5
ENDMDL
MODEL 4
REMARK VINA RESULT:      -6.6      3.556      8.040
REMARK  Name = 
REMARK  5 active torsions:
REMARK  status: ('A' for Active; 'I' for Inactive)
REMARK    1  A    between atoms: C_2  and  C_4
REMARK    2  A    between atoms: C_7  and  C_9
REMARK    3  A    between atoms: C_9  and  N_10
REMARK    4  A    between atoms: N_13  and  C_14
REMARK    5  A    between atoms: C_14  and  C_15
REMARK                            x       y       z     vdW  Elec       q    Type
REMARK                         _______ _______ _______ _____ _____    ______ ____
ROOT
ATOM      1  C   UNL     1       4.135   6.667  18.851  0.00  0.00    +0.000 C 
ENDROOT
BRANCH   1   5
ATOM      2  C   UNL     1       3.127   2.795  19.419  0.00  0.00    +0.000 C 
ATOM      3  C   UNL     1       3.656   4.032  20.165  0.00  0.00    +0.000 C 
ATOM      4  N   UNL     1       2.653   5.108  20.136  0.00  0.00    +0.000 N 
ATOM      5  C   UNL     1       2.785   6.318  19.480  0.00  0.00    +0.000 C 
ATOM      6  O   UNL     1       1.844   7.114  19.383  0.00  0.00    +0.000 OA
ATOM      7  C   UNL     1       1.339   4.690  20.616  0.00  0.00    +0.000 C 
ATOM      8  C   UNL     1       0.880   3.446  19.848  0.00  0.00    +0.000 C 
ATOM      9  O   UNL     1       1.847   2.383  19.954  0.00  0.00    +0.000 OA
BRANCH   2  11
ATOM     10  N   UNL     1       4.057   0.704  18.567  0.00  0.00    +0.000 N 
ATOM     11  C   UNL     1       4.141   1.651  19.551  0.00  0.00    +0.000 C 
ATOM     12  O   UNL     1       5.007   1.587  20.413  0.00  0.00    +0.000 OA
ATOM     13  H   UNL     1       4.632  -0.122  18.675  0.00  0.00    +0.000 HD
ATOM     14  H   UNL     1       3.179   0.619  18.065  0.00  0.00    +0.000 HD
ENDBRANCH   2  11
ENDBRANCH   1   5
BRANCH   1  15
ATOM     15  N   UNL     1       4.842   5.461  18.354  0.00  0.00    +0.000 NA
ATOM     16  C   UNL     1       4.549   5.177  16.933  0.00  0.00    +0.000 C 
ATOM     17  C   UNL     1       5.214   6.142  15.920  0.00  0.00    +0.000 C 
ATOM     18  N   UNL     1       6.672   6.311  16.106  0.00  0.00    +0.000 NA
ATOM     19  C   UNL     1       6.934   6.636  17.526  0.00  0.00    +0.000 C 
ATOM     20  C   UNL     1       6.301   5.642  18.527  0.00  0.00    +0.000 C 
BRANCH  18  21
ATOM     21  C   UNL     1       7.386   5.097  15.666  0.00  0.00    +0.000 C 
BRANCH  21  22
ATOM     22  C   UNL     1       7.119   4.719  14.226  0.00  0.00    +0.000 A 
ATOM     23  C   UNL     1       6.187   3.716  13.918  0.00  0.00    +0.000 A 
ATOM     24  C   UNL     1       5.951   3.355  12.591  0.00  0.00    +0.000 A 
ATOM     25  C   UNL     1       6.642   3.993  11.563  0.00  0.00    +0.000 A 
ATOM     26  C   UNL     1       7.575   4.987  11.859  0.00  0.00    +0.000 A 
ATOM     27  C   UNL     1       7.814   5.347  13.185  0.00  0.00    +0.000 A 
ENDBRANCH  21  22
ENDBRANCH  18  21
ENDBRANCH   1  15
TORSDOF 5
ENDMDL
MODEL 5
REMARK VINA RESULT:      -6.6      4.776      8.807
REMARK  Name = 
REMARK  5 active torsions:
REMARK  status: ('A' for Active; 'I' for Inactive)
REMARK    1  A    between atoms: C_2  and  C_4
REMARK    2  A    between atoms: C_7  and  C_9
REMARK    3  A    between atoms: C_9  and  N_10
REMARK    4  A    between atoms: N_13  and  C_14
REMARK    5  A    between atoms: C_14  and  C_15
REMARK                            x       y       z     vdW  Elec       q    Type
REMARK                         _______ _______ _______ _____ _____    ______ ____
ROOT
ATOM      1  C   UNL     1      -1.013  11.536  22.510  0.00  0.00    +0.000 C 
ENDROOT
BRANCH   1   5
ATOM      2  C   UNL     1      -1.162  12.041  18.503  0.00  0.00    +0.000 C 
ATOM      3  C   UNL     1      -1.975  12.284  19.787  0.00  0.00    +0.000 C 
ATOM      4  N   UNL     1      -1.260  13.218  20.670  0.00  0.00    +0.000 N 
ATOM      5  C   UNL     1      -0.724  12.912  21.907  0.00  0.00    +0.000 C 
ATOM      6  O   UNL     1      -0.016  13.712  22.528  0.00  0.00    +0.000 OA
ATOM      7  C   UNL     1      -0.880  14.464  20.010  0.00  0.00    +0.000 C 
ATOM      8  C   UNL     1      -0.093  14.153  18.733  0.00  0.00    +0.000 C 
ATOM      9  O   UNL     1      -0.845  13.295  17.853  0.00  0.00    +0.000 OA
BRANCH   2  11
ATOM     10  N   UNL     1      -2.225  11.709  16.330  0.00  0.00    +0.000 N 
ATOM     11  C   UNL     1      -1.969  11.149  17.551  0.00  0.00    +0.000 C 
ATOM     12  O   UNL     1      -2.321  10.004  17.804  0.00  0.00    +0.000 OA
ATOM     13  H   UNL     1      -2.846  11.202  15.713  0.00  0.00    +0.000 HD
ATOM     14  H   UNL     1      -2.193  12.721  16.257  0.00  0.00    +0.000 HD
ENDBRANCH   2  11
ENDBRANCH   1   5
BRANCH   1  15
ATOM     15  N   UNL     1       0.233  10.781  22.790  0.00  0.00    +0.000 NA
ATOM     16  C   UNL     1      -0.031   9.387  23.206  0.00  0.00    +0.000 C 
ATOM     17  C   UNL     1      -0.502   8.441  22.074  0.00  0.00    +0.000 C 
ATOM     18  N   UNL     1       0.363   8.450  20.873  0.00  0.00    +0.000 NA
ATOM     19  C   UNL     1       0.575   9.852  20.453  0.00  0.00    +0.000 C 
ATOM     20  C   UNL     1       1.087  10.778  21.581  0.00  0.00    +0.000 C 
BRANCH  18  21
ATOM     21  C   UNL     1       1.630   7.748  21.153  0.00  0.00    +0.000 C 
BRANCH  21  22
ATOM     22  C   UNL     1       1.930   6.620  20.190  0.00  0.00    +0.000 A 
ATOM     23  C   UNL     1       2.437   6.896  18.911  0.00  0.00    +0.000 A 
ATOM     24  C   UNL     1       2.699   5.858  18.017  0.00  0.00    +0.000 A 
ATOM     25  C   UNL     1       2.458   4.538  18.393  0.00  0.00    +0.000 A 
ATOM     26  C   UNL     1       1.949   4.254  19.660  0.00  0.00    +0.000 A 
ATOM     27  C   UNL     1       1.684   5.290  20.555  0.00  0.00    +0.000 A 
ENDBRANCH  21  22
ENDBRANCH  18  21
ENDBRANCH   1  15
TORSDOF 5
ENDMDL
MODEL 6
REMARK VINA RESULT:      -6.5      2.836      5.365
REMARK  Name = 
REMARK  5 active torsions:
REMARK  status: ('A' for Active; 'I' for Inactive)
REMARK    1  A    between atoms: C_2  and  C_4
REMARK    2  A    between atoms: C_7  and  C_9
REMARK    3  A    between atoms: C_9  and  N_10
REMARK    4  A    between atoms: N_13  and  C_14
REMARK    5  A    between atoms: C_14  and  C_15
REMARK                            x       y       z     vdW  Elec       q    Type
REMARK                         _______ _______ _______ _____ _____    ______ ____
ROOT
ATOM      1  C   UNL     1       1.262   7.948  20.083  0.00  0.00    +0.000 C 
ENDROOT
BRANCH   1   5
ATOM      2  C   UNL     1       2.873   4.262  20.462  0.00  0.00    +0.000 C 
ATOM      3  C   UNL     1       1.770   5.032  19.716  0.00  0.00    +0.000 C 
ATOM      4  N   UNL     1       2.367   6.065  18.855  0.00  0.00    +0.000 N 
ATOM      5  C   UNL     1       2.232   7.431  19.019  0.00  0.00    +0.000 C 
ATOM      6  O   UNL     1       2.877   8.237  18.340  0.00  0.00    +0.000 OA
ATOM      7  C   UNL     1       3.389   5.547  17.951  0.00  0.00    +0.000 C 
ATOM      8  C   UNL     1       4.444   4.776  18.752  0.00  0.00    +0.000 C 
ATOM      9  O   UNL     1       3.842   3.724  19.530  0.00  0.00    +0.000 OA
BRANCH   2  11
ATOM     10  N   UNL     1       0.906   2.931  21.031  0.00  0.00    +0.000 N 
ATOM     11  C   UNL     1       2.239   3.123  21.271  0.00  0.00    +0.000 C 
ATOM     12  O   UNL     1       2.854   2.387  22.032  0.00  0.00    +0.000 OA
ATOM     13  H   UNL     1       0.425   2.265  21.621  0.00  0.00    +0.000 HD
ATOM     14  H   UNL     1       0.378   3.708  20.648  0.00  0.00    +0.000 HD
ENDBRANCH   2  11
ENDBRANCH   1   5
BRANCH   1  15
ATOM     15  N   UNL     1       1.614   9.317  20.535  0.00  0.00    +0.000 NA
ATOM     16  C   UNL     1       0.830  10.361  19.841  0.00  0.00    +0.000 C 
ATOM     17  C   UNL     1      -0.655  10.462  20.269  0.00  0.00    +0.000 C 
ATOM     18  N   UNL     1      -0.861  10.570  21.731  0.00  0.00    +0.000 NA
ATOM     19  C   UNL     1      -0.103   9.489  22.397  0.00  0.00    +0.000 C 
ATOM     20  C   UNL     1       1.389   9.425  21.994  0.00  0.00    +0.000 C 
BRANCH  18  21
ATOM     21  C   UNL     1      -0.466  11.910  22.204  0.00  0.00    +0.000 C 
BRANCH  21  22
ATOM     22  C   UNL     1      -1.528  12.608  23.022  0.00  0.00    +0.000 A 
ATOM     23  C   UNL     1      -2.766  11.989  23.255  0.00  0.00    +0.000 A 
ATOM     24  C   UNL     1      -3.753  12.638  23.997  0.00  0.00    +0.000 A 
ATOM     25  C   UNL     1      -3.511  13.910  24.513  0.00  0.00    +0.000 A 
ATOM     26  C   UNL     1      -2.286  14.537  24.282  0.00  0.00    +0.000 A 
ATOM     27  C   UNL     1      -1.300  13.891  23.538  0.00  0.00    +0.000 A 
ENDBRANCH  21  22
ENDBRANCH  18  21
ENDBRANCH   1  15
TORSDOF 5
ENDMDL
MODEL 7
REMARK VINA RESULT:      -6.5      2.950      6.624
REMARK  Name = 
REMARK  5 active torsions:
REMARK  status: ('A' for Active; 'I' for Inactive)
REMARK    1  A    between atoms: C_2  and  C_4
REMARK    2  A    between atoms: C_7  and  C_9
REMARK    3  A    between atoms: C_9  and  N_10
REMARK    4  A    between atoms: N_13  and  C_14
REMARK    5  A    between atoms: C_14  and  C_15
REMARK                            x       y       z     vdW  Elec       q    Type
REMARK                         _______ _______ _______ _____ _____    ______ ____
ROOT
ATOM      1  C   UNL     1       4.638   4.177  16.975  0.00  0.00    +0.000 C 
ENDROOT
BRANCH   1   5
ATOM      2  C   UNL     1       2.307   5.861  19.814  0.00  0.00    +0.000 C 
ATOM      3  C   UNL     1       2.291   5.409  18.343  0.00  0.00    +0.000 C 
ATOM      4  N   UNL     1       2.497   3.955  18.258  0.00  0.00    +0.000 N 
ATOM      5  C   UNL     1       3.598   3.326  17.706  0.00  0.00    +0.000 C 
ATOM      6  O   UNL     1       3.765   2.105  17.797  0.00  0.00    +0.000 OA
ATOM      7  C   UNL     1       1.570   3.188  19.083  0.00  0.00    +0.000 C 
ATOM      8  C   UNL     1       1.619   3.699  20.527  0.00  0.00    +0.000 C 
ATOM      9  O   UNL     1       1.342   5.112  20.590  0.00  0.00    +0.000 OA
BRANCH   2  11
ATOM     10  N   UNL     1       2.201   8.044  18.724  0.00  0.00    +0.000 N 
ATOM     11  C   UNL     1       1.986   7.359  19.889  0.00  0.00    +0.000 C 
ATOM     12  O   UNL     1       1.518   7.921  20.870  0.00  0.00    +0.000 OA
ATOM     13  H   UNL     1       2.107   9.050  18.758  0.00  0.00    +0.000 HD
ATOM     14  H   UNL     1       2.846   7.641  18.051  0.00  0.00    +0.000 HD
ENDBRANCH   2  11
ENDBRANCH   1   5
BRANCH   1  15
ATOM     15  N   UNL     1       5.838   4.425  17.810  0.00  0.00    +0.000 NA
ATOM     16  C   UNL     1       7.049   4.681  17.001  0.00  0.00    +0.000 C 
ATOM     17  C   UNL     1       7.092   6.062  16.302  0.00  0.00    +0.000 C 
ATOM     18  N   UNL     1       6.840   7.209  17.202  0.00  0.00    +0.000 NA
ATOM     19  C   UNL     1       5.602   6.947  17.968  0.00  0.00    +0.000 C 
ATOM     20  C   UNL     1       5.587   5.584  18.697  0.00  0.00    +0.000 C 
BRANCH  18  21
ATOM     21  C   UNL     1       8.006   7.435  18.077  0.00  0.00    +0.000 C 
BRANCH  21  22
ATOM     22  C   UNL     1       8.374   8.893  18.242  0.00  0.00    +0.000 A 
ATOM     23  C   UNL     1       9.214   9.298  19.291  0.00  0.00    +0.000 A 
ATOM     24  C   UNL     1       9.541  10.645  19.454  0.00  0.00    +0.000 A 
ATOM     25  C   UNL     1       9.033  11.595  18.571  0.00  0.00    +0.000 A 
ATOM     26  C   UNL     1       8.193  11.203  17.529  0.00  0.00    +0.000 A 
ATOM     27  C   UNL     1       7.862   9.859  17.366  0.00  0.00    +0.000 A 
ENDBRANCH  21  22
ENDBRANCH  18  21
ENDBRANCH   1  15
TORSDOF 5
ENDMDL
MODEL 8
REMARK VINA RESULT:      -6.4      2.553      4.818
REMARK  Name = 
REMARK  5 active torsions:
REMARK  status: ('A' for Active; 'I' for Inactive)
REMARK    1  A    between atoms: C_2  and  C_4
REMARK    2  A    between atoms: C_7  and  C_9
REMARK    3  A    between atoms: C_9  and  N_10
REMARK    4  A    between atoms: N_13  and  C_14
REMARK    5  A    between atoms: C_14  and  C_15
REMARK                            x       y       z     vdW  Elec       q    Type
REMARK                         _______ _______ _______ _____ _____    ______ ____
ROOT
ATOM      1  C   UNL     1       1.816   7.551  18.266  0.00  0.00    +0.000 C 
ENDROOT
BRANCH   1   5
ATOM      2  C   UNL     1       2.697   4.166  20.289  0.00  0.00    +0.000 C 
ATOM      3  C   UNL     1       2.094   4.665  18.964  0.00  0.00    +0.000 C 
ATOM      4  N   UNL     1       3.106   5.404  18.195  0.00  0.00    +0.000 N 
ATOM      5  C   UNL     1       3.073   6.756  17.905  0.00  0.00    +0.000 C 
ATOM      6  O   UNL     1       4.027   7.333  17.374  0.00  0.00    +0.000 OA
ATOM      7  C   UNL     1       4.344   4.657  17.994  0.00  0.00    +0.000 C 
ATOM      8  C   UNL     1       4.880   4.174  19.346  0.00  0.00    +0.000 C 
ATOM      9  O   UNL     1       3.895   3.391  20.047  0.00  0.00    +0.000 OA
BRANCH   2  11
ATOM     10  N   UNL     1       0.488   3.126  20.348  0.00  0.00    +0.000 N 
ATOM     11  C   UNL     1       1.661   3.310  21.028  0.00  0.00    +0.000 C 
ATOM     12  O   UNL     1       1.852   2.768  22.109  0.00  0.00    +0.000 OA
ATOM     13  H   UNL     1      -0.262   2.662  20.843  0.00  0.00    +0.000 HD
ATOM     14  H   UNL     1       0.247   3.802  19.630  0.00  0.00    +0.000 HD
ENDBRANCH   2  11
ENDBRANCH   1   5
BRANCH   1  15
ATOM     15  N   UNL     1       2.134   8.748  19.082  0.00  0.00    +0.000 NA
ATOM     16  C   UNL     1       1.465   9.969  18.583  0.00  0.00    +0.000 C 
ATOM     17  C   UNL     1      -0.060  10.036  18.845  0.00  0.00    +0.000 C 
ATOM     18  N   UNL     1      -0.447   9.793  20.252  0.00  0.00    +0.000 NA
ATOM     19  C   UNL     1       0.200   8.545  20.713  0.00  0.00    +0.000 C 
ATOM     20  C   UNL     1       1.729   8.506  20.486  0.00  0.00    +0.000 C 
BRANCH  18  21
ATOM     21  C   UNL     1      -0.089  10.954  21.088  0.00  0.00    +0.000 C 
BRANCH  21  22
ATOM     22  C   UNL     1      -1.282  11.704  21.637  0.00  0.00    +0.000 A 
ATOM     23  C   UNL     1      -1.678  11.528  22.972  0.00  0.00    +0.000 A 
ATOM     24  C   UNL     1      -2.788  12.207  23.475  0.00  0.00    +0.000 A 
ATOM     25  C   UNL     1      -3.510  13.067  22.650  0.00  0.00    +0.000 A 
ATOM     26  C   UNL     1      -3.128  13.245  21.320  0.00  0.00    +0.000 A 
ATOM     27  C   UNL     1      -2.021  12.565  20.815  0.00  0.00    +0.000 A 
ENDBRANCH  21  22
ENDBRANCH  18  21
ENDBRANCH   1  15
TORSDOF 5
ENDMDL
MODEL 9
REMARK VINA RESULT:      -6.4      3.670      8.249
REMARK  Name = 
REMARK  5 active torsions:
REMARK  status: ('A' for Active; 'I' for Inactive)
REMARK    1  A    between atoms: C_2  and  C_4
REMARK    2  A    between atoms: C_7  and  C_9
REMARK    3  A    between atoms: C_9  and  N_10
REMARK    4  A    between atoms: N_13  and  C_14
REMARK    5  A    between atoms: C_14  and  C_15
REMARK                            x       y       z     vdW  Elec       q    Type
REMARK                         _______ _______ _______ _____ _____    ______ ____
ROOT
ATOM      1  C   UNL     1       2.139   7.841  19.304  0.00  0.00    +0.000 C 
ENDROOT
BRANCH   1   5
ATOM      2  C   UNL     1      -0.426  10.226  21.319  0.00  0.00    +0.000 C 
ATOM      3  C   UNL     1       1.048  10.119  20.891  0.00  0.00    +0.000 C 
ATOM      4  N   UNL     1       1.152  10.141  19.424  0.00  0.00    +0.000 N 
ATOM      5  C   UNL     1       1.576   9.092  18.628  0.00  0.00    +0.000 C 
ATOM      6  O   UNL     1       1.503   9.138  17.395  0.00  0.00    +0.000 OA
ATOM      7  C   UNL     1       0.479  11.282  18.811  0.00  0.00    +0.000 C 
ATOM      8  C   UNL     1      -0.975  11.343  19.292  0.00  0.00    +0.000 C 
ATOM      9  O   UNL     1      -1.046  11.394  20.730  0.00  0.00    +0.000 OA
BRANCH   2  11
ATOM     10  N   UNL     1      -1.580  11.010  23.324  0.00  0.00    +0.000 N 
ATOM     11  C   UNL     1      -0.506  10.308  22.849  0.00  0.00    +0.000 C 
ATOM     12  O   UNL     1       0.272   9.754  23.615  0.00  0.00    +0.000 OA
ATOM     13  H   UNL     1      -1.612  11.181  24.320  0.00  0.00    +0.000 HD
ATOM     14  H   UNL     1      -2.016  11.684  22.703  0.00  0.00    +0.000 HD
ENDBRANCH   2  11
ENDBRANCH   1   5
BRANCH   1  15
ATOM     15  N   UNL     1       2.273   6.710  18.353  0.00  0.00    +0.000 NA
ATOM     16  C   UNL     1       3.575   6.709  17.653  0.00  0.00    +0.000 C 
ATOM     17  C   UNL     1       4.787   6.291  18.521  0.00  0.00    +0.000 C 
ATOM     18  N   UNL     1       4.606   5.012  19.243  0.00  0.00    +0.000 NA
ATOM     19  C   UNL     1       3.318   5.056  19.969  0.00  0.00    +0.000 C 
ATOM     20  C   UNL     1       2.108   5.433  19.083  0.00  0.00    +0.000 C 
BRANCH  18  21
ATOM     21  C   UNL     1       4.684   3.879  18.302  0.00  0.00    +0.000 C 
BRANCH  21  22
ATOM     22  C   UNL     1       5.479   4.177  17.050  0.00  0.00    +0.000 A 
ATOM     23  C   UNL     1       4.889   4.038  15.784  0.00  0.00    +0.000 A 
ATOM     24  C   UNL     1       5.626   4.297  14.629  0.00  0.00    +0.000 A 
ATOM     25  C   UNL     1       6.957   4.698  14.728  0.00  0.00    +0.000 A 
ATOM     26  C   UNL     1       7.555   4.834  15.981  0.00  0.00    +0.000 A 
ATOM     27  C   UNL     1       6.820   4.573  17.137  0.00  0.00    +0.000 A 
ENDBRANCH  21  22
ENDBRANCH  18  21
ENDBRANCH   1  15
TORSDOF 5
ENDMDL
