MODEL 1
REMARK VINA RESULT:      -8.3      0.000      0.000
REMARK  Name = 
REMARK  7 active torsions:
REMARK  status: ('A' for Active; 'I' for Inactive)
REMARK    1  A    between atoms: C_1  and  C_2
REMARK    2  A    between atoms: N_4  and  C_5
REMARK    3  A    between atoms: C_5  and  C_6
REMARK    4  A    between atoms: C_16  and  C_17
REMARK    5  A    between atoms: C_17  and  C_18
REMARK    6  A    between atoms: C_18  and  C_19
REMARK    7  A    between atoms: C_19  and  O_21
REMARK                            x       y       z     vdW  Elec       q    Type
REMARK                         _______ _______ _______ _____ _____    ______ ____
ROOT
ATOM      1  C   UNL     1       7.814   5.899  19.047  0.00  0.00    +0.000 C 
ATOM      2  C   UNL     1       6.586   5.526  18.302  0.00  0.00    +0.000 A 
ATOM      3  C   UNL     1       5.304   5.538  18.789  0.00  0.00    +0.000 A 
ATOM      4  N   UNL     1       4.429   5.194  17.788  0.00  0.00    +0.000 N 
ATOM      5  C   UNL     1       5.146   4.915  16.638  0.00  0.00    +0.000 A 
ATOM      6  C   UNL     1       4.733   4.517  15.355  0.00  0.00    +0.000 A 
ATOM      7  C   UNL     1       5.706   4.307  14.359  0.00  0.00    +0.000 A 
ATOM      8  C   UNL     1       7.062   4.504  14.669  0.00  0.00    +0.000 A 
ATOM      9  C   UNL     1       7.459   4.911  15.945  0.00  0.00    +0.000 A 
ATOM     10  C   UNL     1       6.496   5.116  16.944  0.00  0.00    +0.000 A 
ENDROOT
BRANCH   4  11
ATOM     11  C   UNL     1       2.970   5.276  17.890  0.00  0.00    +0.000 C 
BRANCH  11  12
ATOM     12  C   UNL     1       2.390   4.378  18.963  0.00  0.00    +0.000 A 
ATOM     13  C   UNL     1       1.945   4.888  20.200  0.00  0.00    +0.000 A 
ATOM     14 CL   UNL     1       1.859   6.557  20.619  0.00  0.00    +0.000 Cl
ATOM     15  C   UNL     1       1.464   4.051  21.207  0.00  0.00    +0.000 A 
ATOM     16  C   UNL     1       1.324   2.693  20.982  0.00  0.00    +0.000 A 
ATOM     17  C   UNL     1       1.692   2.163  19.752  0.00  0.00    +0.000 A 
ATOM     18  C   UNL     1       2.239   2.989  18.759  0.00  0.00    +0.000 A 
ATOM     19 CL   UNL     1       2.707   2.188  17.295  0.00  0.00    +0.000 Cl
ENDBRANCH  11  12
ENDBRANCH   4  11
BRANCH   7  20
ATOM     20  C   UNL     1       5.288   3.835  12.980  0.00  0.00    +0.000 C 
BRANCH  20  21
ATOM     21  C   UNL     1       6.472   3.499  12.082  0.00  0.00    +0.000 C 
BRANCH  21  22
ATOM     22  C   UNL     1       6.374   2.096  11.508  0.00  0.00    +0.000 C 
ATOM     23  O   UNL     1       5.353   1.467  11.342  0.00  0.00    +0.000 OA
BRANCH  22  24
ATOM     24  O   UNL     1       7.599   1.604  11.181  0.00  0.00    +0.000 OA
ATOM     25  H   UNL     1       8.210   2.276  10.824  0.00  0.00    +0.000 HD
ENDBRANCH  22  24
ENDBRANCH  21  22
ENDBRANCH  20  21
ENDBRANCH   7  20
TORSDOF 6
ENDMDL
MODEL 2
REMARK VINA RESULT:      -8.3      0.148      1.881
REMARK  Name = 
REMARK  7 active torsions:
REMARK  status: ('A' for Active; 'I' for Inactive)
REMARK    1  A    between atoms: C_1  and  C_2
REMARK    2  A    between atoms: N_4  and  C_5
REMARK    3  A    between atoms: C_5  and  C_6
REMARK    4  A    between atoms: C_16  and  C_17
REMARK    5  A    between atoms: C_17  and  C_18
REMARK    6  A    between atoms: C_18  and  C_19
REMARK    7  A    between atoms: C_19  and  O_21
REMARK                            x       y       z     vdW  Elec       q    Type
REMARK                         _______ _______ _______ _____ _____    ______ ____
ROOT
ATOM      1  C   UNL     1       7.774   6.121  19.032  0.00  0.00    +0.000 C 
ATOM      2  C   UNL     1       6.560   5.697  18.291  0.00  0.00    +0.000 A 
ATOM      3  C   UNL     1       5.278   5.669  18.776  0.00  0.00    +0.000 A 
ATOM      4  N   UNL     1       4.417   5.285  17.779  0.00  0.00    +0.000 N 
ATOM      5  C   UNL     1       5.144   5.017  16.633  0.00  0.00    +0.000 A 
ATOM      6  C   UNL     1       4.747   4.590  15.354  0.00  0.00    +0.000 A 
ATOM      7  C   UNL     1       5.728   4.403  14.362  0.00  0.00    +0.000 A 
ATOM      8  C   UNL     1       7.076   4.650  14.670  0.00  0.00    +0.000 A 
ATOM      9  C   UNL     1       7.457   5.086  15.942  0.00  0.00    +0.000 A 
ATOM     10  C   UNL     1       6.486   5.268  16.938  0.00  0.00    +0.000 A 
ENDROOT
BRANCH   4  11
ATOM     11  C   UNL     1       2.956   5.316  17.879  0.00  0.00    +0.000 C 
BRANCH  11  12
ATOM     12  C   UNL     1       2.405   4.408  18.959  0.00  0.00    +0.000 A 
ATOM     13  C   UNL     1       2.384   3.006  18.813  0.00  0.00    +0.000 A 
ATOM     14 CL   UNL     1       3.080   2.128  17.503  0.00  0.00    +0.000 Cl
ATOM     15  C   UNL     1       1.825   2.176  19.785  0.00  0.00    +0.000 A 
ATOM     16  C   UNL     1       1.354   2.707  20.972  0.00  0.00    +0.000 A 
ATOM     17  C   UNL     1       1.417   4.080  21.180  0.00  0.00    +0.000 A 
ATOM     18  C   UNL     1       1.916   4.926  20.178  0.00  0.00    +0.000 A 
ATOM     19 CL   UNL     1       1.885   6.619  20.546  0.00  0.00    +0.000 Cl
ENDBRANCH  11  12
ENDBRANCH   4  11
BRANCH   7  20
ATOM     20  C   UNL     1       5.328   3.901  12.988  0.00  0.00    +0.000 C 
BRANCH  20  21
ATOM     21  C   UNL     1       6.521   3.481  12.137  0.00  0.00    +0.000 C 
BRANCH  21  22
ATOM     22  C   UNL     1       6.319   2.115  11.504  0.00  0.00    +0.000 C 
ATOM     23  O   UNL     1       5.252   1.597  11.261  0.00  0.00    +0.000 OA
BRANCH  22  24
ATOM     24  O   UNL     1       7.506   1.515  11.222  0.00  0.00    +0.000 OA
ATOM     25  H   UNL     1       7.666   1.389  10.268  0.00  0.00    +0.000 HD
ENDBRANCH  22  24
ENDBRANCH  21  22
ENDBRANCH  20  21
ENDBRANCH   7  20
TORSDOF 6
ENDMDL
MODEL 3
REMARK VINA RESULT:      -7.8      1.082      2.075
REMARK  Name = 
REMARK  7 active torsions:
REMARK  status: ('A' for Active; 'I' for Inactive)
REMARK    1  A    between atoms: C_1  and  C_2
REMARK    2  A    between atoms: N_4  and  C_5
REMARK    3  A    between atoms: C_5  and  C_6
REMARK    4  A    between atoms: C_16  and  C_17
REMARK    5  A    between atoms: C_17  and  C_18
REMARK    6  A    between atoms: C_18  and  C_19
REMARK    7  A    between atoms: C_19  and  O_21
REMARK                            x       y       z     vdW  Elec       q    Type
REMARK                         _______ _______ _______ _____ _____    ______ ____
ROOT
ATOM      1  C   UNL     1       7.584   5.586  18.649  0.00  0.00    +0.000 C 
ATOM      2  C   UNL     1       6.563   4.974  17.764  0.00  0.00    +0.000 A 
ATOM      3  C   UNL     1       5.331   4.506  18.144  0.00  0.00    +0.000 A 
ATOM      4  N   UNL     1       4.643   4.073  17.038  0.00  0.00    +0.000 N 
ATOM      5  C   UNL     1       5.445   4.220  15.921  0.00  0.00    +0.000 A 
ATOM      6  C   UNL     1       5.221   3.924  14.565  0.00  0.00    +0.000 A 
ATOM      7  C   UNL     1       6.239   4.192  13.630  0.00  0.00    +0.000 A 
ATOM      8  C   UNL     1       7.450   4.750  14.071  0.00  0.00    +0.000 A 
ATOM      9  C   UNL     1       7.657   5.049  15.420  0.00  0.00    +0.000 A 
ATOM     10  C   UNL     1       6.650   4.780  16.359  0.00  0.00    +0.000 A 
ENDROOT
BRANCH   4  11
ATOM     11  C   UNL     1       3.233   3.677  17.034  0.00  0.00    +0.000 C 
BRANCH  11  12
ATOM     12  C   UNL     1       2.608   3.661  18.414  0.00  0.00    +0.000 A 
ATOM     13  C   UNL     1       2.581   2.495  19.206  0.00  0.00    +0.000 A 
ATOM     14 CL   UNL     1       3.348   1.003  18.811  0.00  0.00    +0.000 Cl
ATOM     15  C   UNL     1       1.955   2.469  20.451  0.00  0.00    +0.000 A 
ATOM     16  C   UNL     1       1.416   3.624  20.989  0.00  0.00    +0.000 A 
ATOM     17  C   UNL     1       1.480   4.809  20.265  0.00  0.00    +0.000 A 
ATOM     18  C   UNL     1       2.049   4.826  18.983  0.00  0.00    +0.000 A 
ATOM     19 CL   UNL     1       2.012   6.356  18.170  0.00  0.00    +0.000 Cl
ENDBRANCH  11  12
ENDBRANCH   4  11
BRANCH   7  20
ATOM     20  C   UNL     1       6.035   3.841  12.169  0.00  0.00    +0.000 C 
BRANCH  20  21
ATOM     21  C   UNL     1       5.482   2.436  11.965  0.00  0.00    +0.000 C 
BRANCH  21  22
ATOM     22  C   UNL     1       6.503   1.505  11.335  0.00  0.00    +0.000 C 
ATOM     23  O   UNL     1       7.575   1.833  10.879  0.00  0.00    +0.000 OA
BRANCH  22  24
ATOM     24  O   UNL     1       6.074   0.214  11.344  0.00  0.00    +0.000 OA
ATOM     25  H   UNL     1       5.616  -0.042  12.166  0.00  0.00    +0.000 HD
ENDBRANCH  22  24
ENDBRANCH  21  22
ENDBRANCH  20  21
ENDBRANCH   7  20
TORSDOF 6
ENDMDL
MODEL 4
REMARK VINA RESULT:      -7.7      1.580      2.345
REMARK  Name = 
REMARK  7 active torsions:
REMARK  status: ('A' for Active; 'I' for Inactive)
REMARK    1  A    between atoms: C_1  and  C_2
REMARK    2  A    between atoms: N_4  and  C_5
REMARK    3  A    between atoms: C_5  and  C_6
REMARK    4  A    between atoms: C_16  and  C_17
REMARK    5  A    between atoms: C_17  and  C_18
REMARK    6  A    between atoms: C_18  and  C_19
REMARK    7  A    between atoms: C_19  and  O_21
REMARK                            x       y       z     vdW  Elec       q    Type
REMARK                         _______ _______ _______ _____ _____    ______ ____
ROOT
ATOM      1  C   UNL     1       7.872   5.561  19.419  0.00  0.00    +0.000 C 
ATOM      2  C   UNL     1       6.650   5.177  18.669  0.00  0.00    +0.000 A 
ATOM      3  C   UNL     1       5.396   4.996  19.194  0.00  0.00    +0.000 A 
ATOM      4  N   UNL     1       4.512   4.711  18.183  0.00  0.00    +0.000 N 
ATOM      5  C   UNL     1       5.197   4.664  16.983  0.00  0.00    +0.000 A 
ATOM      6  C   UNL     1       4.765   4.408  15.670  0.00  0.00    +0.000 A 
ATOM      7  C   UNL     1       5.707   4.434  14.624  0.00  0.00    +0.000 A 
ATOM      8  C   UNL     1       7.052   4.717  14.914  0.00  0.00    +0.000 A 
ATOM      9  C   UNL     1       7.467   4.980  16.222  0.00  0.00    +0.000 A 
ATOM     10  C   UNL     1       6.536   4.951  17.271  0.00  0.00    +0.000 A 
ENDROOT
BRANCH   4  11
ATOM     11  C   UNL     1       3.057   4.635  18.343  0.00  0.00    +0.000 C 
BRANCH  11  12
ATOM     12  C   UNL     1       2.480   5.774  19.158  0.00  0.00    +0.000 A 
ATOM     13  C   UNL     1       1.886   5.562  20.418  0.00  0.00    +0.000 A 
ATOM     14 CL   UNL     1       1.849   4.061  21.265  0.00  0.00    +0.000 Cl
ATOM     15  C   UNL     1       1.305   6.605  21.139  0.00  0.00    +0.000 A 
ATOM     16  C   UNL     1       1.378   7.905  20.673  0.00  0.00    +0.000 A 
ATOM     17  C   UNL     1       2.013   8.163  19.464  0.00  0.00    +0.000 A 
ATOM     18  C   UNL     1       2.540   7.109  18.702  0.00  0.00    +0.000 A 
ATOM     19 CL   UNL     1       3.254   7.565  17.190  0.00  0.00    +0.000 Cl
ENDBRANCH  11  12
ENDBRANCH   4  11
BRANCH   7  20
ATOM     20  C   UNL     1       5.271   4.118  13.206  0.00  0.00    +0.000 C 
BRANCH  20  21
ATOM     21  C   UNL     1       6.292   3.286  12.441  0.00  0.00    +0.000 C 
BRANCH  21  22
ATOM     22  C   UNL     1       5.632   2.261  11.535  0.00  0.00    +0.000 C 
ATOM     23  O   UNL     1       4.513   2.334  11.079  0.00  0.00    +0.000 OA
BRANCH  22  24
ATOM     24  O   UNL     1       6.463   1.216  11.275  0.00  0.00    +0.000 OA
ATOM     25  H   UNL     1       7.352   1.487  10.978  0.00  0.00    +0.000 HD
ENDBRANCH  22  24
ENDBRANCH  21  22
ENDBRANCH  20  21
ENDBRANCH   7  20
TORSDOF 6
ENDMDL
MODEL 5
REMARK VINA RESULT:      -7.6      1.086      1.342
REMARK  Name = 
REMARK  7 active torsions:
REMARK  status: ('A' for Active; 'I' for Inactive)
REMARK    1  A    between atoms: C_1  and  C_2
REMARK    2  A    between atoms: N_4  and  C_5
REMARK    3  A    between atoms: C_5  and  C_6
REMARK    4  A    between atoms: C_16  and  C_17
REMARK    5  A    between atoms: C_17  and  C_18
REMARK    6  A    between atoms: C_18  and  C_19
REMARK    7  A    between atoms: C_19  and  O_21
REMARK                            x       y       z     vdW  Elec       q    Type
REMARK                         _______ _______ _______ _____ _____    ______ ____
ROOT
ATOM      1  C   UNL     1       7.735   5.586  18.514  0.00  0.00    +0.000 C 
ATOM      2  C   UNL     1       6.677   4.976  17.671  0.00  0.00    +0.000 A 
ATOM      3  C   UNL     1       5.460   4.514  18.101  0.00  0.00    +0.000 A 
ATOM      4  N   UNL     1       4.726   4.081  17.024  0.00  0.00    +0.000 N 
ATOM      5  C   UNL     1       5.483   4.224  15.875  0.00  0.00    +0.000 A 
ATOM      6  C   UNL     1       5.203   3.928  14.530  0.00  0.00    +0.000 A 
ATOM      7  C   UNL     1       6.183   4.190  13.555  0.00  0.00    +0.000 A 
ATOM      8  C   UNL     1       7.414   4.744  13.946  0.00  0.00    +0.000 A 
ATOM      9  C   UNL     1       7.676   5.045  15.285  0.00  0.00    +0.000 A 
ATOM     10  C   UNL     1       6.706   4.780  16.264  0.00  0.00    +0.000 A 
ENDROOT
BRANCH   4  11
ATOM     11  C   UNL     1       3.315   3.691  17.078  0.00  0.00    +0.000 C 
BRANCH  11  12
ATOM     12  C   UNL     1       2.727   3.747  18.473  0.00  0.00    +0.000 A 
ATOM     13  C   UNL     1       2.224   4.944  19.022  0.00  0.00    +0.000 A 
ATOM     14 CL   UNL     1       2.073   6.441  18.181  0.00  0.00    +0.000 Cl
ATOM     15  C   UNL     1       1.736   5.004  20.326  0.00  0.00    +0.000 A 
ATOM     16  C   UNL     1       1.646   3.856  21.094  0.00  0.00    +0.000 A 
ATOM     17  C   UNL     1       2.072   2.644  20.564  0.00  0.00    +0.000 A 
ATOM     18  C   UNL     1       2.626   2.590  19.276  0.00  0.00    +0.000 A 
ATOM     19 CL   UNL     1       3.168   1.026  18.762  0.00  0.00    +0.000 Cl
ENDBRANCH  11  12
ENDBRANCH   4  11
BRANCH   7  20
ATOM     20  C   UNL     1       5.920   3.839  12.103  0.00  0.00    +0.000 C 
BRANCH  20  21
ATOM     21  C   UNL     1       5.399   2.418  11.920  0.00  0.00    +0.000 C 
BRANCH  21  22
ATOM     22  C   UNL     1       6.461   1.487  11.363  0.00  0.00    +0.000 C 
ATOM     23  O   UNL     1       7.555   1.818  10.962  0.00  0.00    +0.000 OA
BRANCH  22  24
ATOM     24  O   UNL     1       6.043   0.193  11.366  0.00  0.00    +0.000 OA
ATOM     25  H   UNL     1       6.613  -0.402  11.888  0.00  0.00    +0.000 HD
ENDBRANCH  22  24
ENDBRANCH  21  22
ENDBRANCH  20  21
ENDBRANCH   7  20
TORSDOF 6
ENDMDL
MODEL 6
REMARK VINA RESULT:      -7.5      3.542      5.331
REMARK  Name = 
REMARK  7 active torsions:
REMARK  status: ('A' for Active; 'I' for Inactive)
REMARK    1  A    between atoms: C_1  and  C_2
REMARK    2  A    between atoms: N_4  and  C_5
REMARK    3  A    between atoms: C_5  and  C_6
REMARK    4  A    between atoms: C_16  and  C_17
REMARK    5  A    between atoms: C_17  and  C_18
REMARK    6  A    between atoms: C_18  and  C_19
REMARK    7  A    between atoms: C_19  and  O_21
REMARK                            x       y       z     vdW  Elec       q    Type
REMARK                         _______ _______ _______ _____ _____    ______ ____
ROOT
ATOM      1  C   UNL     1       1.050   3.244  20.779  0.00  0.00    +0.000 C 
ATOM      2  C   UNL     1       1.602   4.519  20.259  0.00  0.00    +0.000 A 
ATOM      3  C   UNL     1       1.380   5.772  20.771  0.00  0.00    +0.000 A 
ATOM      4  N   UNL     1       2.111   6.694  20.064  0.00  0.00    +0.000 N 
ATOM      5  C   UNL     1       2.793   6.047  19.049  0.00  0.00    +0.000 A 
ATOM      6  C   UNL     1       3.661   6.528  18.055  0.00  0.00    +0.000 A 
ATOM      7  C   UNL     1       4.225   5.618  17.141  0.00  0.00    +0.000 A 
ATOM      8  C   UNL     1       3.909   4.253  17.246  0.00  0.00    +0.000 A 
ATOM      9  C   UNL     1       3.053   3.785  18.245  0.00  0.00    +0.000 A 
ATOM     10  C   UNL     1       2.483   4.687  19.156  0.00  0.00    +0.000 A 
ENDROOT
BRANCH   4  11
ATOM     11  C   UNL     1       2.263   8.102  20.438  0.00  0.00    +0.000 C 
BRANCH  11  12
ATOM     12  C   UNL     1       1.084   8.963  20.037  0.00  0.00    +0.000 A 
ATOM     13  C   UNL     1       0.085   9.335  20.959  0.00  0.00    +0.000 A 
ATOM     14 CL   UNL     1       0.115   9.005  22.651  0.00  0.00    +0.000 Cl
ATOM     15  C   UNL     1      -1.028  10.081  20.573  0.00  0.00    +0.000 A 
ATOM     16  C   UNL     1      -1.137  10.559  19.279  0.00  0.00    +0.000 A 
ATOM     17  C   UNL     1      -0.140  10.267  18.357  0.00  0.00    +0.000 A 
ATOM     18  C   UNL     1       0.950   9.461  18.722  0.00  0.00    +0.000 A 
ATOM     19 CL   UNL     1       2.090   9.130  17.460  0.00  0.00    +0.000 Cl
ENDBRANCH  11  12
ENDBRANCH   4  11
BRANCH   7  20
ATOM     20  C   UNL     1       5.131   6.120  16.033  0.00  0.00    +0.000 C 
BRANCH  20  21
ATOM     21  C   UNL     1       5.650   5.002  15.137  0.00  0.00    +0.000 C 
BRANCH  21  22
ATOM     22  C   UNL     1       7.167   4.978  15.073  0.00  0.00    +0.000 C 
ATOM     23  O   UNL     1       7.844   5.369  14.147  0.00  0.00    +0.000 OA
BRANCH  22  24
ATOM     24  O   UNL     1       7.707   4.459  16.208  0.00  0.00    +0.000 OA
ATOM     25  H   UNL     1       7.201   4.671  17.015  0.00  0.00    +0.000 HD
ENDBRANCH  22  24
ENDBRANCH  21  22
ENDBRANCH  20  21
ENDBRANCH   7  20
TORSDOF 6
ENDMDL
MODEL 7
REMARK VINA RESULT:      -7.4      1.381      1.750
REMARK  Name = 
REMARK  7 active torsions:
REMARK  status: ('A' for Active; 'I' for Inactive)
REMARK    1  A    between atoms: C_1  and  C_2
REMARK    2  A    between atoms: N_4  and  C_5
REMARK    3  A    between atoms: C_5  and  C_6
REMARK    4  A    between atoms: C_16  and  C_17
REMARK    5  A    between atoms: C_17  and  C_18
REMARK    6  A    between atoms: C_18  and  C_19
REMARK    7  A    between atoms: C_19  and  O_21
REMARK                            x       y       z     vdW  Elec       q    Type
REMARK                         _______ _______ _______ _____ _____    ______ ____
ROOT
ATOM      1  C   UNL     1       7.465   6.033  18.909  0.00  0.00    +0.000 C 
ATOM      2  C   UNL     1       6.600   5.080  18.170  0.00  0.00    +0.000 A 
ATOM      3  C   UNL     1       5.686   4.217  18.717  0.00  0.00    +0.000 A 
ATOM      4  N   UNL     1       5.032   3.545  17.715  0.00  0.00    +0.000 N 
ATOM      5  C   UNL     1       5.548   3.940  16.494  0.00  0.00    +0.000 A 
ATOM      6  C   UNL     1       5.235   3.554  15.179  0.00  0.00    +0.000 A 
ATOM      7  C   UNL     1       5.937   4.142  14.109  0.00  0.00    +0.000 A 
ATOM      8  C   UNL     1       6.928   5.100  14.380  0.00  0.00    +0.000 A 
ATOM      9  C   UNL     1       7.222   5.483  15.690  0.00  0.00    +0.000 A 
ATOM     10  C   UNL     1       6.532   4.898  16.762  0.00  0.00    +0.000 A 
ENDROOT
BRANCH   4  11
ATOM     11  C   UNL     1       3.867   2.678  17.913  0.00  0.00    +0.000 C 
BRANCH  11  12
ATOM     12  C   UNL     1       3.045   3.042  19.131  0.00  0.00    +0.000 A 
ATOM     13  C   UNL     1       1.901   3.860  19.041  0.00  0.00    +0.000 A 
ATOM     14 CL   UNL     1       1.200   4.437  17.575  0.00  0.00    +0.000 Cl
ATOM     15  C   UNL     1       1.179   4.240  20.172  0.00  0.00    +0.000 A 
ATOM     16  C   UNL     1       1.518   3.743  21.418  0.00  0.00    +0.000 A 
ATOM     17  C   UNL     1       2.601   2.882  21.539  0.00  0.00    +0.000 A 
ATOM     18  C   UNL     1       3.372   2.550  20.414  0.00  0.00    +0.000 A 
ATOM     19 CL   UNL     1       4.727   1.512  20.716  0.00  0.00    +0.000 Cl
ENDBRANCH  11  12
ENDBRANCH   4  11
BRANCH   7  20
ATOM     20  C   UNL     1       5.646   3.709  12.685  0.00  0.00    +0.000 C 
BRANCH  20  21
ATOM     21  C   UNL     1       6.908   3.503  11.857  0.00  0.00    +0.000 C 
BRANCH  21  22
ATOM     22  C   UNL     1       6.974   2.112  11.251  0.00  0.00    +0.000 C 
ATOM     23  O   UNL     1       7.814   1.715  10.474  0.00  0.00    +0.000 OA
BRANCH  22  24
ATOM     24  O   UNL     1       5.956   1.326  11.694  0.00  0.00    +0.000 OA
ATOM     25  H   UNL     1       6.133   0.903  12.555  0.00  0.00    +0.000 HD
ENDBRANCH  22  24
ENDBRANCH  21  22
ENDBRANCH  20  21
ENDBRANCH   7  20
TORSDOF 6
ENDMDL
MODEL 8
REMARK VINA RESULT:      -7.3      3.675      5.550
REMARK  Name = 
REMARK  7 active torsions:
REMARK  status: ('A' for Active; 'I' for Inactive)
REMARK    1  A    between atoms: C_1  and  C_2
REMARK    2  A    between atoms: N_4  and  C_5
REMARK    3  A    between atoms: C_5  and  C_6
REMARK    4  A    between atoms: C_16  and  C_17
REMARK    5  A    between atoms: C_17  and  C_18
REMARK    6  A    between atoms: C_18  and  C_19
REMARK    7  A    between atoms: C_19  and  O_21
REMARK                            x       y       z     vdW  Elec       q    Type
REMARK                         _______ _______ _______ _____ _____    ______ ____
ROOT
ATOM      1  C   UNL     1       0.578   2.774  19.388  0.00  0.00    +0.000 C 
ATOM      2  C   UNL     1       1.374   4.022  19.278  0.00  0.00    +0.000 A 
ATOM      3  C   UNL     1       1.175   5.179  19.986  0.00  0.00    +0.000 A 
ATOM      4  N   UNL     1       2.149   6.090  19.661  0.00  0.00    +0.000 N 
ATOM      5  C   UNL     1       2.977   5.542  18.698  0.00  0.00    +0.000 A 
ATOM      6  C   UNL     1       4.104   6.055  18.034  0.00  0.00    +0.000 A 
ATOM      7  C   UNL     1       4.765   5.250  17.087  0.00  0.00    +0.000 A 
ATOM      8  C   UNL     1       4.286   3.954  16.831  0.00  0.00    +0.000 A 
ATOM      9  C   UNL     1       3.172   3.451  17.506  0.00  0.00    +0.000 A 
ATOM     10  C   UNL     1       2.504   4.249  18.447  0.00  0.00    +0.000 A 
ENDROOT
BRANCH   4  11
ATOM     11  C   UNL     1       2.361   7.366  20.348  0.00  0.00    +0.000 C 
BRANCH  11  12
ATOM     12  C   UNL     1       1.393   8.449  19.922  0.00  0.00    +0.000 A 
ATOM     13  C   UNL     1       0.429   8.977  20.805  0.00  0.00    +0.000 A 
ATOM     14 CL   UNL     1       0.295   8.595  22.480  0.00  0.00    +0.000 Cl
ATOM     15  C   UNL     1      -0.498   9.934  20.392  0.00  0.00    +0.000 A 
ATOM     16  C   UNL     1      -0.437  10.463  19.115  0.00  0.00    +0.000 A 
ATOM     17  C   UNL     1       0.540  10.014  18.235  0.00  0.00    +0.000 A 
ATOM     18  C   UNL     1       1.433   9.004  18.624  0.00  0.00    +0.000 A 
ATOM     19 CL   UNL     1       2.563   8.499  17.411  0.00  0.00    +0.000 Cl
ENDBRANCH  11  12
ENDBRANCH   4  11
BRANCH   7  20
ATOM     20  C   UNL     1       5.957   5.798  16.327  0.00  0.00    +0.000 C 
BRANCH  20  21
ATOM     21  C   UNL     1       7.085   6.260  17.242  0.00  0.00    +0.000 C 
BRANCH  21  22
ATOM     22  C   UNL     1       7.666   5.117  18.056  0.00  0.00    +0.000 C 
ATOM     23  O   UNL     1       7.744   5.073  19.263  0.00  0.00    +0.000 OA
BRANCH  22  24
ATOM     24  O   UNL     1       8.100   4.106  17.256  0.00  0.00    +0.000 OA
ATOM     25  H   UNL     1       8.011   3.221  17.659  0.00  0.00    +0.000 HD
ENDBRANCH  22  24
ENDBRANCH  21  22
ENDBRANCH  20  21
ENDBRANCH   7  20
TORSDOF 6
ENDMDL
MODEL 9
REMARK VINA RESULT:      -7.2      3.417      5.447
REMARK  Name = 
REMARK  7 active torsions:
REMARK  status: ('A' for Active; 'I' for Inactive)
REMARK    1  A    between atoms: C_1  and  C_2
REMARK    2  A    between atoms: N_4  and  C_5
REMARK    3  A    between atoms: C_5  and  C_6
REMARK    4  A    between atoms: C_16  and  C_17
REMARK    5  A    between atoms: C_17  and  C_18
REMARK    6  A    between atoms: C_18  and  C_19
REMARK    7  A    between atoms: C_19  and  O_21
REMARK                            x       y       z     vdW  Elec       q    Type
REMARK                         _______ _______ _______ _____ _____    ______ ____
ROOT
ATOM      1  C   UNL     1       0.904   3.176  20.604  0.00  0.00    +0.000 C 
ATOM      2  C   UNL     1       1.515   4.460  20.182  0.00  0.00    +0.000 A 
ATOM      3  C   UNL     1       1.256   5.698  20.711  0.00  0.00    +0.000 A 
ATOM      4  N   UNL     1       2.060   6.633  20.109  0.00  0.00    +0.000 N 
ATOM      5  C   UNL     1       2.831   6.011  19.143  0.00  0.00    +0.000 A 
ATOM      6  C   UNL     1       3.797   6.513  18.254  0.00  0.00    +0.000 A 
ATOM      7  C   UNL     1       4.438   5.625  17.369  0.00  0.00    +0.000 A 
ATOM      8  C   UNL     1       4.101   4.261  17.398  0.00  0.00    +0.000 A 
ATOM      9  C   UNL     1       3.147   3.773  18.294  0.00  0.00    +0.000 A 
ATOM     10  C   UNL     1       2.500   4.653  19.175  0.00  0.00    +0.000 A 
ENDROOT
BRANCH   4  11
ATOM     11  C   UNL     1       2.189   8.027  20.542  0.00  0.00    +0.000 C 
BRANCH  11  12
ATOM     12  C   UNL     1       1.068   8.918  20.047  0.00  0.00    +0.000 A 
ATOM     13  C   UNL     1       1.039   9.415  18.729  0.00  0.00    +0.000 A 
ATOM     14 CL   UNL     1       2.147   8.993  17.478  0.00  0.00    +0.000 Cl
ATOM     15  C   UNL     1       0.035  10.280  18.294  0.00  0.00    +0.000 A 
ATOM     16  C   UNL     1      -1.020  10.605  19.128  0.00  0.00    +0.000 A 
ATOM     17  C   UNL     1      -1.059  10.083  20.415  0.00  0.00    +0.000 A 
ATOM     18  C   UNL     1      -0.018   9.265  20.880  0.00  0.00    +0.000 A 
ATOM     19 CL   UNL     1      -0.166   8.729  22.521  0.00  0.00    +0.000 Cl
ENDBRANCH  11  12
ENDBRANCH   4  11
BRANCH   7  20
ATOM     20  C   UNL     1       5.451   6.151  16.371  0.00  0.00    +0.000 C 
BRANCH  20  21
ATOM     21  C   UNL     1       5.336   5.491  15.002  0.00  0.00    +0.000 C 
BRANCH  21  22
ATOM     22  C   UNL     1       6.619   4.787  14.597  0.00  0.00    +0.000 C 
ATOM     23  O   UNL     1       7.711   5.302  14.502  0.00  0.00    +0.000 OA
BRANCH  22  24
ATOM     24  O   UNL     1       6.408   3.467  14.348  0.00  0.00    +0.000 OA
ATOM     25  H   UNL     1       5.690   3.077  14.882  0.00  0.00    +0.000 HD
ENDBRANCH  22  24
ENDBRANCH  21  22
ENDBRANCH  20  21
ENDBRANCH   7  20
TORSDOF 6
ENDMDL
