MODEL 1
REMARK VINA RESULT:      -8.2      0.000      0.000
REMARK  Name = 
REMARK  9 active torsions:
REMARK  status: ('A' for Active; 'I' for Inactive)
REMARK    1  A    between atoms: C_1  and  O_2
REMARK    2  A    between atoms: O_2  and  C_3
REMARK    3  A    between atoms: C_8  and  N_9
REMARK    4  A    between atoms: N_12  and  C_13
REMARK    5  A    between atoms: C_13  and  C_14
REMARK    6  A    between atoms: C_14  and  C_15
REMARK    7  A    between atoms: C_15  and  C_16
REMARK    8  A    between atoms: C_16  and  N_17
REMARK    9  A    between atoms: N_28  and  C_29
REMARK                            x       y       z     vdW  Elec       q    Type
REMARK                         _______ _______ _______ _____ _____    ______ ____
ROOT
ATOM      1  C   UNL     1       3.040   7.033  19.070  0.00  0.00    +0.000 C 
ENDROOT
BRANCH   1   2
ATOM      2  N   UNL     1       3.932   5.988  18.556  0.00  0.00    +0.000 N 
ATOM      3  C   UNL     1       4.956   6.435  17.711  0.00  0.00    +0.000 A 
ATOM      4  O   UNL     1       5.429   7.570  17.738  0.00  0.00    +0.000 OA
ATOM      5  C   UNL     1       5.430   5.514  16.678  0.00  0.00    +0.000 A 
ATOM      6  C   UNL     1       6.621   5.778  15.986  0.00  0.00    +0.000 A 
ATOM      7  C   UNL     1       7.053   4.909  14.983  0.00  0.00    +0.000 A 
ATOM      8  C   UNL     1       6.294   3.785  14.663  0.00  0.00    +0.000 A 
ATOM      9  C   UNL     1       5.090   3.548  15.325  0.00  0.00    +0.000 A 
ATOM     10  C   UNL     1       4.651   4.426  16.327  0.00  0.00    +0.000 A 
ATOM     11  C   UNL     1       3.385   4.155  17.029  0.00  0.00    +0.000 A 
ATOM     12  O   UNL     1       2.597   3.391  16.480  0.00  0.00    +0.000 OA
ATOM     13  N   UNL     1       3.275   4.716  18.310  0.00  0.00    +0.000 N 
BRANCH  13  14
ATOM     14  C   UNL     1       2.689   3.957  19.401  0.00  0.00    +0.000 A 
ATOM     15  C   UNL     1       3.472   3.246  20.327  0.00  0.00    +0.000 A 
ATOM     16  C   UNL     1       2.909   2.568  21.417  0.00  0.00    +0.000 A 
ATOM     17  C   UNL     1       1.537   2.576  21.610  0.00  0.00    +0.000 A 
ATOM     18  C   UNL     1       0.731   3.259  20.707  0.00  0.00    +0.000 A 
ATOM     19  C   UNL     1       1.304   3.945  19.624  0.00  0.00    +0.000 A 
ENDBRANCH  13  14
ENDBRANCH   1   2
BRANCH   1  20
ATOM     20  C   UNL     1       2.033   7.535  18.023  0.00  0.00    +0.000 C 
BRANCH  20  21
ATOM     21  C   UNL     1       2.052   9.059  17.882  0.00  0.00    +0.000 C 
BRANCH  21  22
ATOM     22  C   UNL     1       0.840   9.754  18.518  0.00  0.00    +0.000 C 
BRANCH  22  26
ATOM     23  N   UNL     1      -0.937  11.630  21.070  0.00  0.00    +0.000 N 
ATOM     24  C   UNL     1      -1.189  11.823  19.639  0.00  0.00    +0.000 C 
ATOM     25  C   UNL     1       0.132  12.088  18.884  0.00  0.00    +0.000 C 
ATOM     26  N   UNL     1       1.183  11.058  19.102  0.00  0.00    +0.000 NA
ATOM     27  C   UNL     1       1.402  10.942  20.564  0.00  0.00    +0.000 C 
ATOM     28  C   UNL     1       0.130  10.666  21.397  0.00  0.00    +0.000 C 
BRANCH  23  34
ATOM     29  C   UNL     1      -0.816  13.525  22.685  0.00  0.00    +0.000 A 
ATOM     30  C   UNL     1      -1.460  14.260  23.700  0.00  0.00    +0.000 A 
ATOM     31  C   UNL     1      -2.760  13.957  24.094  0.00  0.00    +0.000 A 
ATOM     32  C   UNL     1      -3.435  12.915  23.482  0.00  0.00    +0.000 A 
ATOM     33  C   UNL     1      -2.802  12.174  22.485  0.00  0.00    +0.000 A 
ATOM     34  C   UNL     1      -1.478  12.436  22.063  0.00  0.00    +0.000 A 
BRANCH  29  36
ATOM     35  C   UNL     1       0.699  14.853  21.431  0.00  0.00    +0.000 C 
ATOM     36  O   UNL     1       0.495  13.782  22.349  0.00  0.00    +0.000 OA
ENDBRANCH  29  36
ENDBRANCH  23  34
ENDBRANCH  22  26
ENDBRANCH  21  22
ENDBRANCH  20  21
ENDBRANCH   1  20
TORSDOF 8
ENDMDL
MODEL 2
REMARK VINA RESULT:      -8.0      0.593      1.034
REMARK  Name = 
REMARK  9 active torsions:
REMARK  status: ('A' for Active; 'I' for Inactive)
REMARK    1  A    between atoms: C_1  and  O_2
REMARK    2  A    between atoms: O_2  and  C_3
REMARK    3  A    between atoms: C_8  and  N_9
REMARK    4  A    between atoms: N_12  and  C_13
REMARK    5  A    between atoms: C_13  and  C_14
REMARK    6  A    between atoms: C_14  and  C_15
REMARK    7  A    between atoms: C_15  and  C_16
REMARK    8  A    between atoms: C_16  and  N_17
REMARK    9  A    between atoms: N_28  and  C_29
REMARK                            x       y       z     vdW  Elec       q    Type
REMARK                         _______ _______ _______ _____ _____    ______ ____
ROOT
ATOM      1  C   UNL     1       2.993   7.134  18.994  0.00  0.00    +0.000 C 
ENDROOT
BRANCH   1   2
ATOM      2  N   UNL     1       3.894   6.079  18.516  0.00  0.00    +0.000 N 
ATOM      3  C   UNL     1       4.910   6.505  17.651  0.00  0.00    +0.000 A 
ATOM      4  O   UNL     1       5.371   7.644  17.634  0.00  0.00    +0.000 OA
ATOM      5  C   UNL     1       5.390   5.550  16.652  0.00  0.00    +0.000 A 
ATOM      6  C   UNL     1       6.575   5.799  15.946  0.00  0.00    +0.000 A 
ATOM      7  C   UNL     1       7.013   4.897  14.975  0.00  0.00    +0.000 A 
ATOM      8  C   UNL     1       6.264   3.754  14.700  0.00  0.00    +0.000 A 
ATOM      9  C   UNL     1       5.065   3.530  15.376  0.00  0.00    +0.000 A 
ATOM     10  C   UNL     1       4.621   4.441  16.345  0.00  0.00    +0.000 A 
ATOM     11  C   UNL     1       3.360   4.185  17.062  0.00  0.00    +0.000 A 
ATOM     12  O   UNL     1       2.577   3.392  16.546  0.00  0.00    +0.000 OA
ATOM     13  N   UNL     1       3.249   4.793  18.321  0.00  0.00    +0.000 N 
BRANCH  13  14
ATOM     14  C   UNL     1       2.674   4.070  19.442  0.00  0.00    +0.000 A 
ATOM     15  C   UNL     1       1.292   4.057  19.698  0.00  0.00    +0.000 A 
ATOM     16  C   UNL     1       0.732   3.306  20.741  0.00  0.00    +0.000 A 
ATOM     17  C   UNL     1       1.544   2.548  21.568  0.00  0.00    +0.000 A 
ATOM     18  C   UNL     1       2.916   2.547  21.352  0.00  0.00    +0.000 A 
ATOM     19  C   UNL     1       3.469   3.292  20.298  0.00  0.00    +0.000 A 
ENDBRANCH  13  14
ENDBRANCH   1   2
BRANCH   1  20
ATOM     20  C   UNL     1       2.132   7.744  17.877  0.00  0.00    +0.000 C 
BRANCH  20  21
ATOM     21  C   UNL     1       1.427   9.028  18.320  0.00  0.00    +0.000 C 
BRANCH  21  22
ATOM     22  C   UNL     1       0.935   8.993  19.774  0.00  0.00    +0.000 C 
BRANCH  22  26
ATOM     23  N   UNL     1      -0.986  11.355  21.755  0.00  0.00    +0.000 N 
ATOM     24  C   UNL     1      -0.661  11.597  20.345  0.00  0.00    +0.000 C 
ATOM     25  C   UNL     1       0.855  11.436  20.100  0.00  0.00    +0.000 C 
ATOM     26  N   UNL     1       1.418  10.138  20.558  0.00  0.00    +0.000 NA
ATOM     27  C   UNL     1       1.077   9.980  21.992  0.00  0.00    +0.000 C 
ATOM     28  C   UNL     1      -0.427  10.116  22.325  0.00  0.00    +0.000 C 
BRANCH  23  34
ATOM     29  C   UNL     1      -0.975  13.516  22.997  0.00  0.00    +0.000 A 
ATOM     30  C   UNL     1      -1.666  14.391  23.859  0.00  0.00    +0.000 A 
ATOM     31  C   UNL     1      -2.954  14.101  24.297  0.00  0.00    +0.000 A 
ATOM     32  C   UNL     1      -3.572  12.933  23.883  0.00  0.00    +0.000 A 
ATOM     33  C   UNL     1      -2.891  12.055  23.041  0.00  0.00    +0.000 A 
ATOM     34  C   UNL     1      -1.577  12.300  22.582  0.00  0.00    +0.000 A 
BRANCH  29  36
ATOM     35  C   UNL     1       0.508  14.860  21.721  0.00  0.00    +0.000 C 
ATOM     36  O   UNL     1       0.326  13.771  22.624  0.00  0.00    +0.000 OA
ENDBRANCH  29  36
ENDBRANCH  23  34
ENDBRANCH  22  26
ENDBRANCH  21  22
ENDBRANCH  20  21
ENDBRANCH   1  20
TORSDOF 8
ENDMDL
MODEL 3
REMARK VINA RESULT:      -8.0      0.823      1.167
REMARK  Name = 
REMARK  9 active torsions:
REMARK  status: ('A' for Active; 'I' for Inactive)
REMARK    1  A    between atoms: C_1  and  O_2
REMARK    2  A    between atoms: O_2  and  C_3
REMARK    3  A    between atoms: C_8  and  N_9
REMARK    4  A    between atoms: N_12  and  C_13
REMARK    5  A    between atoms: C_13  and  C_14
REMARK    6  A    between atoms: C_14  and  C_15
REMARK    7  A    between atoms: C_15  and  C_16
REMARK    8  A    between atoms: C_16  and  N_17
REMARK    9  A    between atoms: N_28  and  C_29
REMARK                            x       y       z     vdW  Elec       q    Type
REMARK                         _______ _______ _______ _____ _____    ______ ____
ROOT
ATOM      1  C   UNL     1       3.156   7.005  19.119  0.00  0.00    +0.000 C 
ENDROOT
BRANCH   1   2
ATOM      2  N   UNL     1       4.018   5.950  18.574  0.00  0.00    +0.000 N 
ATOM      3  C   UNL     1       5.037   6.391  17.719  0.00  0.00    +0.000 A 
ATOM      4  O   UNL     1       5.532   7.515  17.755  0.00  0.00    +0.000 OA
ATOM      5  C   UNL     1       5.475   5.477  16.665  0.00  0.00    +0.000 A 
ATOM      6  C   UNL     1       6.659   5.727  15.957  0.00  0.00    +0.000 A 
ATOM      7  C   UNL     1       7.057   4.865  14.934  0.00  0.00    +0.000 A 
ATOM      8  C   UNL     1       6.271   3.761  14.609  0.00  0.00    +0.000 A 
ATOM      9  C   UNL     1       5.073   3.538  15.289  0.00  0.00    +0.000 A 
ATOM     10  C   UNL     1       4.669   4.409  16.311  0.00  0.00    +0.000 A 
ATOM     11  C   UNL     1       3.410   4.153  17.031  0.00  0.00    +0.000 A 
ATOM     12  O   UNL     1       2.597   3.412  16.484  0.00  0.00    +0.000 OA
ATOM     13  N   UNL     1       3.332   4.696  18.321  0.00  0.00    +0.000 N 
BRANCH  13  14
ATOM     14  C   UNL     1       2.749   3.932  19.411  0.00  0.00    +0.000 A 
ATOM     15  C   UNL     1       3.531   3.173  20.297  0.00  0.00    +0.000 A 
ATOM     16  C   UNL     1       2.975   2.489  21.387  0.00  0.00    +0.000 A 
ATOM     17  C   UNL     1       1.610   2.540  21.618  0.00  0.00    +0.000 A 
ATOM     18  C   UNL     1       0.804   3.271  20.754  0.00  0.00    +0.000 A 
ATOM     19  C   UNL     1       1.371   3.963  19.672  0.00  0.00    +0.000 A 
ENDBRANCH  13  14
ENDBRANCH   1   2
BRANCH   1  20
ATOM     20  C   UNL     1       1.986   7.367  18.191  0.00  0.00    +0.000 C 
BRANCH  20  21
ATOM     21  C   UNL     1       2.146   8.756  17.567  0.00  0.00    +0.000 C 
BRANCH  21  22
ATOM     22  C   UNL     1       1.641   9.897  18.461  0.00  0.00    +0.000 C 
BRANCH  22  26
ATOM     23  N   UNL     1      -0.285  11.917  20.785  0.00  0.00    +0.000 N 
ATOM     24  C   UNL     1       0.839  11.081  21.219  0.00  0.00    +0.000 C 
ATOM     25  C   UNL     1       0.669   9.633  20.712  0.00  0.00    +0.000 C 
ATOM     26  N   UNL     1       0.458   9.516  19.244  0.00  0.00    +0.000 NA
ATOM     27  C   UNL     1      -0.708  10.361  18.888  0.00  0.00    +0.000 C 
ATOM     28  C   UNL     1      -0.614  11.833  19.351  0.00  0.00    +0.000 C 
BRANCH  23  34
ATOM     29  C   UNL     1      -1.257  13.983  21.784  0.00  0.00    +0.000 A 
ATOM     30  C   UNL     1      -2.144  14.539  22.728  0.00  0.00    +0.000 A 
ATOM     31  C   UNL     1      -2.939  13.729  23.532  0.00  0.00    +0.000 A 
ATOM     32  C   UNL     1      -2.860  12.352  23.409  0.00  0.00    +0.000 A 
ATOM     33  C   UNL     1      -1.975  11.793  22.488  0.00  0.00    +0.000 A 
ATOM     34  C   UNL     1      -1.138  12.575  21.660  0.00  0.00    +0.000 A 
BRANCH  29  36
ATOM     35  C   UNL     1      -1.058  15.615  20.073  0.00  0.00    +0.000 C 
ATOM     36  O   UNL     1      -0.420  14.786  21.042  0.00  0.00    +0.000 OA
ENDBRANCH  29  36
ENDBRANCH  23  34
ENDBRANCH  22  26
ENDBRANCH  21  22
ENDBRANCH  20  21
ENDBRANCH   1  20
TORSDOF 8
ENDMDL
MODEL 4
REMARK VINA RESULT:      -7.9      1.222      1.911
REMARK  Name = 
REMARK  9 active torsions:
REMARK  status: ('A' for Active; 'I' for Inactive)
REMARK    1  A    between atoms: C_1  and  O_2
REMARK    2  A    between atoms: O_2  and  C_3
REMARK    3  A    between atoms: C_8  and  N_9
REMARK    4  A    between atoms: N_12  and  C_13
REMARK    5  A    between atoms: C_13  and  C_14
REMARK    6  A    between atoms: C_14  and  C_15
REMARK    7  A    between atoms: C_15  and  C_16
REMARK    8  A    between atoms: C_16  and  N_17
REMARK    9  A    between atoms: N_28  and  C_29
REMARK                            x       y       z     vdW  Elec       q    Type
REMARK                         _______ _______ _______ _____ _____    ______ ____
ROOT
ATOM      1  C   UNL     1       3.183   6.971  19.126  0.00  0.00    +0.000 C 
ENDROOT
BRANCH   1   2
ATOM      2  N   UNL     1       4.036   5.912  18.574  0.00  0.00    +0.000 N 
ATOM      3  C   UNL     1       5.059   6.349  17.723  0.00  0.00    +0.000 A 
ATOM      4  O   UNL     1       5.565   7.469  17.768  0.00  0.00    +0.000 OA
ATOM      5  C   UNL     1       5.490   5.438  16.662  0.00  0.00    +0.000 A 
ATOM      6  C   UNL     1       6.677   5.683  15.957  0.00  0.00    +0.000 A 
ATOM      7  C   UNL     1       7.069   4.825  14.929  0.00  0.00    +0.000 A 
ATOM      8  C   UNL     1       6.272   3.730  14.596  0.00  0.00    +0.000 A 
ATOM      9  C   UNL     1       5.072   3.513  15.273  0.00  0.00    +0.000 A 
ATOM     10  C   UNL     1       4.675   4.381  16.301  0.00  0.00    +0.000 A 
ATOM     11  C   UNL     1       3.412   4.131  17.017  0.00  0.00    +0.000 A 
ATOM     12  O   UNL     1       2.593   3.402  16.464  0.00  0.00    +0.000 OA
ATOM     13  N   UNL     1       3.339   4.666  18.311  0.00  0.00    +0.000 N 
BRANCH  13  14
ATOM     14  C   UNL     1       2.747   3.900  19.395  0.00  0.00    +0.000 A 
ATOM     15  C   UNL     1       3.526   3.190  20.325  0.00  0.00    +0.000 A 
ATOM     16  C   UNL     1       2.959   2.505  21.408  0.00  0.00    +0.000 A 
ATOM     17  C   UNL     1       1.585   2.504  21.589  0.00  0.00    +0.000 A 
ATOM     18  C   UNL     1       0.783   3.185  20.681  0.00  0.00    +0.000 A 
ATOM     19  C   UNL     1       1.360   3.878  19.606  0.00  0.00    +0.000 A 
ENDBRANCH  13  14
ENDBRANCH   1   2
BRANCH   1  20
ATOM     20  C   UNL     1       2.155   7.505  18.116  0.00  0.00    +0.000 C 
BRANCH  20  21
ATOM     21  C   UNL     1       2.214   9.028  17.976  0.00  0.00    +0.000 C 
BRANCH  21  22
ATOM     22  C   UNL     1       0.836   9.690  17.839  0.00  0.00    +0.000 C 
BRANCH  22  26
ATOM     23  N   UNL     1      -0.401  12.710  19.433  0.00  0.00    +0.000 N 
ATOM     24  C   UNL     1       0.945  12.186  19.686  0.00  0.00    +0.000 C 
ATOM     25  C   UNL     1       0.883  10.697  20.090  0.00  0.00    +0.000 C 
ATOM     26  N   UNL     1       0.149   9.830  19.131  0.00  0.00    +0.000 NA
ATOM     27  C   UNL     1      -1.206  10.404  18.950  0.00  0.00    +0.000 C 
ATOM     28  C   UNL     1      -1.236  11.892  18.535  0.00  0.00    +0.000 C 
BRANCH  23  34
ATOM     29  C   UNL     1      -1.740  13.639  21.319  0.00  0.00    +0.000 A 
ATOM     30  C   UNL     1      -2.278  14.784  21.940  0.00  0.00    +0.000 A 
ATOM     31  C   UNL     1      -2.037  16.057  21.433  0.00  0.00    +0.000 A 
ATOM     32  C   UNL     1      -1.258  16.207  20.299  0.00  0.00    +0.000 A 
ATOM     33  C   UNL     1      -0.732  15.078  19.670  0.00  0.00    +0.000 A 
ATOM     34  C   UNL     1      -0.962  13.765  20.140  0.00  0.00    +0.000 A 
BRANCH  29  36
ATOM     35  C   UNL     1      -1.279  11.932  22.902  0.00  0.00    +0.000 C 
ATOM     36  O   UNL     1      -2.040  12.377  21.782  0.00  0.00    +0.000 OA
ENDBRANCH  29  36
ENDBRANCH  23  34
ENDBRANCH  22  26
ENDBRANCH  21  22
ENDBRANCH  20  21
ENDBRANCH   1  20
TORSDOF 8
ENDMDL
MODEL 5
REMARK VINA RESULT:      -7.9      2.001     10.621
REMARK  Name = 
REMARK  9 active torsions:
REMARK  status: ('A' for Active; 'I' for Inactive)
REMARK    1  A    between atoms: C_1  and  O_2
REMARK    2  A    between atoms: O_2  and  C_3
REMARK    3  A    between atoms: C_8  and  N_9
REMARK    4  A    between atoms: N_12  and  C_13
REMARK    5  A    between atoms: C_13  and  C_14
REMARK    6  A    between atoms: C_14  and  C_15
REMARK    7  A    between atoms: C_15  and  C_16
REMARK    8  A    between atoms: C_16  and  N_17
REMARK    9  A    between atoms: N_28  and  C_29
REMARK                            x       y       z     vdW  Elec       q    Type
REMARK                         _______ _______ _______ _____ _____    ______ ____
ROOT
ATOM      1  C   UNL     1       0.997  10.361  21.450  0.00  0.00    +0.000 C 
ENDROOT
BRANCH   1   2
ATOM      2  N   UNL     1       0.100  11.513  21.600  0.00  0.00    +0.000 N 
ATOM      3  C   UNL     1      -0.903  11.370  22.566  0.00  0.00    +0.000 A 
ATOM      4  O   UNL     1      -0.820  10.631  23.546  0.00  0.00    +0.000 OA
ATOM      5  C   UNL     1      -2.161  12.084  22.345  0.00  0.00    +0.000 A 
ATOM      6  C   UNL     1      -3.094  12.214  23.384  0.00  0.00    +0.000 A 
ATOM      7  C   UNL     1      -4.302  12.874  23.159  0.00  0.00    +0.000 A 
ATOM      8  C   UNL     1      -4.586  13.393  21.896  0.00  0.00    +0.000 A 
ATOM      9  C   UNL     1      -3.673  13.226  20.855  0.00  0.00    +0.000 A 
ATOM     10  C   UNL     1      -2.462  12.556  21.080  0.00  0.00    +0.000 A 
ATOM     11  C   UNL     1      -1.500  12.400  19.975  0.00  0.00    +0.000 A 
ATOM     12  O   UNL     1      -1.935  12.539  18.835  0.00  0.00    +0.000 OA
ATOM     13  N   UNL     1      -0.163  12.224  20.362  0.00  0.00    +0.000 N 
BRANCH  13  14
ATOM     14  C   UNL     1       0.907  12.898  19.647  0.00  0.00    +0.000 A 
ATOM     15  C   UNL     1       1.688  12.247  18.677  0.00  0.00    +0.000 A 
ATOM     16  C   UNL     1       2.677  12.914  17.941  0.00  0.00    +0.000 A 
ATOM     17  C   UNL     1       2.918  14.261  18.161  0.00  0.00    +0.000 A 
ATOM     18  C   UNL     1       2.173  14.934  19.121  0.00  0.00    +0.000 A 
ATOM     19  C   UNL     1       1.177  14.261  19.845  0.00  0.00    +0.000 A 
ENDBRANCH  13  14
ENDBRANCH   1   2
BRANCH   1  20
ATOM     20  C   UNL     1       0.350   9.188  20.697  0.00  0.00    +0.000 C 
BRANCH  20  21
ATOM     21  C   UNL     1       0.845   7.830  21.202  0.00  0.00    +0.000 C 
BRANCH  21  22
ATOM     22  C   UNL     1       2.155   7.367  20.551  0.00  0.00    +0.000 C 
BRANCH  22  26
ATOM     23  N   UNL     1       4.457   6.130  18.029  0.00  0.00    +0.000 N 
ATOM     24  C   UNL     1       3.494   7.202  17.753  0.00  0.00    +0.000 C 
ATOM     25  C   UNL     1       2.068   6.771  18.160  0.00  0.00    +0.000 C 
ATOM     26  N   UNL     1       1.946   6.298  19.565  0.00  0.00    +0.000 NA
ATOM     27  C   UNL     1       2.924   5.201  19.757  0.00  0.00    +0.000 C 
ATOM     28  C   UNL     1       4.382   5.551  19.382  0.00  0.00    +0.000 C 
BRANCH  23  34
ATOM     29  C   UNL     1       6.472   6.027  16.566  0.00  0.00    +0.000 A 
ATOM     30  C   UNL     1       7.168   5.337  15.553  0.00  0.00    +0.000 A 
ATOM     31  C   UNL     1       6.680   4.144  15.030  0.00  0.00    +0.000 A 
ATOM     32  C   UNL     1       5.490   3.622  15.508  0.00  0.00    +0.000 A 
ATOM     33  C   UNL     1       4.788   4.304  16.502  0.00  0.00    +0.000 A 
ATOM     34  C   UNL     1       5.237   5.526  17.052  0.00  0.00    +0.000 A 
BRANCH  29  36
ATOM     35  C   UNL     1       7.881   7.189  18.081  0.00  0.00    +0.000 C 
ATOM     36  O   UNL     1       6.921   7.244  17.029  0.00  0.00    +0.000 OA
ENDBRANCH  29  36
ENDBRANCH  23  34
ENDBRANCH  22  26
ENDBRANCH  21  22
ENDBRANCH  20  21
ENDBRANCH   1  20
TORSDOF 8
ENDMDL
MODEL 6
REMARK VINA RESULT:      -7.9      1.383      2.257
REMARK  Name = 
REMARK  9 active torsions:
REMARK  status: ('A' for Active; 'I' for Inactive)
REMARK    1  A    between atoms: C_1  and  O_2
REMARK    2  A    between atoms: O_2  and  C_3
REMARK    3  A    between atoms: C_8  and  N_9
REMARK    4  A    between atoms: N_12  and  C_13
REMARK    5  A    between atoms: C_13  and  C_14
REMARK    6  A    between atoms: C_14  and  C_15
REMARK    7  A    between atoms: C_15  and  C_16
REMARK    8  A    between atoms: C_16  and  N_17
REMARK    9  A    between atoms: N_28  and  C_29
REMARK                            x       y       z     vdW  Elec       q    Type
REMARK                         _______ _______ _______ _____ _____    ______ ____
ROOT
ATOM      1  C   UNL     1       2.203   6.975  18.446  0.00  0.00    +0.000 C 
ENDROOT
BRANCH   1   2
ATOM      2  N   UNL     1       3.330   6.073  18.186  0.00  0.00    +0.000 N 
ATOM      3  C   UNL     1       4.317   6.577  17.329  0.00  0.00    +0.000 A 
ATOM      4  O   UNL     1       4.547   7.774  17.168  0.00  0.00    +0.000 OA
ATOM      5  C   UNL     1       5.060   5.615  16.515  0.00  0.00    +0.000 A 
ATOM      6  C   UNL     1       6.232   6.004  15.851  0.00  0.00    +0.000 A 
ATOM      7  C   UNL     1       6.920   5.089  15.054  0.00  0.00    +0.000 A 
ATOM      8  C   UNL     1       6.435   3.790  14.910  0.00  0.00    +0.000 A 
ATOM      9  C   UNL     1       5.248   3.418  15.539  0.00  0.00    +0.000 A 
ATOM     10  C   UNL     1       4.551   4.341  16.333  0.00  0.00    +0.000 A 
ATOM     11  C   UNL     1       3.306   3.931  17.004  0.00  0.00    +0.000 A 
ATOM     12  O   UNL     1       2.741   2.932  16.567  0.00  0.00    +0.000 OA
ATOM     13  N   UNL     1       2.968   4.667  18.149  0.00  0.00    +0.000 N 
BRANCH  13  14
ATOM     14  C   UNL     1       2.448   4.000  19.330  0.00  0.00    +0.000 A 
ATOM     15  C   UNL     1       1.080   3.726  19.496  0.00  0.00    +0.000 A 
ATOM     16  C   UNL     1       0.587   3.024  20.605  0.00  0.00    +0.000 A 
ATOM     17  C   UNL     1       1.454   2.580  21.590  0.00  0.00    +0.000 A 
ATOM     18  C   UNL     1       2.812   2.844  21.464  0.00  0.00    +0.000 A 
ATOM     19  C   UNL     1       3.299   3.537  20.345  0.00  0.00    +0.000 A 
ENDBRANCH  13  14
ENDBRANCH   1   2
BRANCH   1  20
ATOM     20  C   UNL     1       2.212   7.558  19.868  0.00  0.00    +0.000 C 
BRANCH  20  21
ATOM     21  C   UNL     1       1.022   7.076  20.701  0.00  0.00    +0.000 C 
BRANCH  21  22
ATOM     22  C   UNL     1       0.120   8.211  21.206  0.00  0.00    +0.000 C 
BRANCH  22  26
ATOM     23  N   UNL     1      -1.103  11.435  22.347  0.00  0.00    +0.000 N 
ATOM     24  C   UNL     1      -0.705  11.196  20.956  0.00  0.00    +0.000 C 
ATOM     25  C   UNL     1       0.712  10.585  20.892  0.00  0.00    +0.000 C 
ATOM     26  N   UNL     1       0.889   9.357  21.713  0.00  0.00    +0.000 NA
ATOM     27  C   UNL     1       0.497   9.684  23.105  0.00  0.00    +0.000 C 
ATOM     28  C   UNL     1      -0.915  10.294  23.260  0.00  0.00    +0.000 C 
BRANCH  23  34
ATOM     29  C   UNL     1      -2.608  13.007  23.562  0.00  0.00    +0.000 A 
ATOM     30  C   UNL     1      -2.836  14.324  24.009  0.00  0.00    +0.000 A 
ATOM     31  C   UNL     1      -1.899  15.329  23.791  0.00  0.00    +0.000 A 
ATOM     32  C   UNL     1      -0.722  15.035  23.123  0.00  0.00    +0.000 A 
ATOM     33  C   UNL     1      -0.494  13.738  22.666  0.00  0.00    +0.000 A 
ATOM     34  C   UNL     1      -1.423  12.689  22.851  0.00  0.00    +0.000 A 
BRANCH  29  36
ATOM     35  C   UNL     1      -4.599  12.324  24.658  0.00  0.00    +0.000 C 
ATOM     36  O   UNL     1      -3.570  12.032  23.716  0.00  0.00    +0.000 OA
ENDBRANCH  29  36
ENDBRANCH  23  34
ENDBRANCH  22  26
ENDBRANCH  21  22
ENDBRANCH  20  21
ENDBRANCH   1  20
TORSDOF 8
ENDMDL
MODEL 7
REMARK VINA RESULT:      -7.8      1.633      2.190
REMARK  Name = 
REMARK  9 active torsions:
REMARK  status: ('A' for Active; 'I' for Inactive)
REMARK    1  A    between atoms: C_1  and  O_2
REMARK    2  A    between atoms: O_2  and  C_3
REMARK    3  A    between atoms: C_8  and  N_9
REMARK    4  A    between atoms: N_12  and  C_13
REMARK    5  A    between atoms: C_13  and  C_14
REMARK    6  A    between atoms: C_14  and  C_15
REMARK    7  A    between atoms: C_15  and  C_16
REMARK    8  A    between atoms: C_16  and  N_17
REMARK    9  A    between atoms: N_28  and  C_29
REMARK                            x       y       z     vdW  Elec       q    Type
REMARK                         _______ _______ _______ _____ _____    ______ ____
ROOT
ATOM      1  C   UNL     1       3.336   6.978  19.229  0.00  0.00    +0.000 C 
ENDROOT
BRANCH   1   2
ATOM      2  N   UNL     1       4.149   5.905  18.645  0.00  0.00    +0.000 N 
ATOM      3  C   UNL     1       5.176   6.329  17.791  0.00  0.00    +0.000 A 
ATOM      4  O   UNL     1       5.717   7.431  17.854  0.00  0.00    +0.000 OA
ATOM      5  C   UNL     1       5.566   5.429  16.706  0.00  0.00    +0.000 A 
ATOM      6  C   UNL     1       6.752   5.652  15.992  0.00  0.00    +0.000 A 
ATOM      7  C   UNL     1       7.105   4.806  14.940  0.00  0.00    +0.000 A 
ATOM      8  C   UNL     1       6.270   3.745  14.593  0.00  0.00    +0.000 A 
ATOM      9  C   UNL     1       5.072   3.550  15.279  0.00  0.00    +0.000 A 
ATOM     10  C   UNL     1       4.714   4.406  16.330  0.00  0.00    +0.000 A 
ATOM     11  C   UNL     1       3.452   4.180  17.056  0.00  0.00    +0.000 A 
ATOM     12  O   UNL     1       2.604   3.489  16.497  0.00  0.00    +0.000 OA
ATOM     13  N   UNL     1       3.410   4.688  18.363  0.00  0.00    +0.000 N 
BRANCH  13  14
ATOM     14  C   UNL     1       2.807   3.916  19.436  0.00  0.00    +0.000 A 
ATOM     15  C   UNL     1       3.573   3.151  20.332  0.00  0.00    +0.000 A 
ATOM     16  C   UNL     1       2.997   2.459  21.406  0.00  0.00    +0.000 A 
ATOM     17  C   UNL     1       1.628   2.508  21.613  0.00  0.00    +0.000 A 
ATOM     18  C   UNL     1       0.838   3.246  20.739  0.00  0.00    +0.000 A 
ATOM     19  C   UNL     1       1.424   3.945  19.672  0.00  0.00    +0.000 A 
ENDBRANCH  13  14
ENDBRANCH   1   2
BRANCH   1  20
ATOM     20  C   UNL     1       2.157   7.395  18.337  0.00  0.00    +0.000 C 
BRANCH  20  21
ATOM     21  C   UNL     1       2.351   8.788  17.732  0.00  0.00    +0.000 C 
BRANCH  21  22
ATOM     22  C   UNL     1       1.127   9.703  17.880  0.00  0.00    +0.000 C 
BRANCH  22  26
ATOM     23  N   UNL     1      -1.600  11.549  19.411  0.00  0.00    +0.000 N 
ATOM     24  C   UNL     1      -0.605  12.194  18.548  0.00  0.00    +0.000 C 
ATOM     25  C   UNL     1       0.826  11.865  19.027  0.00  0.00    +0.000 C 
ATOM     26  N   UNL     1       1.109  10.412  19.167  0.00  0.00    +0.000 NA
ATOM     27  C   UNL     1       0.084   9.839  20.073  0.00  0.00    +0.000 C 
ATOM     28  C   UNL     1      -1.380  10.113  19.661  0.00  0.00    +0.000 C 
BRANCH  23  34
ATOM     29  C   UNL     1      -3.878  12.519  19.698  0.00  0.00    +0.000 A 
ATOM     30  C   UNL     1      -4.758  13.258  20.514  0.00  0.00    +0.000 A 
ATOM     31  C   UNL     1      -4.365  13.709  21.770  0.00  0.00    +0.000 A 
ATOM     32  C   UNL     1      -3.090  13.430  22.230  0.00  0.00    +0.000 A 
ATOM     33  C   UNL     1      -2.208  12.711  21.424  0.00  0.00    +0.000 A 
ATOM     34  C   UNL     1      -2.557  12.246  20.136  0.00  0.00    +0.000 A 
BRANCH  29  36
ATOM     35  C   UNL     1      -5.113  11.009  18.345  0.00  0.00    +0.000 C 
ATOM     36  O   UNL     1      -4.245  12.138  18.426  0.00  0.00    +0.000 OA
ENDBRANCH  29  36
ENDBRANCH  23  34
ENDBRANCH  22  26
ENDBRANCH  21  22
ENDBRANCH  20  21
ENDBRANCH   1  20
TORSDOF 8
ENDMDL
MODEL 8
REMARK VINA RESULT:      -7.8      1.263      1.563
REMARK  Name = 
REMARK  9 active torsions:
REMARK  status: ('A' for Active; 'I' for Inactive)
REMARK    1  A    between atoms: C_1  and  O_2
REMARK    2  A    between atoms: O_2  and  C_3
REMARK    3  A    between atoms: C_8  and  N_9
REMARK    4  A    between atoms: N_12  and  C_13
REMARK    5  A    between atoms: C_13  and  C_14
REMARK    6  A    between atoms: C_14  and  C_15
REMARK    7  A    between atoms: C_15  and  C_16
REMARK    8  A    between atoms: C_16  and  N_17
REMARK    9  A    between atoms: N_28  and  C_29
REMARK                            x       y       z     vdW  Elec       q    Type
REMARK                         _______ _______ _______ _____ _____    ______ ____
ROOT
ATOM      1  C   UNL     1       3.035   7.022  19.039  0.00  0.00    +0.000 C 
ENDROOT
BRANCH   1   2
ATOM      2  N   UNL     1       3.931   5.977  18.531  0.00  0.00    +0.000 N 
ATOM      3  C   UNL     1       4.953   6.423  17.683  0.00  0.00    +0.000 A 
ATOM      4  O   UNL     1       5.422   7.560  17.704  0.00  0.00    +0.000 OA
ATOM      5  C   UNL     1       5.430   5.499  16.655  0.00  0.00    +0.000 A 
ATOM      6  C   UNL     1       6.619   5.762  15.961  0.00  0.00    +0.000 A 
ATOM      7  C   UNL     1       7.054   4.890  14.963  0.00  0.00    +0.000 A 
ATOM      8  C   UNL     1       6.299   3.762  14.648  0.00  0.00    +0.000 A 
ATOM      9  C   UNL     1       5.095   3.524  15.313  0.00  0.00    +0.000 A 
ATOM     10  C   UNL     1       4.654   4.406  16.310  0.00  0.00    +0.000 A 
ATOM     11  C   UNL     1       3.389   4.135  17.014  0.00  0.00    +0.000 A 
ATOM     12  O   UNL     1       2.603   3.365  16.469  0.00  0.00    +0.000 OA
ATOM     13  N   UNL     1       3.278   4.702  18.292  0.00  0.00    +0.000 N 
BRANCH  13  14
ATOM     14  C   UNL     1       2.694   3.947  19.387  0.00  0.00    +0.000 A 
ATOM     15  C   UNL     1       3.479   3.238  20.312  0.00  0.00    +0.000 A 
ATOM     16  C   UNL     1       2.920   2.563  21.406  0.00  0.00    +0.000 A 
ATOM     17  C   UNL     1       1.548   2.573  21.603  0.00  0.00    +0.000 A 
ATOM     18  C   UNL     1       0.740   3.255  20.702  0.00  0.00    +0.000 A 
ATOM     19  C   UNL     1       1.310   3.937  19.615  0.00  0.00    +0.000 A 
ENDBRANCH  13  14
ENDBRANCH   1   2
BRANCH   1  20
ATOM     20  C   UNL     1       1.976   7.459  18.016  0.00  0.00    +0.000 C 
BRANCH  20  21
ATOM     21  C   UNL     1       2.038   8.960  17.719  0.00  0.00    +0.000 C 
BRANCH  21  22
ATOM     22  C   UNL     1       1.511   9.839  18.862  0.00  0.00    +0.000 C 
BRANCH  22  26
ATOM     23  N   UNL     1      -0.952  12.263  19.980  0.00  0.00    +0.000 N 
ATOM     24  C   UNL     1      -0.207  11.414  20.916  0.00  0.00    +0.000 C 
ATOM     25  C   UNL     1      -0.320   9.928  20.512  0.00  0.00    +0.000 C 
ATOM     26  N   UNL     1       0.075   9.641  19.107  0.00  0.00    +0.000 NA
ATOM     27  C   UNL     1      -0.738  10.511  18.224  0.00  0.00    +0.000 C 
ATOM     28  C   UNL     1      -0.674  12.020  18.554  0.00  0.00    +0.000 C 
BRANCH  23  34
ATOM     29  C   UNL     1      -1.877  14.383  20.907  0.00  0.00    +0.000 A 
ATOM     30  C   UNL     1      -3.024  15.116  21.275  0.00  0.00    +0.000 A 
ATOM     31  C   UNL     1      -4.300  14.597  21.082  0.00  0.00    +0.000 A 
ATOM     32  C   UNL     1      -4.452  13.340  20.522  0.00  0.00    +0.000 A 
ATOM     33  C   UNL     1      -3.323  12.603  20.167  0.00  0.00    +0.000 A 
ATOM     34  C   UNL     1      -2.007  13.082  20.358  0.00  0.00    +0.000 A 
BRANCH  29  36
ATOM     35  C   UNL     1      -0.293  15.051  22.544  0.00  0.00    +0.000 C 
ATOM     36  O   UNL     1      -0.615  14.869  21.166  0.00  0.00    +0.000 OA
ENDBRANCH  29  36
ENDBRANCH  23  34
ENDBRANCH  22  26
ENDBRANCH  21  22
ENDBRANCH  20  21
ENDBRANCH   1  20
TORSDOF 8
ENDMDL
MODEL 9
REMARK VINA RESULT:      -7.8      1.344      1.798
REMARK  Name = 
REMARK  9 active torsions:
REMARK  status: ('A' for Active; 'I' for Inactive)
REMARK    1  A    between atoms: C_1  and  O_2
REMARK    2  A    between atoms: O_2  and  C_3
REMARK    3  A    between atoms: C_8  and  N_9
REMARK    4  A    between atoms: N_12  and  C_13
REMARK    5  A    between atoms: C_13  and  C_14
REMARK    6  A    between atoms: C_14  and  C_15
REMARK    7  A    between atoms: C_15  and  C_16
REMARK    8  A    between atoms: C_16  and  N_17
REMARK    9  A    between atoms: N_28  and  C_29
REMARK                            x       y       z     vdW  Elec       q    Type
REMARK                         _______ _______ _______ _____ _____    ______ ____
ROOT
ATOM      1  C   UNL     1       2.960   6.999  19.030  0.00  0.00    +0.000 C 
ENDROOT
BRANCH   1   2
ATOM      2  N   UNL     1       3.880   5.965  18.542  0.00  0.00    +0.000 N 
ATOM      3  C   UNL     1       4.904   6.422  17.702  0.00  0.00    +0.000 A 
ATOM      4  O   UNL     1       5.352   7.567  17.718  0.00  0.00    +0.000 OA
ATOM      5  C   UNL     1       5.410   5.497  16.688  0.00  0.00    +0.000 A 
ATOM      6  C   UNL     1       6.603   5.775  16.006  0.00  0.00    +0.000 A 
ATOM      7  C   UNL     1       7.065   4.902  15.022  0.00  0.00    +0.000 A 
ATOM      8  C   UNL     1       6.334   3.757  14.709  0.00  0.00    +0.000 A 
ATOM      9  C   UNL     1       5.127   3.504  15.361  0.00  0.00    +0.000 A 
ATOM     10  C   UNL     1       4.658   4.387  16.345  0.00  0.00    +0.000 A 
ATOM     11  C   UNL     1       3.390   4.100  17.036  0.00  0.00    +0.000 A 
ATOM     12  O   UNL     1       2.624   3.311  16.489  0.00  0.00    +0.000 OA
ATOM     13  N   UNL     1       3.253   4.677  18.307  0.00  0.00    +0.000 N 
BRANCH  13  14
ATOM     14  C   UNL     1       2.670   3.921  19.402  0.00  0.00    +0.000 A 
ATOM     15  C   UNL     1       3.456   3.235  20.343  0.00  0.00    +0.000 A 
ATOM     16  C   UNL     1       2.896   2.560  21.437  0.00  0.00    +0.000 A 
ATOM     17  C   UNL     1       1.522   2.548  21.618  0.00  0.00    +0.000 A 
ATOM     18  C   UNL     1       0.713   3.206  20.700  0.00  0.00    +0.000 A 
ATOM     19  C   UNL     1       1.283   3.889  19.614  0.00  0.00    +0.000 A 
ENDBRANCH  13  14
ENDBRANCH   1   2
BRANCH   1  20
ATOM     20  C   UNL     1       2.125   7.640  17.911  0.00  0.00    +0.000 C 
BRANCH  20  21
ATOM     21  C   UNL     1       2.078   9.166  18.022  0.00  0.00    +0.000 C 
BRANCH  21  22
ATOM     22  C   UNL     1       0.661   9.750  17.935  0.00  0.00    +0.000 C 
BRANCH  22  26
ATOM     23  N   UNL     1      -0.340  12.849  19.542  0.00  0.00    +0.000 N 
ATOM     24  C   UNL     1       0.990  12.262  19.733  0.00  0.00    +0.000 C 
ATOM     25  C   UNL     1       0.875  10.783  20.164  0.00  0.00    +0.000 C 
ATOM     26  N   UNL     1       0.050   9.941  19.258  0.00  0.00    +0.000 NA
ATOM     27  C   UNL     1      -1.283  10.580  19.138  0.00  0.00    +0.000 C 
ATOM     28  C   UNL     1      -1.260  12.062  18.701  0.00  0.00    +0.000 C 
BRANCH  23  34
ATOM     29  C   UNL     1      -0.764  15.289  19.822  0.00  0.00    +0.000 A 
ATOM     30  C   UNL     1      -1.253  16.320  20.650  0.00  0.00    +0.000 A 
ATOM     31  C   UNL     1      -1.814  16.041  21.891  0.00  0.00    +0.000 A 
ATOM     32  C   UNL     1      -1.894  14.729  22.327  0.00  0.00    +0.000 A 
ATOM     33  C   UNL     1      -1.401  13.703  21.521  0.00  0.00    +0.000 A 
ATOM     34  C   UNL     1      -0.810  13.941  20.260  0.00  0.00    +0.000 A 
BRANCH  29  36
ATOM     35  C   UNL     1       1.184  16.087  18.726  0.00  0.00    +0.000 C 
ATOM     36  O   UNL     1      -0.144  15.576  18.626  0.00  0.00    +0.000 OA
ENDBRANCH  29  36
ENDBRANCH  23  34
ENDBRANCH  22  26
ENDBRANCH  21  22
ENDBRANCH  20  21
ENDBRANCH   1  20
TORSDOF 8
ENDMDL
