MODEL 1
REMARK VINA RESULT:      -7.4      0.000      0.000
REMARK  Name = 
REMARK  3 active torsions:
REMARK  status: ('A' for Active; 'I' for Inactive)
REMARK    1  A    between atoms: C_2  and  C_3
REMARK    2  A    between atoms: C_3  and  N_4
REMARK    3  A    between atoms: C_12  and  C_13
REMARK                            x       y       z     vdW  Elec       q    Type
REMARK                         _______ _______ _______ _____ _____    ______ ____
ROOT
ATOM      1  O   UNL     1       2.518   7.222  19.437  0.00  0.00    +0.000 OA
ATOM      2  C   UNL     1       3.260   6.317  19.037  0.00  0.00    +0.000 C 
ATOM      3  N   UNL     1       3.800   6.448  17.780  0.00  0.00    +0.000 N 
ATOM      4  C   UNL     1       4.603   5.540  17.122  0.00  0.00    +0.000 A 
ATOM      5  C   UNL     1       5.121   5.694  15.813  0.00  0.00    +0.000 A 
ATOM      6  C   UNL     1       5.805   4.523  15.549  0.00  0.00    +0.000 A 
ATOM      7  N   UNL     1       5.689   3.780  16.689  0.00  0.00    +0.000 N 
ATOM      8  N   UNL     1       4.982   4.376  17.644  0.00  0.00    +0.000 NA
ATOM      9  H   UNL     1       3.540   7.287  17.285  0.00  0.00    +0.000 HD
ATOM     10  H   UNL     1       6.058   2.854  16.874  0.00  0.00    +0.000 HD
ENDROOT
BRANCH   6  11
ATOM     11  C   UNL     1       6.527   4.020  14.350  0.00  0.00    +0.000 C 
ATOM     12  C   UNL     1       5.594   3.528  13.245  0.00  0.00    +0.000 C 
ATOM     13  C   UNL     1       6.468   3.530  12.000  0.00  0.00    +0.000 C 
ATOM     14  C   UNL     1       7.496   4.640  12.208  0.00  0.00    +0.000 C 
ATOM     15  C   UNL     1       7.345   5.109  13.652  0.00  0.00    +0.000 C 
ENDBRANCH   6  11
BRANCH   2  16
ATOM     16  C   UNL     1       3.604   5.085  19.855  0.00  0.00    +0.000 C 
BRANCH  16  17
ATOM     17  N   UNL     1       2.536   4.115  20.049  0.00  0.00    +0.000 N 
ATOM     18  C   UNL     1       1.550   3.750  19.177  0.00  0.00    +0.000 A 
ATOM     19  C   UNL     1       0.752   2.858  19.854  0.00  0.00    +0.000 A 
ATOM     20  C   UNL     1       1.262   2.846  21.163  0.00  0.00    +0.000 A 
ATOM     21  N   UNL     1       2.332   3.629  21.298  0.00  0.00    +0.000 NA
ENDBRANCH  16  17
ENDBRANCH   2  16
TORSDOF 3
ENDMDL
MODEL 2
REMARK VINA RESULT:      -7.2      2.047      6.896
REMARK  Name = 
REMARK  3 active torsions:
REMARK  status: ('A' for Active; 'I' for Inactive)
REMARK    1  A    between atoms: C_2  and  C_3
REMARK    2  A    between atoms: C_3  and  N_4
REMARK    3  A    between atoms: C_12  and  C_13
REMARK                            x       y       z     vdW  Elec       q    Type
REMARK                         _______ _______ _______ _____ _____    ______ ____
ROOT
ATOM      1  O   UNL     1       7.877   7.393  16.712  0.00  0.00    +0.000 OA
ATOM      2  C   UNL     1       7.135   6.433  16.945  0.00  0.00    +0.000 C 
ATOM      3  N   UNL     1       6.010   6.669  17.699  0.00  0.00    +0.000 N 
ATOM      4  C   UNL     1       5.081   5.739  18.119  0.00  0.00    +0.000 A 
ATOM      5  C   UNL     1       3.945   6.013  18.920  0.00  0.00    +0.000 A 
ATOM      6  C   UNL     1       3.350   4.786  19.142  0.00  0.00    +0.000 A 
ATOM      7  N   UNL     1       4.117   3.889  18.455  0.00  0.00    +0.000 N 
ATOM      8  N   UNL     1       5.151   4.443  17.830  0.00  0.00    +0.000 NA
ATOM      9  H   UNL     1       5.886   7.623  18.000  0.00  0.00    +0.000 HD
ATOM     10  H   UNL     1       3.997   2.885  18.385  0.00  0.00    +0.000 HD
ENDROOT
BRANCH   6  11
ATOM     11  C   UNL     1       2.166   4.364  19.938  0.00  0.00    +0.000 C 
ATOM     12  C   UNL     1       1.239   3.414  19.183  0.00  0.00    +0.000 C 
ATOM     13  C   UNL     1       0.418   2.753  20.282  0.00  0.00    +0.000 C 
ATOM     14  C   UNL     1       1.316   2.720  21.516  0.00  0.00    +0.000 C 
ATOM     15  C   UNL     1       2.548   3.558  21.182  0.00  0.00    +0.000 C 
ENDBRANCH   6  11
BRANCH   2  16
ATOM     16  C   UNL     1       7.396   5.023  16.445  0.00  0.00    +0.000 C 
BRANCH  16  17
ATOM     17  N   UNL     1       7.066   4.757  15.052  0.00  0.00    +0.000 N 
ATOM     18  C   UNL     1       6.220   3.812  14.543  0.00  0.00    +0.000 A 
ATOM     19  C   UNL     1       6.307   3.919  13.175  0.00  0.00    +0.000 A 
ATOM     20  C   UNL     1       7.320   4.865  12.955  0.00  0.00    +0.000 A 
ATOM     21  N   UNL     1       7.807   5.362  14.092  0.00  0.00    +0.000 NA
ENDBRANCH  16  17
ENDBRANCH   2  16
TORSDOF 3
ENDMDL
MODEL 3
REMARK VINA RESULT:      -7.0      2.106      7.016
REMARK  Name = 
REMARK  3 active torsions:
REMARK  status: ('A' for Active; 'I' for Inactive)
REMARK    1  A    between atoms: C_2  and  C_3
REMARK    2  A    between atoms: C_3  and  N_4
REMARK    3  A    between atoms: C_12  and  C_13
REMARK                            x       y       z     vdW  Elec       q    Type
REMARK                         _______ _______ _______ _____ _____    ______ ____
ROOT
ATOM      1  O   UNL     1       7.503   7.409  16.690  0.00  0.00    +0.000 OA
ATOM      2  C   UNL     1       6.988   6.292  16.822  0.00  0.00    +0.000 C 
ATOM      3  N   UNL     1       5.860   6.202  17.602  0.00  0.00    +0.000 N 
ATOM      4  C   UNL     1       5.162   5.056  17.923  0.00  0.00    +0.000 A 
ATOM      5  C   UNL     1       4.017   4.994  18.755  0.00  0.00    +0.000 A 
ATOM      6  C   UNL     1       3.702   3.652  18.845  0.00  0.00    +0.000 A 
ATOM      7  N   UNL     1       4.623   3.017  18.061  0.00  0.00    +0.000 N 
ATOM      8  N   UNL     1       5.497   3.842  17.494  0.00  0.00    +0.000 NA
ATOM      9  H   UNL     1       5.545   7.069  18.006  0.00  0.00    +0.000 HD
ATOM     10  H   UNL     1       4.717   2.024  17.882  0.00  0.00    +0.000 HD
ENDROOT
BRANCH   6  11
ATOM     11  C   UNL     1       2.658   2.904  19.596  0.00  0.00    +0.000 C 
ATOM     12  C   UNL     1       2.798   3.031  21.112  0.00  0.00    +0.000 C 
ATOM     13  C   UNL     1       1.427   2.635  21.640  0.00  0.00    +0.000 C 
ATOM     14  C   UNL     1       0.427   3.030  20.555  0.00  0.00    +0.000 C 
ATOM     15  C   UNL     1       1.246   3.436  19.334  0.00  0.00    +0.000 C 
ENDBRANCH   6  11
BRANCH   2  16
ATOM     16  C   UNL     1       7.528   5.032  16.169  0.00  0.00    +0.000 C 
BRANCH  16  17
ATOM     17  N   UNL     1       7.235   4.857  14.754  0.00  0.00    +0.000 N 
ATOM     18  C   UNL     1       6.393   3.955  14.165  0.00  0.00    +0.000 A 
ATOM     19  C   UNL     1       6.520   4.145  12.809  0.00  0.00    +0.000 A 
ATOM     20  C   UNL     1       7.550   5.090  12.676  0.00  0.00    +0.000 A 
ATOM     21  N   UNL     1       8.010   5.510  13.854  0.00  0.00    +0.000 NA
ENDBRANCH  16  17
ENDBRANCH   2  16
TORSDOF 3
ENDMDL
MODEL 4
REMARK VINA RESULT:      -6.9      0.863      1.054
REMARK  Name = 
REMARK  3 active torsions:
REMARK  status: ('A' for Active; 'I' for Inactive)
REMARK    1  A    between atoms: C_2  and  C_3
REMARK    2  A    between atoms: C_3  and  N_4
REMARK    3  A    between atoms: C_12  and  C_13
REMARK                            x       y       z     vdW  Elec       q    Type
REMARK                         _______ _______ _______ _____ _____    ______ ____
ROOT
ATOM      1  O   UNL     1       2.478   7.105  19.692  0.00  0.00    +0.000 OA
ATOM      2  C   UNL     1       2.770   6.187  18.916  0.00  0.00    +0.000 C 
ATOM      3  N   UNL     1       3.919   6.325  18.174  0.00  0.00    +0.000 N 
ATOM      4  C   UNL     1       4.400   5.455  17.217  0.00  0.00    +0.000 A 
ATOM      5  C   UNL     1       5.575   5.641  16.449  0.00  0.00    +0.000 A 
ATOM      6  C   UNL     1       5.623   4.564  15.586  0.00  0.00    +0.000 A 
ATOM      7  N   UNL     1       4.532   3.806  15.903  0.00  0.00    +0.000 N 
ATOM      8  N   UNL     1       3.795   4.318  16.882  0.00  0.00    +0.000 NA
ATOM      9  H   UNL     1       4.433   7.178  18.330  0.00  0.00    +0.000 HD
ATOM     10  H   UNL     1       4.228   2.936  15.479  0.00  0.00    +0.000 HD
ENDROOT
BRANCH   6  11
ATOM     11  C   UNL     1       6.557   4.182  14.492  0.00  0.00    +0.000 C 
ATOM     12  C   UNL     1       5.845   3.674  13.241  0.00  0.00    +0.000 C 
ATOM     13  C   UNL     1       6.892   3.810  12.144  0.00  0.00    +0.000 C 
ATOM     14  C   UNL     1       7.775   4.988  12.548  0.00  0.00    +0.000 C 
ATOM     15  C   UNL     1       7.371   5.369  13.970  0.00  0.00    +0.000 C 
ENDBRANCH   6  11
BRANCH   2  16
ATOM     16  C   UNL     1       1.937   4.929  18.745  0.00  0.00    +0.000 C 
BRANCH  16  17
ATOM     17  N   UNL     1       1.990   3.964  19.833  0.00  0.00    +0.000 N 
ATOM     18  C   UNL     1       0.971   3.523  20.631  0.00  0.00    +0.000 A 
ATOM     19  C   UNL     1       1.544   2.674  21.548  0.00  0.00    +0.000 A 
ATOM     20  C   UNL     1       2.924   2.765  21.306  0.00  0.00    +0.000 A 
ATOM     21  N   UNL     1       3.207   3.569  20.280  0.00  0.00    +0.000 NA
ENDBRANCH  16  17
ENDBRANCH   2  16
TORSDOF 3
ENDMDL
MODEL 5
REMARK VINA RESULT:      -6.8      2.640      7.057
REMARK  Name = 
REMARK  3 active torsions:
REMARK  status: ('A' for Active; 'I' for Inactive)
REMARK    1  A    between atoms: C_2  and  C_3
REMARK    2  A    between atoms: C_3  and  N_4
REMARK    3  A    between atoms: C_12  and  C_13
REMARK                            x       y       z     vdW  Elec       q    Type
REMARK                         _______ _______ _______ _____ _____    ______ ____
ROOT
ATOM      1  O   UNL     1       7.839   5.641  13.751  0.00  0.00    +0.000 OA
ATOM      2  C   UNL     1       6.929   5.036  14.331  0.00  0.00    +0.000 C 
ATOM      3  N   UNL     1       6.198   5.732  15.264  0.00  0.00    +0.000 N 
ATOM      4  C   UNL     1       5.183   5.241  16.059  0.00  0.00    +0.000 A 
ATOM      5  C   UNL     1       4.467   5.981  17.032  0.00  0.00    +0.000 A 
ATOM      6  C   UNL     1       3.604   5.075  17.618  0.00  0.00    +0.000 A 
ATOM      7  N   UNL     1       3.822   3.899  16.959  0.00  0.00    +0.000 N 
ATOM      8  N   UNL     1       4.756   3.982  16.017  0.00  0.00    +0.000 NA
ATOM      9  H   UNL     1       6.471   6.693  15.395  0.00  0.00    +0.000 HD
ATOM     10  H   UNL     1       3.377   3.001  17.114  0.00  0.00    +0.000 HD
ENDROOT
BRANCH   6  11
ATOM     11  C   UNL     1       2.624   5.184  18.732  0.00  0.00    +0.000 C 
ATOM     12  C   UNL     1       1.537   4.112  18.687  0.00  0.00    +0.000 C 
ATOM     13  C   UNL     1       0.976   4.101  20.101  0.00  0.00    +0.000 C 
ATOM     14  C   UNL     1       2.128   4.512  21.015  0.00  0.00    +0.000 C 
ATOM     15  C   UNL     1       3.264   4.970  20.106  0.00  0.00    +0.000 C 
ENDBRANCH   6  11
BRANCH   2  16
ATOM     16  C   UNL     1       6.580   3.582  14.066  0.00  0.00    +0.000 C 
BRANCH  16  17
ATOM     17  N   UNL     1       5.838   3.305  12.845  0.00  0.00    +0.000 N 
ATOM     18  C   UNL     1       4.630   3.810  12.449  0.00  0.00    +0.000 A 
ATOM     19  C   UNL     1       4.327   3.188  11.262  0.00  0.00    +0.000 A 
ATOM     20  C   UNL     1       5.345   2.236  11.087  0.00  0.00    +0.000 A 
ATOM     21  N   UNL     1       6.255   2.282  12.060  0.00  0.00    +0.000 NA
ENDBRANCH  16  17
ENDBRANCH   2  16
TORSDOF 3
ENDMDL
MODEL 6
REMARK VINA RESULT:      -6.7      4.984      6.261
REMARK  Name = 
REMARK  3 active torsions:
REMARK  status: ('A' for Active; 'I' for Inactive)
REMARK    1  A    between atoms: C_2  and  C_3
REMARK    2  A    between atoms: C_3  and  N_4
REMARK    3  A    between atoms: C_12  and  C_13
REMARK                            x       y       z     vdW  Elec       q    Type
REMARK                         _______ _______ _______ _____ _____    ______ ____
ROOT
ATOM      1  O   UNL     1       5.259   5.420  15.543  0.00  0.00    +0.000 OA
ATOM      2  C   UNL     1       5.973   5.745  16.499  0.00  0.00    +0.000 C 
ATOM      3  N   UNL     1       6.471   7.025  16.513  0.00  0.00    +0.000 N 
ATOM      4  C   UNL     1       7.324   7.575  17.448  0.00  0.00    +0.000 A 
ATOM      5  C   UNL     1       7.842   8.893  17.417  0.00  0.00    +0.000 A 
ATOM      6  C   UNL     1       8.692   8.978  18.503  0.00  0.00    +0.000 A 
ATOM      7  N   UNL     1       8.606   7.761  19.117  0.00  0.00    +0.000 N 
ATOM      8  N   UNL     1       7.785   6.913  18.505  0.00  0.00    +0.000 NA
ATOM      9  H   UNL     1       6.206   7.599  15.728  0.00  0.00    +0.000 HD
ATOM     10  H   UNL     1       9.091   7.442  19.948  0.00  0.00    +0.000 HD
ENDROOT
BRANCH   6  11
ATOM     11  C   UNL     1       9.584  10.056  19.010  0.00  0.00    +0.000 C 
ATOM     12  C   UNL     1       9.562  11.314  18.144  0.00  0.00    +0.000 C 
ATOM     13  C   UNL     1      10.116  12.397  19.059  0.00  0.00    +0.000 C 
ATOM     14  C   UNL     1       9.728  11.988  20.478  0.00  0.00    +0.000 C 
ATOM     15  C   UNL     1       9.159  10.575  20.386  0.00  0.00    +0.000 C 
ENDBRANCH   6  11
BRANCH   2  16
ATOM     16  C   UNL     1       6.319   4.814  17.648  0.00  0.00    +0.000 C 
BRANCH  16  17
ATOM     17  N   UNL     1       5.248   4.514  18.586  0.00  0.00    +0.000 N 
ATOM     18  C   UNL     1       4.668   3.307  18.860  0.00  0.00    +0.000 A 
ATOM     19  C   UNL     1       3.661   3.561  19.760  0.00  0.00    +0.000 A 
ATOM     20  C   UNL     1       3.628   4.961  19.871  0.00  0.00    +0.000 A 
ATOM     21  N   UNL     1       4.573   5.551  19.140  0.00  0.00    +0.000 NA
ENDBRANCH  16  17
ENDBRANCH   2  16
TORSDOF 3
ENDMDL
MODEL 7
REMARK VINA RESULT:      -6.6      2.180      3.272
REMARK  Name = 
REMARK  3 active torsions:
REMARK  status: ('A' for Active; 'I' for Inactive)
REMARK    1  A    between atoms: C_2  and  C_3
REMARK    2  A    between atoms: C_3  and  N_4
REMARK    3  A    between atoms: C_12  and  C_13
REMARK                            x       y       z     vdW  Elec       q    Type
REMARK                         _______ _______ _______ _____ _____    ______ ____
ROOT
ATOM      1  O   UNL     1       7.839   6.960  18.419  0.00  0.00    +0.000 OA
ATOM      2  C   UNL     1       7.388   5.990  17.798  0.00  0.00    +0.000 C 
ATOM      3  N   UNL     1       7.468   6.021  16.426  0.00  0.00    +0.000 N 
ATOM      4  C   UNL     1       6.983   5.078  15.543  0.00  0.00    +0.000 A 
ATOM      5  C   UNL     1       7.059   5.155  14.131  0.00  0.00    +0.000 A 
ATOM      6  C   UNL     1       6.394   4.037  13.667  0.00  0.00    +0.000 A 
ATOM      7  N   UNL     1       6.006   3.363  14.791  0.00  0.00    +0.000 N 
ATOM      8  N   UNL     1       6.359   3.966  15.921  0.00  0.00    +0.000 NA
ATOM      9  H   UNL     1       7.896   6.847  16.039  0.00  0.00    +0.000 HD
ATOM     10  H   UNL     1       5.487   2.494  14.853  0.00  0.00    +0.000 HD
ENDROOT
BRANCH   6  11
ATOM     11  C   UNL     1       6.065   3.547  12.301  0.00  0.00    +0.000 C 
ATOM     12  C   UNL     1       6.421   2.077  12.086  0.00  0.00    +0.000 C 
ATOM     13  C   UNL     1       5.593   1.675  10.874  0.00  0.00    +0.000 C 
ATOM     14  C   UNL     1       4.339   2.546  10.912  0.00  0.00    +0.000 C 
ATOM     15  C   UNL     1       4.564   3.586  12.005  0.00  0.00    +0.000 C 
ENDBRANCH   6  11
BRANCH   2  16
ATOM     16  C   UNL     1       6.762   4.778  18.465  0.00  0.00    +0.000 C 
BRANCH  16  17
ATOM     17  N   UNL     1       5.332   4.849  18.729  0.00  0.00    +0.000 N 
ATOM     18  C   UNL     1       4.480   5.898  18.527  0.00  0.00    +0.000 A 
ATOM     19  C   UNL     1       3.254   5.491  18.998  0.00  0.00    +0.000 A 
ATOM     20  C   UNL     1       3.495   4.235  19.579  0.00  0.00    +0.000 A 
ATOM     21  N   UNL     1       4.763   3.847  19.444  0.00  0.00    +0.000 NA
ENDBRANCH  16  17
ENDBRANCH   2  16
TORSDOF 3
ENDMDL
MODEL 8
REMARK VINA RESULT:      -6.5      3.812      7.484
REMARK  Name = 
REMARK  3 active torsions:
REMARK  status: ('A' for Active; 'I' for Inactive)
REMARK    1  A    between atoms: C_2  and  C_3
REMARK    2  A    between atoms: C_3  and  N_4
REMARK    3  A    between atoms: C_12  and  C_13
REMARK                            x       y       z     vdW  Elec       q    Type
REMARK                         _______ _______ _______ _____ _____    ______ ____
ROOT
ATOM      1  O   UNL     1       4.903   6.320  16.758  0.00  0.00    +0.000 OA
ATOM      2  C   UNL     1       4.181   6.357  17.761  0.00  0.00    +0.000 C 
ATOM      3  N   UNL     1       3.290   7.399  17.863  0.00  0.00    +0.000 N 
ATOM      4  C   UNL     1       2.435   7.661  18.914  0.00  0.00    +0.000 A 
ATOM      5  C   UNL     1       1.547   8.761  18.999  0.00  0.00    +0.000 A 
ATOM      6  C   UNL     1       0.948   8.653  20.239  0.00  0.00    +0.000 A 
ATOM      7  N   UNL     1       1.468   7.515  20.787  0.00  0.00    +0.000 N 
ATOM      8  N   UNL     1       2.352   6.904  20.004  0.00  0.00    +0.000 NA
ATOM      9  H   UNL     1       3.302   8.052  17.096  0.00  0.00    +0.000 HD
ATOM     10  H   UNL     1       1.273   7.109  21.695  0.00  0.00    +0.000 HD
ENDROOT
BRANCH   6  11
ATOM     11  C   UNL     1      -0.031   9.503  20.969  0.00  0.00    +0.000 C 
ATOM     12  C   UNL     1      -0.074   9.220  22.470  0.00  0.00    +0.000 C 
ATOM     13  C   UNL     1      -0.728  10.463  23.057  0.00  0.00    +0.000 C 
ATOM     14  C   UNL     1      -0.352  11.616  22.129  0.00  0.00    +0.000 C 
ATOM     15  C   UNL     1       0.318  10.992  20.908  0.00  0.00    +0.000 C 
ENDBRANCH   6  11
BRANCH   2  16
ATOM     16  C   UNL     1       4.224   5.322  18.871  0.00  0.00    +0.000 C 
BRANCH  16  17
ATOM     17  N   UNL     1       3.770   3.982  18.527  0.00  0.00    +0.000 N 
ATOM     18  C   UNL     1       2.736   3.617  17.711  0.00  0.00    +0.000 A 
ATOM     19  C   UNL     1       2.670   2.245  17.768  0.00  0.00    +0.000 A 
ATOM     20  C   UNL     1       3.618   1.883  18.739  0.00  0.00    +0.000 A 
ATOM     21  N   UNL     1       4.274   2.936  19.226  0.00  0.00    +0.000 NA
ENDBRANCH  16  17
ENDBRANCH   2  16
TORSDOF 3
ENDMDL
MODEL 9
REMARK VINA RESULT:      -6.5      4.927      7.203
REMARK  Name = 
REMARK  3 active torsions:
REMARK  status: ('A' for Active; 'I' for Inactive)
REMARK    1  A    between atoms: C_2  and  C_3
REMARK    2  A    between atoms: C_3  and  N_4
REMARK    3  A    between atoms: C_12  and  C_13
REMARK                            x       y       z     vdW  Elec       q    Type
REMARK                         _______ _______ _______ _____ _____    ______ ____
ROOT
ATOM      1  O   UNL     1       5.996   3.981  18.418  0.00  0.00    +0.000 OA
ATOM      2  C   UNL     1       6.242   5.095  17.940  0.00  0.00    +0.000 C 
ATOM      3  N   UNL     1       7.206   5.853  18.562  0.00  0.00    +0.000 N 
ATOM      4  C   UNL     1       7.596   7.134  18.231  0.00  0.00    +0.000 A 
ATOM      5  C   UNL     1       8.575   7.899  18.911  0.00  0.00    +0.000 A 
ATOM      6  C   UNL     1       8.586   9.127  18.277  0.00  0.00    +0.000 A 
ATOM      7  N   UNL     1       7.672   9.014  17.268  0.00  0.00    +0.000 N 
ATOM      8  N   UNL     1       7.077   7.826  17.220  0.00  0.00    +0.000 NA
ATOM      9  H   UNL     1       7.636   5.427  19.367  0.00  0.00    +0.000 HD
ATOM     10  H   UNL     1       7.397   9.714  16.589  0.00  0.00    +0.000 HD
ENDROOT
BRANCH   6  11
ATOM     11  C   UNL     1       9.335  10.389  18.524  0.00  0.00    +0.000 C 
ATOM     12  C   UNL     1       8.684  11.612  17.881  0.00  0.00    +0.000 C 
ATOM     13  C   UNL     1       9.294  12.787  18.632  0.00  0.00    +0.000 C 
ATOM     14  C   UNL     1       9.607  12.273  20.036  0.00  0.00    +0.000 C 
ATOM     15  C   UNL     1       9.387  10.764  20.007  0.00  0.00    +0.000 C 
ENDBRANCH   6  11
BRANCH   2  16
ATOM     16  C   UNL     1       5.547   5.659  16.714  0.00  0.00    +0.000 C 
BRANCH  16  17
ATOM     17  N   UNL     1       5.972   5.130  15.426  0.00  0.00    +0.000 N 
ATOM     18  C   UNL     1       5.323   4.241  14.615  0.00  0.00    +0.000 A 
ATOM     19  C   UNL     1       6.165   4.008  13.554  0.00  0.00    +0.000 A 
ATOM     20  C   UNL     1       7.344   4.700  13.875  0.00  0.00    +0.000 A 
ATOM     21  N   UNL     1       7.246   5.364  15.026  0.00  0.00    +0.000 NA
ENDBRANCH  16  17
ENDBRANCH   2  16
TORSDOF 3
ENDMDL
