MODEL 1
REMARK VINA RESULT:      -6.9      0.000      0.000
REMARK  Name = 
REMARK  5 active torsions:
REMARK  status: ('A' for Active; 'I' for Inactive)
REMARK    1  A    between atoms: C_1  and  C_2
REMARK    2  A    between atoms: C_6  and  C_7
REMARK    3  A    between atoms: C_8  and  N_9
REMARK    4  A    between atoms: C_10  and  C_12
REMARK    5  A    between atoms: C_12  and  N_13
REMARK                            x       y       z     vdW  Elec       q    Type
REMARK                         _______ _______ _______ _____ _____    ______ ____
ROOT
ATOM      1  C   UNL     1       2.689   6.596  19.110  0.00  0.00    +0.000 C 
ATOM      2  C   UNL     1       2.413   5.147  19.409  0.00  0.00    +0.000 A 
ATOM      3  C   UNL     1       1.557   4.862  20.493  0.00  0.00    +0.000 A 
ATOM      4  C   UNL     1       1.309   3.550  20.888  0.00  0.00    +0.000 A 
ATOM      5  C   UNL     1       1.905   2.499  20.203  0.00  0.00    +0.000 A 
ATOM      6  C   UNL     1       2.762   2.744  19.119  0.00  0.00    +0.000 A 
ATOM      7  C   UNL     1       3.323   1.561  18.375  0.00  0.00    +0.000 C 
ATOM      8  C   UNL     1       3.012   4.077  18.714  0.00  0.00    +0.000 A 
ENDROOT
BRANCH   8   9
ATOM      9  N   UNL     1       3.951   4.281  17.672  0.00  0.00    +0.000 N 
ATOM     10  C   UNL     1       5.320   4.375  17.868  0.00  0.00    +0.000 C 
ATOM     11  O   UNL     1       5.914   4.205  18.932  0.00  0.00    +0.000 OA
ATOM     12  H   UNL     1       3.605   4.794  16.873  0.00  0.00    +0.000 HD
BRANCH  10  13
ATOM     13  C   UNL     1       6.084   4.759  16.605  0.00  0.00    +0.000 C 
BRANCH  13  14
ATOM     14  N   UNL     1       7.405   5.275  16.984  0.00  0.00    +0.000 NA
ATOM     15  N   UNL     1       7.508   6.518  16.986  0.00  0.00    +0.000 NA
ATOM     16  N   UNL     1       7.619   7.650  16.966  0.00  0.00    +0.000 NA
ENDBRANCH  13  14
ENDBRANCH  10  13
ENDBRANCH   8   9
TORSDOF 3
ENDMDL
MODEL 2
REMARK VINA RESULT:      -6.9      1.489      2.721
REMARK  Name = 
REMARK  5 active torsions:
REMARK  status: ('A' for Active; 'I' for Inactive)
REMARK    1  A    between atoms: C_1  and  C_2
REMARK    2  A    between atoms: C_6  and  C_7
REMARK    3  A    between atoms: C_8  and  N_9
REMARK    4  A    between atoms: C_10  and  C_12
REMARK    5  A    between atoms: C_12  and  N_13
REMARK                            x       y       z     vdW  Elec       q    Type
REMARK                         _______ _______ _______ _____ _____    ______ ____
ROOT
ATOM      1  C   UNL     1       4.256   2.399  19.947  0.00  0.00    +0.000 C 
ATOM      2  C   UNL     1       3.606   3.750  19.812  0.00  0.00    +0.000 A 
ATOM      3  C   UNL     1       2.492   4.017  20.634  0.00  0.00    +0.000 A 
ATOM      4  C   UNL     1       1.782   5.209  20.521  0.00  0.00    +0.000 A 
ATOM      5  C   UNL     1       2.177   6.160  19.589  0.00  0.00    +0.000 A 
ATOM      6  C   UNL     1       3.281   5.931  18.753  0.00  0.00    +0.000 A 
ATOM      7  C   UNL     1       3.700   7.028  17.811  0.00  0.00    +0.000 C 
ATOM      8  C   UNL     1       4.005   4.720  18.870  0.00  0.00    +0.000 A 
ENDROOT
BRANCH   8   9
ATOM      9  N   UNL     1       5.057   4.493  17.947  0.00  0.00    +0.000 N 
ATOM     10  C   UNL     1       6.396   4.707  18.231  0.00  0.00    +0.000 C 
ATOM     11  O   UNL     1       6.865   5.025  19.323  0.00  0.00    +0.000 OA
ATOM     12  H   UNL     1       4.810   4.606  16.974  0.00  0.00    +0.000 HD
BRANCH  10  13
ATOM     13  C   UNL     1       7.303   4.543  17.014  0.00  0.00    +0.000 C 
BRANCH  13  14
ATOM     14  N   UNL     1       7.235   5.763  16.201  0.00  0.00    +0.000 NA
ATOM     15  N   UNL     1       7.527   5.615  14.998  0.00  0.00    +0.000 NA
ATOM     16  N   UNL     1       7.816   5.495  13.904  0.00  0.00    +0.000 NA
ENDBRANCH  13  14
ENDBRANCH  10  13
ENDBRANCH   8   9
TORSDOF 3
ENDMDL
MODEL 3
REMARK VINA RESULT:      -6.9      1.608      2.844
REMARK  Name = 
REMARK  5 active torsions:
REMARK  status: ('A' for Active; 'I' for Inactive)
REMARK    1  A    between atoms: C_1  and  C_2
REMARK    2  A    between atoms: C_6  and  C_7
REMARK    3  A    between atoms: C_8  and  N_9
REMARK    4  A    between atoms: C_10  and  C_12
REMARK    5  A    between atoms: C_12  and  N_13
REMARK                            x       y       z     vdW  Elec       q    Type
REMARK                         _______ _______ _______ _____ _____    ______ ____
ROOT
ATOM      1  C   UNL     1       4.100   1.358  18.272  0.00  0.00    +0.000 C 
ATOM      2  C   UNL     1       3.351   2.662  18.191  0.00  0.00    +0.000 A 
ATOM      3  C   UNL     1       1.955   2.619  18.382  0.00  0.00    +0.000 A 
ATOM      4  C   UNL     1       1.174   3.763  18.248  0.00  0.00    +0.000 A 
ATOM      5  C   UNL     1       1.775   4.974  17.927  0.00  0.00    +0.000 A 
ATOM      6  C   UNL     1       3.162   5.056  17.730  0.00  0.00    +0.000 A 
ATOM      7  C   UNL     1       3.762   6.409  17.451  0.00  0.00    +0.000 C 
ATOM      8  C   UNL     1       3.957   3.893  17.870  0.00  0.00    +0.000 A 
ENDROOT
BRANCH   8   9
ATOM      9  N   UNL     1       5.339   4.004  17.576  0.00  0.00    +0.000 N 
ATOM     10  C   UNL     1       6.284   4.495  18.463  0.00  0.00    +0.000 C 
ATOM     11  O   UNL     1       6.084   4.809  19.636  0.00  0.00    +0.000 OA
ATOM     12  H   UNL     1       5.564   4.149  16.601  0.00  0.00    +0.000 HD
BRANCH  10  13
ATOM     13  C   UNL     1       7.666   4.662  17.840  0.00  0.00    +0.000 C 
BRANCH  13  14
ATOM     14  N   UNL     1       7.653   5.831  16.953  0.00  0.00    +0.000 NA
ATOM     15  N   UNL     1       7.097   5.654  15.851  0.00  0.00    +0.000 NA
ATOM     16  N   UNL     1       6.613   5.494  14.833  0.00  0.00    +0.000 NA
ENDBRANCH  13  14
ENDBRANCH  10  13
ENDBRANCH   8   9
TORSDOF 3
ENDMDL
MODEL 4
REMARK VINA RESULT:      -6.8      1.335      1.394
REMARK  Name = 
REMARK  5 active torsions:
REMARK  status: ('A' for Active; 'I' for Inactive)
REMARK    1  A    between atoms: C_1  and  C_2
REMARK    2  A    between atoms: C_6  and  C_7
REMARK    3  A    between atoms: C_8  and  N_9
REMARK    4  A    between atoms: C_10  and  C_12
REMARK    5  A    between atoms: C_12  and  N_13
REMARK                            x       y       z     vdW  Elec       q    Type
REMARK                         _______ _______ _______ _____ _____    ______ ____
ROOT
ATOM      1  C   UNL     1       3.215   6.644  18.208  0.00  0.00    +0.000 C 
ATOM      2  C   UNL     1       3.002   5.430  19.072  0.00  0.00    +0.000 A 
ATOM      3  C   UNL     1       1.926   5.464  19.982  0.00  0.00    +0.000 A 
ATOM      4  C   UNL     1       1.702   4.417  20.872  0.00  0.00    +0.000 A 
ATOM      5  C   UNL     1       2.545   3.314  20.865  0.00  0.00    +0.000 A 
ATOM      6  C   UNL     1       3.627   3.244  19.973  0.00  0.00    +0.000 A 
ATOM      7  C   UNL     1       4.465   1.992  19.968  0.00  0.00    +0.000 C 
ATOM      8  C   UNL     1       3.853   4.306  19.066  0.00  0.00    +0.000 A 
ENDROOT
BRANCH   8   9
ATOM      9  N   UNL     1       5.007   4.234  18.245  0.00  0.00    +0.000 N 
ATOM     10  C   UNL     1       6.245   4.746  18.600  0.00  0.00    +0.000 C 
ATOM     11  O   UNL     1       6.541   5.240  19.687  0.00  0.00    +0.000 OA
ATOM     12  H   UNL     1       4.830   4.215  17.250  0.00  0.00    +0.000 HD
BRANCH  10  13
ATOM     13  C   UNL     1       7.269   4.681  17.471  0.00  0.00    +0.000 C 
BRANCH  13  14
ATOM     14  N   UNL     1       7.359   5.998  16.831  0.00  0.00    +0.000 NA
ATOM     15  N   UNL     1       6.390   6.304  16.109  0.00  0.00    +0.000 NA
ATOM     16  N   UNL     1       5.520   6.581  15.428  0.00  0.00    +0.000 NA
ENDBRANCH  13  14
ENDBRANCH  10  13
ENDBRANCH   8   9
TORSDOF 3
ENDMDL
MODEL 5
REMARK VINA RESULT:      -6.8      1.179      2.523
REMARK  Name = 
REMARK  5 active torsions:
REMARK  status: ('A' for Active; 'I' for Inactive)
REMARK    1  A    between atoms: C_1  and  C_2
REMARK    2  A    between atoms: C_6  and  C_7
REMARK    3  A    between atoms: C_8  and  N_9
REMARK    4  A    between atoms: C_10  and  C_12
REMARK    5  A    between atoms: C_12  and  N_13
REMARK                            x       y       z     vdW  Elec       q    Type
REMARK                         _______ _______ _______ _____ _____    ______ ____
ROOT
ATOM      1  C   UNL     1       4.015   1.351  18.447  0.00  0.00    +0.000 C 
ATOM      2  C   UNL     1       3.321   2.684  18.532  0.00  0.00    +0.000 A 
ATOM      3  C   UNL     1       2.004   2.697  19.036  0.00  0.00    +0.000 A 
ATOM      4  C   UNL     1       1.260   3.873  19.078  0.00  0.00    +0.000 A 
ATOM      5  C   UNL     1       1.821   5.059  18.624  0.00  0.00    +0.000 A 
ATOM      6  C   UNL     1       3.129   5.086  18.116  0.00  0.00    +0.000 A 
ATOM      7  C   UNL     1       3.704   6.415  17.702  0.00  0.00    +0.000 C 
ATOM      8  C   UNL     1       3.887   3.891  18.076  0.00  0.00    +0.000 A 
ENDROOT
BRANCH   8   9
ATOM      9  N   UNL     1       5.170   3.948  17.475  0.00  0.00    +0.000 N 
ATOM     10  C   UNL     1       6.306   4.416  18.115  0.00  0.00    +0.000 C 
ATOM     11  O   UNL     1       6.388   4.754  19.295  0.00  0.00    +0.000 OA
ATOM     12  H   UNL     1       5.172   4.070  16.472  0.00  0.00    +0.000 HD
BRANCH  10  13
ATOM     13  C   UNL     1       7.516   4.523  17.192  0.00  0.00    +0.000 C 
BRANCH  13  14
ATOM     14  N   UNL     1       7.305   5.632  16.253  0.00  0.00    +0.000 NA
ATOM     15  N   UNL     1       7.482   6.770  16.728  0.00  0.00    +0.000 NA
ATOM     16  N   UNL     1       7.618   7.815  17.160  0.00  0.00    +0.000 NA
ENDBRANCH  13  14
ENDBRANCH  10  13
ENDBRANCH   8   9
TORSDOF 3
ENDMDL
MODEL 6
REMARK VINA RESULT:      -6.8      1.120      1.288
REMARK  Name = 
REMARK  5 active torsions:
REMARK  status: ('A' for Active; 'I' for Inactive)
REMARK    1  A    between atoms: C_1  and  C_2
REMARK    2  A    between atoms: C_6  and  C_7
REMARK    3  A    between atoms: C_8  and  N_9
REMARK    4  A    between atoms: C_10  and  C_12
REMARK    5  A    between atoms: C_12  and  N_13
REMARK                            x       y       z     vdW  Elec       q    Type
REMARK                         _______ _______ _______ _____ _____    ______ ____
ROOT
ATOM      1  C   UNL     1       2.271   6.933  19.857  0.00  0.00    +0.000 C 
ATOM      2  C   UNL     1       2.185   5.439  19.695  0.00  0.00    +0.000 A 
ATOM      3  C   UNL     1       1.327   4.741  20.569  0.00  0.00    +0.000 A 
ATOM      4  C   UNL     1       1.244   3.352  20.541  0.00  0.00    +0.000 A 
ATOM      5  C   UNL     1       2.013   2.634  19.634  0.00  0.00    +0.000 A 
ATOM      6  C   UNL     1       2.879   3.293  18.748  0.00  0.00    +0.000 A 
ATOM      7  C   UNL     1       3.636   2.464  17.744  0.00  0.00    +0.000 C 
ATOM      8  C   UNL     1       2.961   4.706  18.774  0.00  0.00    +0.000 A 
ENDROOT
BRANCH   8   9
ATOM      9  N   UNL     1       3.912   5.324  17.923  0.00  0.00    +0.000 N 
ATOM     10  C   UNL     1       5.219   5.599  18.291  0.00  0.00    +0.000 C 
ATOM     11  O   UNL     1       5.760   5.271  19.346  0.00  0.00    +0.000 OA
ATOM     12  H   UNL     1       3.528   5.954  17.232  0.00  0.00    +0.000 HD
BRANCH  10  13
ATOM     13  C   UNL     1       5.979   6.414  17.249  0.00  0.00    +0.000 C 
BRANCH  13  14
ATOM     14  N   UNL     1       7.233   5.723  16.924  0.00  0.00    +0.000 NA
ATOM     15  N   UNL     1       7.438   5.539  15.708  0.00  0.00    +0.000 NA
ATOM     16  N   UNL     1       7.621   5.345  14.602  0.00  0.00    +0.000 NA
ENDBRANCH  13  14
ENDBRANCH  10  13
ENDBRANCH   8   9
TORSDOF 3
ENDMDL
MODEL 7
REMARK VINA RESULT:      -6.8      1.028      1.216
REMARK  Name = 
REMARK  5 active torsions:
REMARK  status: ('A' for Active; 'I' for Inactive)
REMARK    1  A    between atoms: C_1  and  C_2
REMARK    2  A    between atoms: C_6  and  C_7
REMARK    3  A    between atoms: C_8  and  N_9
REMARK    4  A    between atoms: C_10  and  C_12
REMARK    5  A    between atoms: C_12  and  N_13
REMARK                            x       y       z     vdW  Elec       q    Type
REMARK                         _______ _______ _______ _____ _____    ______ ____
ROOT
ATOM      1  C   UNL     1       3.764   7.092  17.807  0.00  0.00    +0.000 C 
ATOM      2  C   UNL     1       3.179   5.770  18.225  0.00  0.00    +0.000 A 
ATOM      3  C   UNL     1       2.061   5.799  19.084  0.00  0.00    +0.000 A 
ATOM      4  C   UNL     1       1.504   4.624  19.581  0.00  0.00    +0.000 A 
ATOM      5  C   UNL     1       2.049   3.398  19.224  0.00  0.00    +0.000 A 
ATOM      6  C   UNL     1       3.162   3.328  18.371  0.00  0.00    +0.000 A 
ATOM      7  C   UNL     1       3.664   1.967  17.968  0.00  0.00    +0.000 C 
ATOM      8  C   UNL     1       3.727   4.522  17.862  0.00  0.00    +0.000 A 
ENDROOT
BRANCH   8   9
ATOM      9  N   UNL     1       4.901   4.409  17.076  0.00  0.00    +0.000 N 
ATOM     10  C   UNL     1       6.186   4.417  17.596  0.00  0.00    +0.000 C 
ATOM     11  O   UNL     1       6.486   4.428  18.788  0.00  0.00    +0.000 OA
ATOM     12  H   UNL     1       4.826   4.767  16.134  0.00  0.00    +0.000 HD
BRANCH  10  13
ATOM     13  C   UNL     1       7.269   4.448  16.522  0.00  0.00    +0.000 C 
BRANCH  13  14
ATOM     14  N   UNL     1       7.193   5.725  15.803  0.00  0.00    +0.000 NA
ATOM     15  N   UNL     1       7.422   6.737  16.494  0.00  0.00    +0.000 NA
ATOM     16  N   UNL     1       7.604   7.668  17.123  0.00  0.00    +0.000 NA
ENDBRANCH  13  14
ENDBRANCH  10  13
ENDBRANCH   8   9
TORSDOF 3
ENDMDL
MODEL 8
REMARK VINA RESULT:      -6.7      1.136      2.551
REMARK  Name = 
REMARK  5 active torsions:
REMARK  status: ('A' for Active; 'I' for Inactive)
REMARK    1  A    between atoms: C_1  and  C_2
REMARK    2  A    between atoms: C_6  and  C_7
REMARK    3  A    between atoms: C_8  and  N_9
REMARK    4  A    between atoms: C_10  and  C_12
REMARK    5  A    between atoms: C_12  and  N_13
REMARK                            x       y       z     vdW  Elec       q    Type
REMARK                         _______ _______ _______ _____ _____    ______ ____
ROOT
ATOM      1  C   UNL     1       3.692   1.729  18.156  0.00  0.00    +0.000 C 
ATOM      2  C   UNL     1       2.953   2.796  18.918  0.00  0.00    +0.000 A 
ATOM      3  C   UNL     1       1.875   2.384  19.728  0.00  0.00    +0.000 A 
ATOM      4  C   UNL     1       1.088   3.310  20.407  0.00  0.00    +0.000 A 
ATOM      5  C   UNL     1       1.369   4.666  20.294  0.00  0.00    +0.000 A 
ATOM      6  C   UNL     1       2.434   5.115  19.498  0.00  0.00    +0.000 A 
ATOM      7  C   UNL     1       2.729   6.592  19.471  0.00  0.00    +0.000 C 
ATOM      8  C   UNL     1       3.236   4.173  18.810  0.00  0.00    +0.000 A 
ENDROOT
BRANCH   8   9
ATOM      9  N   UNL     1       4.245   4.675  17.949  0.00  0.00    +0.000 N 
ATOM     10  C   UNL     1       5.557   4.893  18.337  0.00  0.00    +0.000 C 
ATOM     11  O   UNL     1       6.050   4.604  19.426  0.00  0.00    +0.000 OA
ATOM     12  H   UNL     1       3.919   5.281  17.209  0.00  0.00    +0.000 HD
BRANCH  10  13
ATOM     13  C   UNL     1       6.392   5.591  17.267  0.00  0.00    +0.000 C 
BRANCH  13  14
ATOM     14  N   UNL     1       6.845   4.594  16.289  0.00  0.00    +0.000 NA
ATOM     15  N   UNL     1       7.320   5.062  15.236  0.00  0.00    +0.000 NA
ATOM     16  N   UNL     1       7.732   5.481  14.261  0.00  0.00    +0.000 NA
ENDBRANCH  13  14
ENDBRANCH  10  13
ENDBRANCH   8   9
TORSDOF 3
ENDMDL
MODEL 9
REMARK VINA RESULT:      -6.7      1.365      1.481
REMARK  Name = 
REMARK  5 active torsions:
REMARK  status: ('A' for Active; 'I' for Inactive)
REMARK    1  A    between atoms: C_1  and  C_2
REMARK    2  A    between atoms: C_6  and  C_7
REMARK    3  A    between atoms: C_8  and  N_9
REMARK    4  A    between atoms: C_10  and  C_12
REMARK    5  A    between atoms: C_12  and  N_13
REMARK                            x       y       z     vdW  Elec       q    Type
REMARK                         _______ _______ _______ _____ _____    ______ ____
ROOT
ATOM      1  C   UNL     1       3.173   6.778  18.172  0.00  0.00    +0.000 C 
ATOM      2  C   UNL     1       2.853   5.432  18.764  0.00  0.00    +0.000 A 
ATOM      3  C   UNL     1       2.134   5.412  19.977  0.00  0.00    +0.000 A 
ATOM      4  C   UNL     1       1.862   4.216  20.634  0.00  0.00    +0.000 A 
ATOM      5  C   UNL     1       2.298   3.015  20.088  0.00  0.00    +0.000 A 
ATOM      6  C   UNL     1       3.016   2.994  18.882  0.00  0.00    +0.000 A 
ATOM      7  C   UNL     1       3.401   1.657  18.307  0.00  0.00    +0.000 C 
ATOM      8  C   UNL     1       3.289   4.211  18.211  0.00  0.00    +0.000 A 
ENDROOT
BRANCH   8   9
ATOM      9  N   UNL     1       4.092   4.150  17.044  0.00  0.00    +0.000 N 
ATOM     10  C   UNL     1       5.473   4.256  17.046  0.00  0.00    +0.000 C 
ATOM     11  O   UNL     1       6.195   4.321  18.040  0.00  0.00    +0.000 OA
ATOM     12  H   UNL     1       3.646   4.474  16.196  0.00  0.00    +0.000 HD
BRANCH  10  13
ATOM     13  C   UNL     1       6.074   4.324  15.645  0.00  0.00    +0.000 C 
BRANCH  13  14
ATOM     14  N   UNL     1       7.096   5.377  15.615  0.00  0.00    +0.000 NA
ATOM     15  N   UNL     1       7.663   5.534  14.515  0.00  0.00    +0.000 NA
ATOM     16  N   UNL     1       8.202   5.668  13.522  0.00  0.00    +0.000 NA
ENDBRANCH  13  14
ENDBRANCH  10  13
ENDBRANCH   8   9
TORSDOF 3
ENDMDL
