MODEL 1
REMARK VINA RESULT:      -6.9      0.000      0.000
REMARK  Name = 
REMARK  3 active torsions:
REMARK  status: ('A' for Active; 'I' for Inactive)
REMARK    1  A    between atoms: C_2  and  C_3
REMARK    2  A    between atoms: N_7  and  C_8
REMARK    3  A    between atoms: C_8  and  C_9
REMARK                            x       y       z     vdW  Elec       q    Type
REMARK                         _______ _______ _______ _____ _____    ______ ____
ROOT
ATOM      1  C   UNL     1       7.984   7.649  18.200  0.00  0.00    +0.000 A 
ATOM      2  C   UNL     1       8.156   6.480  18.897  0.00  0.00    +0.000 A 
ATOM      3  N   UNL     1       7.601   5.303  18.531  0.00  0.00    +0.000 NA
ATOM      4  C   UNL     1       6.836   5.293  17.428  0.00  0.00    +0.000 A 
ATOM      5  N   UNL     1       6.360   4.061  17.048  0.00  0.00    +0.000 N 
ATOM      6  N   UNL     1       6.590   6.389  16.694  0.00  0.00    +0.000 NA
ATOM      7  C   UNL     1       7.181   7.544  17.089  0.00  0.00    +0.000 A 
ATOM      8  H   UNL     1       6.522   3.386  17.782  0.00  0.00    +0.000 HD
ENDROOT
BRANCH   1  10
ATOM      9  N   UNL     1       9.091   9.870  18.910  0.00  0.00    +0.000 NA
ATOM     10  C   UNL     1       8.595   8.872  18.591  0.00  0.00    +0.000 C 
ENDBRANCH   1  10
BRANCH   5  11
ATOM     11  C   UNL     1       5.110   3.960  16.330  0.00  0.00    +0.000 C 
BRANCH  11  12
ATOM     12  C   UNL     1       3.925   3.764  17.254  0.00  0.00    +0.000 A 
ATOM     13  C   UNL     1       3.576   2.454  17.635  0.00  0.00    +0.000 A 
ATOM     14  C   UNL     1       2.526   2.220  18.527  0.00  0.00    +0.000 A 
ATOM     15  C   UNL     1       1.804   3.292  19.042  0.00  0.00    +0.000 A 
ATOM     16 CL   UNL     1       0.524   3.002  20.155  0.00  0.00    +0.000 Cl
ATOM     17  C   UNL     1       2.114   4.595  18.665  0.00  0.00    +0.000 A 
ATOM     18  C   UNL     1       3.165   4.828  17.771  0.00  0.00    +0.000 A 
ATOM     19 CL   UNL     1       3.490   6.472  17.347  0.00  0.00    +0.000 Cl
ENDBRANCH  11  12
ENDBRANCH   5  11
TORSDOF 3
ENDMDL
MODEL 2
REMARK VINA RESULT:      -6.8      1.076      1.161
REMARK  Name = 
REMARK  3 active torsions:
REMARK  status: ('A' for Active; 'I' for Inactive)
REMARK    1  A    between atoms: C_2  and  C_3
REMARK    2  A    between atoms: N_7  and  C_8
REMARK    3  A    between atoms: C_8  and  C_9
REMARK                            x       y       z     vdW  Elec       q    Type
REMARK                         _______ _______ _______ _____ _____    ______ ____
ROOT
ATOM      1  C   UNL     1       7.328   7.248  17.707  0.00  0.00    +0.000 A 
ATOM      2  C   UNL     1       7.751   6.025  18.161  0.00  0.00    +0.000 A 
ATOM      3  N   UNL     1       7.102   4.867  17.904  0.00  0.00    +0.000 NA
ATOM      4  C   UNL     1       5.981   4.933  17.171  0.00  0.00    +0.000 A 
ATOM      5  N   UNL     1       5.400   3.725  16.865  0.00  0.00    +0.000 N 
ATOM      6  N   UNL     1       5.475   6.084  16.703  0.00  0.00    +0.000 NA
ATOM      7  C   UNL     1       6.169   7.219  16.970  0.00  0.00    +0.000 A 
ATOM      8  H   UNL     1       5.826   2.989  17.409  0.00  0.00    +0.000 HD
ENDROOT
BRANCH   1  10
ATOM      9  N   UNL     1       8.620   9.431  18.188  0.00  0.00    +0.000 NA
ATOM     10  C   UNL     1       8.039   8.452  17.971  0.00  0.00    +0.000 C 
ENDBRANCH   1  10
BRANCH   5  11
ATOM     11  C   UNL     1       3.973   3.642  16.657  0.00  0.00    +0.000 C 
BRANCH  11  12
ATOM     12  C   UNL     1       3.210   3.420  17.948  0.00  0.00    +0.000 A 
ATOM     13  C   UNL     1       3.221   2.136  18.526  0.00  0.00    +0.000 A 
ATOM     14  C   UNL     1       2.580   1.888  19.742  0.00  0.00    +0.000 A 
ATOM     15  C   UNL     1       1.910   2.920  20.393  0.00  0.00    +0.000 A 
ATOM     16 CL   UNL     1       1.137   2.618  21.901  0.00  0.00    +0.000 Cl
ATOM     17  C   UNL     1       1.866   4.193  19.834  0.00  0.00    +0.000 A 
ATOM     18  C   UNL     1       2.507   4.440  18.615  0.00  0.00    +0.000 A 
ATOM     19 CL   UNL     1       2.407   6.045  17.980  0.00  0.00    +0.000 Cl
ENDBRANCH  11  12
ENDBRANCH   5  11
TORSDOF 3
ENDMDL
MODEL 3
REMARK VINA RESULT:      -6.7      3.120      6.295
REMARK  Name = 
REMARK  3 active torsions:
REMARK  status: ('A' for Active; 'I' for Inactive)
REMARK    1  A    between atoms: C_2  and  C_3
REMARK    2  A    between atoms: N_7  and  C_8
REMARK    3  A    between atoms: C_8  and  C_9
REMARK                            x       y       z     vdW  Elec       q    Type
REMARK                         _______ _______ _______ _____ _____    ______ ____
ROOT
ATOM      1  C   UNL     1       2.384   3.060  20.213  0.00  0.00    +0.000 A 
ATOM      2  C   UNL     1       1.883   3.952  19.300  0.00  0.00    +0.000 A 
ATOM      3  N   UNL     1       2.494   4.252  18.133  0.00  0.00    +0.000 NA
ATOM      4  C   UNL     1       3.659   3.642  17.867  0.00  0.00    +0.000 A 
ATOM      5  N   UNL     1       4.204   3.913  16.635  0.00  0.00    +0.000 N 
ATOM      6  N   UNL     1       4.241   2.772  18.707  0.00  0.00    +0.000 NA
ATOM      7  C   UNL     1       3.584   2.488  19.858  0.00  0.00    +0.000 A 
ATOM      8  H   UNL     1       3.714   4.684  16.203  0.00  0.00    +0.000 HD
ENDROOT
BRANCH   1  10
ATOM      9  N   UNL     1       1.166   2.487  22.415  0.00  0.00    +0.000 NA
ATOM     10  C   UNL     1       1.712   2.743  21.426  0.00  0.00    +0.000 C 
ENDBRANCH   1  10
BRANCH   5  11
ATOM     11  C   UNL     1       5.636   3.863  16.452  0.00  0.00    +0.000 C 
BRANCH  11  12
ATOM     12  C   UNL     1       6.339   5.071  17.038  0.00  0.00    +0.000 A 
ATOM     13  C   UNL     1       7.262   4.873  18.082  0.00  0.00    +0.000 A 
ATOM     14  C   UNL     1       7.978   5.945  18.622  0.00  0.00    +0.000 A 
ATOM     15  C   UNL     1       7.773   7.231  18.132  0.00  0.00    +0.000 A 
ATOM     16 CL   UNL     1       8.669   8.546  18.786  0.00  0.00    +0.000 Cl
ATOM     17  C   UNL     1       6.851   7.457  17.115  0.00  0.00    +0.000 A 
ATOM     18  C   UNL     1       6.134   6.383  16.575  0.00  0.00    +0.000 A 
ATOM     19 CL   UNL     1       5.004   6.742  15.317  0.00  0.00    +0.000 Cl
ENDBRANCH  11  12
ENDBRANCH   5  11
TORSDOF 3
ENDMDL
MODEL 4
REMARK VINA RESULT:      -6.4      2.735      4.163
REMARK  Name = 
REMARK  3 active torsions:
REMARK  status: ('A' for Active; 'I' for Inactive)
REMARK    1  A    between atoms: C_2  and  C_3
REMARK    2  A    between atoms: N_7  and  C_8
REMARK    3  A    between atoms: C_8  and  C_9
REMARK                            x       y       z     vdW  Elec       q    Type
REMARK                         _______ _______ _______ _____ _____    ______ ____
ROOT
ATOM      1  C   UNL     1       6.800   4.821  14.923  0.00  0.00    +0.000 A 
ATOM      2  C   UNL     1       7.318   4.976  16.183  0.00  0.00    +0.000 A 
ATOM      3  N   UNL     1       6.665   4.617  17.310  0.00  0.00    +0.000 NA
ATOM      4  C   UNL     1       5.439   4.087  17.175  0.00  0.00    +0.000 A 
ATOM      5  N   UNL     1       4.845   3.661  18.339  0.00  0.00    +0.000 N 
ATOM      6  N   UNL     1       4.838   3.918  15.987  0.00  0.00    +0.000 NA
ATOM      7  C   UNL     1       5.538   4.277  14.883  0.00  0.00    +0.000 A 
ATOM      8  H   UNL     1       5.371   3.992  19.136  0.00  0.00    +0.000 HD
ENDROOT
BRANCH   1  10
ATOM      9  N   UNL     1       8.100   5.485  12.793  0.00  0.00    +0.000 NA
ATOM     10  C   UNL     1       7.515   5.186  13.748  0.00  0.00    +0.000 C 
ENDBRANCH   1  10
BRANCH   5  11
ATOM     11  C   UNL     1       3.406   3.663  18.458  0.00  0.00    +0.000 C 
BRANCH  11  12
ATOM     12  C   UNL     1       2.872   4.960  19.033  0.00  0.00    +0.000 A 
ATOM     13  C   UNL     1       3.069   6.151  18.309  0.00  0.00    +0.000 A 
ATOM     14  C   UNL     1       2.551   7.366  18.766  0.00  0.00    +0.000 A 
ATOM     15  C   UNL     1       1.839   7.408  19.960  0.00  0.00    +0.000 A 
ATOM     16 CL   UNL     1       1.186   8.901  20.511  0.00  0.00    +0.000 Cl
ATOM     17  C   UNL     1       1.648   6.250  20.707  0.00  0.00    +0.000 A 
ATOM     18  C   UNL     1       2.167   5.033  20.248  0.00  0.00    +0.000 A 
ATOM     19 CL   UNL     1       1.893   3.638  21.231  0.00  0.00    +0.000 Cl
ENDBRANCH  11  12
ENDBRANCH   5  11
TORSDOF 3
ENDMDL
MODEL 5
REMARK VINA RESULT:      -6.3      1.266      1.788
REMARK  Name = 
REMARK  3 active torsions:
REMARK  status: ('A' for Active; 'I' for Inactive)
REMARK    1  A    between atoms: C_2  and  C_3
REMARK    2  A    between atoms: N_7  and  C_8
REMARK    3  A    between atoms: C_8  and  C_9
REMARK                            x       y       z     vdW  Elec       q    Type
REMARK                         _______ _______ _______ _____ _____    ______ ____
ROOT
ATOM      1  C   UNL     1       7.780   7.512  18.024  0.00  0.00    +0.000 A 
ATOM      2  C   UNL     1       8.111   6.357  18.687  0.00  0.00    +0.000 A 
ATOM      3  N   UNL     1       7.596   5.145  18.382  0.00  0.00    +0.000 NA
ATOM      4  C   UNL     1       6.707   5.084  17.379  0.00  0.00    +0.000 A 
ATOM      5  N   UNL     1       6.271   3.822  17.050  0.00  0.00    +0.000 N 
ATOM      6  N   UNL     1       6.302   6.160  16.688  0.00  0.00    +0.000 NA
ATOM      7  C   UNL     1       6.859   7.352  17.017  0.00  0.00    +0.000 A 
ATOM      8  H   UNL     1       6.564   3.160  17.754  0.00  0.00    +0.000 HD
ENDROOT
BRANCH   1  10
ATOM      9  N   UNL     1       8.820   9.800  18.614  0.00  0.00    +0.000 NA
ATOM     10  C   UNL     1       8.352   8.773  18.348  0.00  0.00    +0.000 C 
ENDBRANCH   1  10
BRANCH   5  11
ATOM     11  C   UNL     1       4.953   3.638  16.487  0.00  0.00    +0.000 C 
BRANCH  11  12
ATOM     12  C   UNL     1       3.856   3.766  17.524  0.00  0.00    +0.000 A 
ATOM     13  C   UNL     1       3.288   5.034  17.752  0.00  0.00    +0.000 A 
ATOM     14  C   UNL     1       2.236   5.199  18.657  0.00  0.00    +0.000 A 
ATOM     15  C   UNL     1       1.745   4.100  19.355  0.00  0.00    +0.000 A 
ATOM     16 CL   UNL     1       0.438   4.302  20.455  0.00  0.00    +0.000 Cl
ATOM     17  C   UNL     1       2.302   2.839  19.164  0.00  0.00    +0.000 A 
ATOM     18  C   UNL     1       3.356   2.675  18.257  0.00  0.00    +0.000 A 
ATOM     19 CL   UNL     1       3.999   1.080  18.075  0.00  0.00    +0.000 Cl
ENDBRANCH  11  12
ENDBRANCH   5  11
TORSDOF 3
ENDMDL
MODEL 6
REMARK VINA RESULT:      -6.3      2.715      4.095
REMARK  Name = 
REMARK  3 active torsions:
REMARK  status: ('A' for Active; 'I' for Inactive)
REMARK    1  A    between atoms: C_2  and  C_3
REMARK    2  A    between atoms: N_7  and  C_8
REMARK    3  A    between atoms: C_8  and  C_9
REMARK                            x       y       z     vdW  Elec       q    Type
REMARK                         _______ _______ _______ _____ _____    ______ ____
ROOT
ATOM      1  C   UNL     1       6.388   4.300  14.108  0.00  0.00    +0.000 A 
ATOM      2  C   UNL     1       7.403   4.754  14.912  0.00  0.00    +0.000 A 
ATOM      3  N   UNL     1       7.213   5.211  16.170  0.00  0.00    +0.000 NA
ATOM      4  C   UNL     1       5.958   5.223  16.644  0.00  0.00    +0.000 A 
ATOM      5  N   UNL     1       5.821   5.618  17.953  0.00  0.00    +0.000 N 
ATOM      6  N   UNL     1       4.897   4.822  15.926  0.00  0.00    +0.000 NA
ATOM      7  C   UNL     1       5.137   4.355  14.675  0.00  0.00    +0.000 A 
ATOM      8  H   UNL     1       6.689   6.013  18.287  0.00  0.00    +0.000 HD
ENDROOT
BRANCH   1  10
ATOM      9  N   UNL     1       6.796   3.400  11.724  0.00  0.00    +0.000 NA
ATOM     10  C   UNL     1       6.614   3.803  12.795  0.00  0.00    +0.000 C 
ENDBRANCH   1  10
BRANCH   5  11
ATOM     11  C   UNL     1       4.601   6.254  18.392  0.00  0.00    +0.000 C 
BRANCH  11  12
ATOM     12  C   UNL     1       3.739   5.338  19.238  0.00  0.00    +0.000 A 
ATOM     13  C   UNL     1       4.092   3.978  19.333  0.00  0.00    +0.000 A 
ATOM     14  C   UNL     1       3.364   3.101  20.141  0.00  0.00    +0.000 A 
ATOM     15  C   UNL     1       2.268   3.569  20.858  0.00  0.00    +0.000 A 
ATOM     16 CL   UNL     1       1.385   2.492  21.868  0.00  0.00    +0.000 Cl
ATOM     17  C   UNL     1       1.885   4.904  20.766  0.00  0.00    +0.000 A 
ATOM     18  C   UNL     1       2.614   5.782  19.955  0.00  0.00    +0.000 A 
ATOM     19 CL   UNL     1       2.077   7.424  19.888  0.00  0.00    +0.000 Cl
ENDBRANCH  11  12
ENDBRANCH   5  11
TORSDOF 3
ENDMDL
MODEL 7
REMARK VINA RESULT:      -6.3      4.907      6.494
REMARK  Name = 
REMARK  3 active torsions:
REMARK  status: ('A' for Active; 'I' for Inactive)
REMARK    1  A    between atoms: C_2  and  C_3
REMARK    2  A    between atoms: N_7  and  C_8
REMARK    3  A    between atoms: C_8  and  C_9
REMARK                            x       y       z     vdW  Elec       q    Type
REMARK                         _______ _______ _______ _____ _____    ______ ____
ROOT
ATOM      1  C   UNL     1       0.594   9.817  21.197  0.00  0.00    +0.000 A 
ATOM      2  C   UNL     1       0.812  10.157  19.886  0.00  0.00    +0.000 A 
ATOM      3  N   UNL     1       1.413   9.341  18.991  0.00  0.00    +0.000 NA
ATOM      4  C   UNL     1       1.819   8.137  19.424  0.00  0.00    +0.000 A 
ATOM      5  N   UNL     1       2.349   7.309  18.463  0.00  0.00    +0.000 N 
ATOM      6  N   UNL     1       1.672   7.723  20.692  0.00  0.00    +0.000 NA
ATOM      7  C   UNL     1       1.049   8.568  21.550  0.00  0.00    +0.000 A 
ATOM      8  H   UNL     1       2.511   7.828  17.612  0.00  0.00    +0.000 HD
ENDROOT
BRANCH   1  10
ATOM      9  N   UNL     1      -0.593  11.387  22.867  0.00  0.00    +0.000 NA
ATOM     10  C   UNL     1      -0.060  10.683  22.116  0.00  0.00    +0.000 C 
ENDBRANCH   1  10
BRANCH   5  11
ATOM     11  C   UNL     1       3.340   6.322  18.827  0.00  0.00    +0.000 C 
BRANCH  11  12
ATOM     12  C   UNL     1       4.048   5.738  17.620  0.00  0.00    +0.000 A 
ATOM     13  C   UNL     1       4.669   6.617  16.712  0.00  0.00    +0.000 A 
ATOM     14  C   UNL     1       5.381   6.130  15.614  0.00  0.00    +0.000 A 
ATOM     15  C   UNL     1       5.472   4.758  15.401  0.00  0.00    +0.000 A 
ATOM     16 CL   UNL     1       6.366   4.159  14.058  0.00  0.00    +0.000 Cl
ATOM     17  C   UNL     1       4.850   3.868  16.271  0.00  0.00    +0.000 A 
ATOM     18  C   UNL     1       4.136   4.357  17.372  0.00  0.00    +0.000 A 
ATOM     19 CL   UNL     1       3.386   3.193  18.406  0.00  0.00    +0.000 Cl
ENDBRANCH  11  12
ENDBRANCH   5  11
TORSDOF 3
ENDMDL
MODEL 8
REMARK VINA RESULT:      -6.1      2.278      4.018
REMARK  Name = 
REMARK  3 active torsions:
REMARK  status: ('A' for Active; 'I' for Inactive)
REMARK    1  A    between atoms: C_2  and  C_3
REMARK    2  A    between atoms: N_7  and  C_8
REMARK    3  A    between atoms: C_8  and  C_9
REMARK                            x       y       z     vdW  Elec       q    Type
REMARK                         _______ _______ _______ _____ _____    ______ ____
ROOT
ATOM      1  C   UNL     1       6.075   4.262  14.319  0.00  0.00    +0.000 A 
ATOM      2  C   UNL     1       5.713   5.575  14.480  0.00  0.00    +0.000 A 
ATOM      3  N   UNL     1       5.643   6.190  15.682  0.00  0.00    +0.000 NA
ATOM      4  C   UNL     1       5.939   5.463  16.769  0.00  0.00    +0.000 A 
ATOM      5  N   UNL     1       5.935   6.149  17.961  0.00  0.00    +0.000 N 
ATOM      6  N   UNL     1       6.281   4.166  16.716  0.00  0.00    +0.000 NA
ATOM      7  C   UNL     1       6.355   3.596  15.489  0.00  0.00    +0.000 A 
ATOM      8  H   UNL     1       5.524   7.062  17.832  0.00  0.00    +0.000 HD
ENDROOT
BRANCH   1  10
ATOM      9  N   UNL     1       6.233   3.135  12.003  0.00  0.00    +0.000 NA
ATOM     10  C   UNL     1       6.163   3.641  13.042  0.00  0.00    +0.000 C 
ENDBRANCH   1  10
BRANCH   5  11
ATOM     11  C   UNL     1       5.622   5.458  19.191  0.00  0.00    +0.000 C 
BRANCH  11  12
ATOM     12  C   UNL     1       4.312   4.699  19.114  0.00  0.00    +0.000 A 
ATOM     13  C   UNL     1       4.319   3.314  19.368  0.00  0.00    +0.000 A 
ATOM     14  C   UNL     1       3.133   2.576  19.364  0.00  0.00    +0.000 A 
ATOM     15  C   UNL     1       1.924   3.211  19.094  0.00  0.00    +0.000 A 
ATOM     16 CL   UNL     1       0.462   2.303  19.108  0.00  0.00    +0.000 Cl
ATOM     17  C   UNL     1       1.892   4.574  18.818  0.00  0.00    +0.000 A 
ATOM     18  C   UNL     1       3.081   5.312  18.822  0.00  0.00    +0.000 A 
ATOM     19 CL   UNL     1       2.963   7.000  18.467  0.00  0.00    +0.000 Cl
ENDBRANCH  11  12
ENDBRANCH   5  11
TORSDOF 3
ENDMDL
MODEL 9
REMARK VINA RESULT:      -6.1      1.623      2.012
REMARK  Name = 
REMARK  3 active torsions:
REMARK  status: ('A' for Active; 'I' for Inactive)
REMARK    1  A    between atoms: C_2  and  C_3
REMARK    2  A    between atoms: N_7  and  C_8
REMARK    3  A    between atoms: C_8  and  C_9
REMARK                            x       y       z     vdW  Elec       q    Type
REMARK                         _______ _______ _______ _____ _____    ______ ____
ROOT
ATOM      1  C   UNL     1       7.830   7.924  18.030  0.00  0.00    +0.000 A 
ATOM      2  C   UNL     1       8.236   6.810  18.719  0.00  0.00    +0.000 A 
ATOM      3  N   UNL     1       7.655   5.596  18.589  0.00  0.00    +0.000 NA
ATOM      4  C   UNL     1       6.621   5.491  17.740  0.00  0.00    +0.000 A 
ATOM      5  N   UNL     1       6.115   4.224  17.576  0.00  0.00    +0.000 N 
ATOM      6  N   UNL     1       6.137   6.528  17.040  0.00  0.00    +0.000 NA
ATOM      7  C   UNL     1       6.761   7.723  17.190  0.00  0.00    +0.000 A 
ATOM      8  H   UNL     1       6.500   3.605  18.276  0.00  0.00    +0.000 HD
ENDROOT
BRANCH   1  10
ATOM      9  N   UNL     1       8.990  10.217  18.279  0.00  0.00    +0.000 NA
ATOM     10  C   UNL     1       8.471   9.187  18.168  0.00  0.00    +0.000 C 
ENDBRANCH   1  10
BRANCH   5  11
ATOM     11  C   UNL     1       4.722   4.041  17.236  0.00  0.00    +0.000 C 
BRANCH  11  12
ATOM     12  C   UNL     1       3.870   3.697  18.442  0.00  0.00    +0.000 A 
ATOM     13  C   UNL     1       3.403   4.743  19.259  0.00  0.00    +0.000 A 
ATOM     14  C   UNL     1       2.570   4.487  20.351  0.00  0.00    +0.000 A 
ATOM     15  C   UNL     1       2.202   3.178  20.647  0.00  0.00    +0.000 A 
ATOM     16 CL   UNL     1       1.160   2.865  21.981  0.00  0.00    +0.000 Cl
ATOM     17  C   UNL     1       2.666   2.123  19.868  0.00  0.00    +0.000 A 
ATOM     18  C   UNL     1       3.502   2.381  18.775  0.00  0.00    +0.000 A 
ATOM     19 CL   UNL     1       4.042   1.020  17.856  0.00  0.00    +0.000 Cl
ENDBRANCH  11  12
ENDBRANCH   5  11
TORSDOF 3
ENDMDL
