MODEL 1
REMARK VINA RESULT:      -7.3      0.000      0.000
REMARK  Name = 
REMARK  3 active torsions:
REMARK  status: ('A' for Active; 'I' for Inactive)
REMARK    1  A    between atoms: C_1  and  N_2
REMARK    2  A    between atoms: C_6  and  C_7
REMARK    3  A    between atoms: C_12  and  C_14
REMARK                            x       y       z     vdW  Elec       q    Type
REMARK                         _______ _______ _______ _____ _____    ______ ____
ROOT
ATOM      1  C   UNL     1       0.414  10.192  20.206  0.00  0.00    +0.000 A 
ATOM      2  C   UNL     1       0.471  10.367  21.574  0.00  0.00    +0.000 A 
ATOM      3  S   UNL     1       1.227   9.006  22.291  0.00  0.00    +0.000 S 
ATOM      4  C   UNL     1       1.458   8.339  20.735  0.00  0.00    +0.000 A 
ATOM      5  N   UNL     1       2.100   7.134  20.761  0.00  0.00    +0.000 N 
ATOM      6  C   UNL     1       2.533   6.454  19.639  0.00  0.00    +0.000 C 
ATOM      7  O   UNL     1       2.443   6.832  18.476  0.00  0.00    +0.000 OA
ATOM      8  N   UNL     1       0.983   9.022  19.728  0.00  0.00    +0.000 NA
ATOM      9  H   UNL     1       2.299   6.771  21.680  0.00  0.00    +0.000 HD
ENDROOT
BRANCH   6  10
ATOM     10  C   UNL     1       3.047   5.060  20.010  0.00  0.00    +0.000 C 
ATOM     11  C   UNL     1       3.222   4.077  18.808  0.00  0.00    +0.000 C 
ATOM     12  C   UNL     1       2.508   2.800  19.296  0.00  0.00    +0.000 C 
ATOM     13  C   UNL     1       1.029   3.087  19.360  0.00  0.00    +0.000 C 
ATOM     14  C   UNL     1       0.833   3.932  20.381  0.00  0.00    +0.000 C 
ATOM     15  C   UNL     1       2.184   4.230  20.992  0.00  0.00    +0.000 C 
ATOM     16  C   UNL     1       2.819   2.841  20.795  0.00  0.00    +0.000 C 
ENDBRANCH   6  10
BRANCH   1  22
ATOM     17  C   UNL     1       1.746  12.765  19.089  0.00  0.00    +0.000 C 
ATOM     18  N   UNL     1       0.377  12.370  18.865  0.00  0.00    +0.000 N 
ATOM     19  C   UNL     1      -0.542  13.057  18.120  0.00  0.00    +0.000 A 
ATOM     20  C   UNL     1      -1.654  12.250  18.091  0.00  0.00    +0.000 A 
ATOM     21  N   UNL     1      -1.442  11.103  18.810  0.00  0.00    +0.000 NA
ATOM     22  C   UNL     1      -0.217  11.210  19.303  0.00  0.00    +0.000 A 
ENDBRANCH   1  22
TORSDOF 2
ENDMDL
MODEL 2
REMARK VINA RESULT:      -7.2      0.558      1.306
REMARK  Name = 
REMARK  3 active torsions:
REMARK  status: ('A' for Active; 'I' for Inactive)
REMARK    1  A    between atoms: C_1  and  N_2
REMARK    2  A    between atoms: C_6  and  C_7
REMARK    3  A    between atoms: C_12  and  C_14
REMARK                            x       y       z     vdW  Elec       q    Type
REMARK                         _______ _______ _______ _____ _____    ______ ____
ROOT
ATOM      1  C   UNL     1       0.446  10.298  20.206  0.00  0.00    +0.000 A 
ATOM      2  C   UNL     1       0.436  10.433  21.579  0.00  0.00    +0.000 A 
ATOM      3  S   UNL     1       1.146   9.047  22.294  0.00  0.00    +0.000 S 
ATOM      4  C   UNL     1       1.450   8.422  20.733  0.00  0.00    +0.000 A 
ATOM      5  N   UNL     1       2.081   7.211  20.756  0.00  0.00    +0.000 N 
ATOM      6  C   UNL     1       2.564   6.559  19.638  0.00  0.00    +0.000 C 
ATOM      7  O   UNL     1       2.534   6.971  18.483  0.00  0.00    +0.000 OA
ATOM      8  N   UNL     1       1.030   9.137  19.724  0.00  0.00    +0.000 NA
ATOM      9  H   UNL     1       2.232   6.821  21.673  0.00  0.00    +0.000 HD
ENDROOT
BRANCH   6  10
ATOM     10  C   UNL     1       3.050   5.151  19.994  0.00  0.00    +0.000 C 
ATOM     11  C   UNL     1       3.248   4.192  18.777  0.00  0.00    +0.000 C 
ATOM     12  C   UNL     1       2.503   2.914  19.217  0.00  0.00    +0.000 C 
ATOM     13  C   UNL     1       1.027   3.219  19.244  0.00  0.00    +0.000 C 
ATOM     14  C   UNL     1       0.812   4.045  20.277  0.00  0.00    +0.000 C 
ATOM     15  C   UNL     1       2.148   4.312  20.932  0.00  0.00    +0.000 C 
ATOM     16  C   UNL     1       2.771   2.920  20.725  0.00  0.00    +0.000 C 
ENDBRANCH   6  10
BRANCH   1  22
ATOM     17  C   UNL     1      -1.972   9.965  18.287  0.00  0.00    +0.000 C 
ATOM     18  N   UNL     1      -1.172  11.157  18.421  0.00  0.00    +0.000 N 
ATOM     19  C   UNL     1      -1.359  12.326  17.735  0.00  0.00    +0.000 A 
ATOM     20  C   UNL     1      -0.449  13.204  18.273  0.00  0.00    +0.000 A 
ATOM     21  N   UNL     1       0.294  12.597  19.252  0.00  0.00    +0.000 NA
ATOM     22  C   UNL     1      -0.134  11.345  19.302  0.00  0.00    +0.000 A 
ENDBRANCH   1  22
TORSDOF 2
ENDMDL
MODEL 3
REMARK VINA RESULT:      -7.1      7.083     10.050
REMARK  Name = 
REMARK  3 active torsions:
REMARK  status: ('A' for Active; 'I' for Inactive)
REMARK    1  A    between atoms: C_1  and  N_2
REMARK    2  A    between atoms: C_6  and  C_7
REMARK    3  A    between atoms: C_12  and  C_14
REMARK                            x       y       z     vdW  Elec       q    Type
REMARK                         _______ _______ _______ _____ _____    ______ ____
ROOT
ATOM      1  C   UNL     1       7.332   5.729  17.025  0.00  0.00    +0.000 A 
ATOM      2  C   UNL     1       7.420   4.926  18.144  0.00  0.00    +0.000 A 
ATOM      3  S   UNL     1       8.084   5.827  19.441  0.00  0.00    +0.000 S 
ATOM      4  C   UNL     1       8.144   7.203  18.429  0.00  0.00    +0.000 A 
ATOM      5  N   UNL     1       8.638   8.309  19.061  0.00  0.00    +0.000 N 
ATOM      6  C   UNL     1       8.660   9.577  18.513  0.00  0.00    +0.000 C 
ATOM      7  O   UNL     1       8.219   9.908  17.417  0.00  0.00    +0.000 OA
ATOM      8  N   UNL     1       7.751   7.039  17.195  0.00  0.00    +0.000 NA
ATOM      9  H   UNL     1       8.952   8.161  20.007  0.00  0.00    +0.000 HD
ENDROOT
BRANCH   6  10
ATOM     10  C   UNL     1       9.439  10.545  19.409  0.00  0.00    +0.000 C 
ATOM     11  C   UNL     1       8.770  11.942  19.613  0.00  0.00    +0.000 C 
ATOM     12  C   UNL     1       9.925  12.925  19.327  0.00  0.00    +0.000 C 
ATOM     13  C   UNL     1      10.247  12.852  17.855  0.00  0.00    +0.000 C 
ATOM     14  C   UNL     1      10.823  11.663  17.634  0.00  0.00    +0.000 C 
ATOM     15  C   UNL     1      10.869  10.927  18.954  0.00  0.00    +0.000 C 
ATOM     16  C   UNL     1      11.123  12.140  19.867  0.00  0.00    +0.000 C 
ENDBRANCH   6  10
BRANCH   1  22
ATOM     17  C   UNL     1       4.554   4.439  16.515  0.00  0.00    +0.000 C 
ATOM     18  N   UNL     1       5.595   4.595  15.529  0.00  0.00    +0.000 N 
ATOM     19  C   UNL     1       5.518   4.212  14.218  0.00  0.00    +0.000 A 
ATOM     20  C   UNL     1       6.682   4.665  13.645  0.00  0.00    +0.000 A 
ATOM     21  N   UNL     1       7.468   5.296  14.572  0.00  0.00    +0.000 NA
ATOM     22  C   UNL     1       6.809   5.212  15.718  0.00  0.00    +0.000 A 
ENDBRANCH   1  22
TORSDOF 2
ENDMDL
MODEL 4
REMARK VINA RESULT:      -7.0      0.925      1.677
REMARK  Name = 
REMARK  3 active torsions:
REMARK  status: ('A' for Active; 'I' for Inactive)
REMARK    1  A    between atoms: C_1  and  N_2
REMARK    2  A    between atoms: C_6  and  C_7
REMARK    3  A    between atoms: C_12  and  C_14
REMARK                            x       y       z     vdW  Elec       q    Type
REMARK                         _______ _______ _______ _____ _____    ______ ____
ROOT
ATOM      1  C   UNL     1       0.601  10.540  20.397  0.00  0.00    +0.000 A 
ATOM      2  C   UNL     1       0.219  10.487  21.722  0.00  0.00    +0.000 A 
ATOM      3  S   UNL     1       0.557   8.930  22.351  0.00  0.00    +0.000 S 
ATOM      4  C   UNL     1       1.224   8.486  20.842  0.00  0.00    +0.000 A 
ATOM      5  N   UNL     1       1.698   7.206  20.823  0.00  0.00    +0.000 N 
ATOM      6  C   UNL     1       2.409   6.650  19.777  0.00  0.00    +0.000 C 
ATOM      7  O   UNL     1       2.747   7.214  18.742  0.00  0.00    +0.000 OA
ATOM      8  N   UNL     1       1.178   9.384  19.895  0.00  0.00    +0.000 NA
ATOM      9  H   UNL     1       1.546   6.677  21.668  0.00  0.00    +0.000 HD
ENDROOT
BRANCH   6  10
ATOM     10  C   UNL     1       2.632   5.151  20.003  0.00  0.00    +0.000 C 
ATOM     11  C   UNL     1       3.949   4.578  19.388  0.00  0.00    +0.000 C 
ATOM     12  C   UNL     1       3.461   3.327  18.629  0.00  0.00    +0.000 C 
ATOM     13  C   UNL     1       2.641   3.785  17.449  0.00  0.00    +0.000 C 
ATOM     14  C   UNL     1       1.498   4.289  17.934  0.00  0.00    +0.000 C 
ATOM     15  C   UNL     1       1.558   4.188  19.441  0.00  0.00    +0.000 C 
ATOM     16  C   UNL     1       2.322   2.855  19.536  0.00  0.00    +0.000 C 
ENDBRANCH   6  10
BRANCH   1  22
ATOM     17  C   UNL     1      -1.977  11.370  18.879  0.00  0.00    +0.000 C 
ATOM     18  N   UNL     1      -0.728  12.091  18.858  0.00  0.00    +0.000 N 
ATOM     19  C   UNL     1      -0.488  13.254  18.178  0.00  0.00    +0.000 A 
ATOM     20  C   UNL     1       0.782  13.627  18.547  0.00  0.00    +0.000 A 
ATOM     21  N   UNL     1       1.324  12.716  19.416  0.00  0.00    +0.000 NA
ATOM     22  C   UNL     1       0.408  11.773  19.565  0.00  0.00    +0.000 A 
ENDBRANCH   1  22
TORSDOF 2
ENDMDL
MODEL 5
REMARK VINA RESULT:      -7.0      5.487      7.888
REMARK  Name = 
REMARK  3 active torsions:
REMARK  status: ('A' for Active; 'I' for Inactive)
REMARK    1  A    between atoms: C_1  and  N_2
REMARK    2  A    between atoms: C_6  and  C_7
REMARK    3  A    between atoms: C_12  and  C_14
REMARK                            x       y       z     vdW  Elec       q    Type
REMARK                         _______ _______ _______ _____ _____    ______ ____
ROOT
ATOM      1  C   UNL     1       6.489   4.734  15.643  0.00  0.00    +0.000 A 
ATOM      2  C   UNL     1       7.350   4.877  16.712  0.00  0.00    +0.000 A 
ATOM      3  S   UNL     1       6.466   4.761  18.175  0.00  0.00    +0.000 S 
ATOM      4  C   UNL     1       5.044   4.479  17.271  0.00  0.00    +0.000 A 
ATOM      5  N   UNL     1       3.942   4.290  18.055  0.00  0.00    +0.000 N 
ATOM      6  C   UNL     1       2.702   3.906  17.581  0.00  0.00    +0.000 C 
ATOM      7  O   UNL     1       2.412   3.649  16.418  0.00  0.00    +0.000 OA
ATOM      8  N   UNL     1       5.162   4.506  15.971  0.00  0.00    +0.000 NA
ATOM      9  H   UNL     1       4.094   4.396  19.046  0.00  0.00    +0.000 HD
ENDROOT
BRANCH   6  10
ATOM     10  C   UNL     1       1.652   3.960  18.695  0.00  0.00    +0.000 C 
ATOM     11  C   UNL     1       2.039   4.838  19.928  0.00  0.00    +0.000 C 
ATOM     12  C   UNL     1       1.741   3.910  21.123  0.00  0.00    +0.000 C 
ATOM     13  C   UNL     1       2.748   2.787  21.106  0.00  0.00    +0.000 C 
ATOM     14  C   UNL     1       2.453   2.007  20.057  0.00  0.00    +0.000 C 
ATOM     15  C   UNL     1       1.259   2.616  19.357  0.00  0.00    +0.000 C 
ATOM     16  C   UNL     1       0.524   3.140  20.604  0.00  0.00    +0.000 C 
ENDBRANCH   6  10
BRANCH   1  22
ATOM     17  C   UNL     1       5.251   3.303  13.182  0.00  0.00    +0.000 C 
ATOM     18  N   UNL     1       6.434   4.128  13.159  0.00  0.00    +0.000 N 
ATOM     19  C   UNL     1       7.186   4.416  12.053  0.00  0.00    +0.000 A 
ATOM     20  C   UNL     1       8.126   5.320  12.487  0.00  0.00    +0.000 A 
ATOM     21  N   UNL     1       7.976   5.575  13.825  0.00  0.00    +0.000 NA
ATOM     22  C   UNL     1       6.968   4.815  14.224  0.00  0.00    +0.000 A 
ENDBRANCH   1  22
TORSDOF 2
ENDMDL
MODEL 6
REMARK VINA RESULT:      -7.0      5.707      7.751
REMARK  Name = 
REMARK  3 active torsions:
REMARK  status: ('A' for Active; 'I' for Inactive)
REMARK    1  A    between atoms: C_1  and  N_2
REMARK    2  A    between atoms: C_6  and  C_7
REMARK    3  A    between atoms: C_12  and  C_14
REMARK                            x       y       z     vdW  Elec       q    Type
REMARK                         _______ _______ _______ _____ _____    ______ ____
ROOT
ATOM      1  C   UNL     1       6.522   4.882  16.071  0.00  0.00    +0.000 A 
ATOM      2  C   UNL     1       7.081   5.723  17.012  0.00  0.00    +0.000 A 
ATOM      3  S   UNL     1       6.325   5.465  18.527  0.00  0.00    +0.000 S 
ATOM      4  C   UNL     1       5.372   4.235  17.820  0.00  0.00    +0.000 A 
ATOM      5  N   UNL     1       4.521   3.642  18.708  0.00  0.00    +0.000 N 
ATOM      6  C   UNL     1       3.747   2.532  18.428  0.00  0.00    +0.000 C 
ATOM      7  O   UNL     1       3.728   1.901  17.377  0.00  0.00    +0.000 OA
ATOM      8  N   UNL     1       5.537   4.028  16.541  0.00  0.00    +0.000 NA
ATOM      9  H   UNL     1       4.522   4.036  19.636  0.00  0.00    +0.000 HD
ENDROOT
BRANCH   6  10
ATOM     10  C   UNL     1       2.780   2.237  19.579  0.00  0.00    +0.000 C 
ATOM     11  C   UNL     1       1.265   2.380  19.224  0.00  0.00    +0.000 C 
ATOM     12  C   UNL     1       0.720   3.251  20.374  0.00  0.00    +0.000 C 
ATOM     13  C   UNL     1       1.293   4.637  20.224  0.00  0.00    +0.000 C 
ATOM     14  C   UNL     1       2.598   4.560  20.519  0.00  0.00    +0.000 C 
ATOM     15  C   UNL     1       2.906   3.116  20.847  0.00  0.00    +0.000 C 
ATOM     16  C   UNL     1       1.579   2.768  21.545  0.00  0.00    +0.000 C 
ENDBRANCH   6  10
BRANCH   1  22
ATOM     17  C   UNL     1       5.079   3.536  13.674  0.00  0.00    +0.000 C 
ATOM     18  N   UNL     1       6.334   4.244  13.601  0.00  0.00    +0.000 N 
ATOM     19  C   UNL     1       7.076   4.441  12.468  0.00  0.00    +0.000 A 
ATOM     20  C   UNL     1       8.110   5.258  12.858  0.00  0.00    +0.000 A 
ATOM     21  N   UNL     1       8.026   5.547  14.194  0.00  0.00    +0.000 NA
ATOM     22  C   UNL     1       6.963   4.894  14.637  0.00  0.00    +0.000 A 
ENDBRANCH   1  22
TORSDOF 2
ENDMDL
MODEL 7
REMARK VINA RESULT:      -6.9      1.918      2.568
REMARK  Name = 
REMARK  3 active torsions:
REMARK  status: ('A' for Active; 'I' for Inactive)
REMARK    1  A    between atoms: C_1  and  N_2
REMARK    2  A    between atoms: C_6  and  C_7
REMARK    3  A    between atoms: C_12  and  C_14
REMARK                            x       y       z     vdW  Elec       q    Type
REMARK                         _______ _______ _______ _____ _____    ______ ____
ROOT
ATOM      1  C   UNL     1       1.081   9.690  19.582  0.00  0.00    +0.000 A 
ATOM      2  C   UNL     1       1.577  10.013  18.336  0.00  0.00    +0.000 A 
ATOM      3  S   UNL     1       2.469   8.687  17.717  0.00  0.00    +0.000 S 
ATOM      4  C   UNL     1       2.075   7.793  19.119  0.00  0.00    +0.000 A 
ATOM      5  N   UNL     1       2.591   6.529  19.108  0.00  0.00    +0.000 N 
ATOM      6  C   UNL     1       2.304   5.559  20.050  0.00  0.00    +0.000 C 
ATOM      7  O   UNL     1       1.535   5.667  20.999  0.00  0.00    +0.000 OA
ATOM      8  N   UNL     1       1.371   8.411  20.029  0.00  0.00    +0.000 NA
ATOM      9  H   UNL     1       3.175   6.308  18.317  0.00  0.00    +0.000 HD
ENDROOT
BRANCH   6  10
ATOM     10  C   UNL     1       3.184   4.322  19.845  0.00  0.00    +0.000 C 
ATOM     11  C   UNL     1       4.178   4.409  18.643  0.00  0.00    +0.000 C 
ATOM     12  C   UNL     1       3.943   3.077  17.901  0.00  0.00    +0.000 C 
ATOM     13  C   UNL     1       2.570   3.122  17.281  0.00  0.00    +0.000 C 
ATOM     14  C   UNL     1       1.681   3.052  18.281  0.00  0.00    +0.000 C 
ATOM     15  C   UNL     1       2.459   2.980  19.576  0.00  0.00    +0.000 C 
ATOM     16  C   UNL     1       3.642   2.135  19.069  0.00  0.00    +0.000 C 
ENDBRANCH   6  10
BRANCH   1  22
ATOM     17  C   UNL     1      -1.701  10.859  18.848  0.00  0.00    +0.000 C 
ATOM     18  N   UNL     1      -0.931  11.208  20.017  0.00  0.00    +0.000 N 
ATOM     19  C   UNL     1      -1.310  12.096  20.987  0.00  0.00    +0.000 A 
ATOM     20  C   UNL     1      -0.331  12.014  21.947  0.00  0.00    +0.000 A 
ATOM     21  N   UNL     1       0.637  11.116  21.581  0.00  0.00    +0.000 NA
ATOM     22  C   UNL     1       0.275  10.664  20.390  0.00  0.00    +0.000 A 
ENDBRANCH   1  22
TORSDOF 2
ENDMDL
MODEL 8
REMARK VINA RESULT:      -6.8      2.017      2.856
REMARK  Name = 
REMARK  3 active torsions:
REMARK  status: ('A' for Active; 'I' for Inactive)
REMARK    1  A    between atoms: C_1  and  N_2
REMARK    2  A    between atoms: C_6  and  C_7
REMARK    3  A    between atoms: C_12  and  C_14
REMARK                            x       y       z     vdW  Elec       q    Type
REMARK                         _______ _______ _______ _____ _____    ______ ____
ROOT
ATOM      1  C   UNL     1       0.347  10.265  20.184  0.00  0.00    +0.000 A 
ATOM      2  C   UNL     1       0.648  10.875  18.984  0.00  0.00    +0.000 A 
ATOM      3  S   UNL     1       1.694   9.866  18.077  0.00  0.00    +0.000 S 
ATOM      4  C   UNL     1       1.612   8.697  19.320  0.00  0.00    +0.000 A 
ATOM      5  N   UNL     1       2.342   7.576  19.047  0.00  0.00    +0.000 N 
ATOM      6  C   UNL     1       2.332   6.429  19.818  0.00  0.00    +0.000 C 
ATOM      7  O   UNL     1       1.657   6.230  20.823  0.00  0.00    +0.000 OA
ATOM      8  N   UNL     1       0.906   9.010  20.374  0.00  0.00    +0.000 NA
ATOM      9  H   UNL     1       2.872   7.604  18.191  0.00  0.00    +0.000 HD
ENDROOT
BRANCH   6  10
ATOM     10  C   UNL     1       3.393   5.436  19.334  0.00  0.00    +0.000 C 
ATOM     11  C   UNL     1       3.749   5.537  17.816  0.00  0.00    +0.000 C 
ATOM     12  C   UNL     1       3.663   4.072  17.341  0.00  0.00    +0.000 C 
ATOM     13  C   UNL     1       2.216   3.651  17.379  0.00  0.00    +0.000 C 
ATOM     14  C   UNL     1       1.866   3.554  18.669  0.00  0.00    +0.000 C 
ATOM     15  C   UNL     1       3.073   3.930  19.498  0.00  0.00    +0.000 C 
ATOM     16  C   UNL     1       4.156   3.327  18.584  0.00  0.00    +0.000 C 
ENDBRANCH   6  10
BRANCH   1  22
ATOM     17  C   UNL     1       0.108   9.505  23.185  0.00  0.00    +0.000 C 
ATOM     18  N   UNL     1      -0.660  10.529  22.520  0.00  0.00    +0.000 N 
ATOM     19  C   UNL     1      -1.603  11.329  23.107  0.00  0.00    +0.000 A 
ATOM     20  C   UNL     1      -1.974  12.218  22.128  0.00  0.00    +0.000 A 
ATOM     21  N   UNL     1      -1.298  11.970  20.962  0.00  0.00    +0.000 NA
ATOM     22  C   UNL     1      -0.532  10.919  21.208  0.00  0.00    +0.000 A 
ENDBRANCH   1  22
TORSDOF 2
ENDMDL
MODEL 9
REMARK VINA RESULT:      -6.7      2.105      2.743
REMARK  Name = 
REMARK  3 active torsions:
REMARK  status: ('A' for Active; 'I' for Inactive)
REMARK    1  A    between atoms: C_1  and  N_2
REMARK    2  A    between atoms: C_6  and  C_7
REMARK    3  A    between atoms: C_12  and  C_14
REMARK                            x       y       z     vdW  Elec       q    Type
REMARK                         _______ _______ _______ _____ _____    ______ ____
ROOT
ATOM      1  C   UNL     1       1.031   9.797  19.930  0.00  0.00    +0.000 A 
ATOM      2  C   UNL     1       1.295  10.209  18.640  0.00  0.00    +0.000 A 
ATOM      3  S   UNL     1       2.061   8.939  17.781  0.00  0.00    +0.000 S 
ATOM      4  C   UNL     1       1.925   7.948  19.167  0.00  0.00    +0.000 A 
ATOM      5  N   UNL     1       2.432   6.694  18.977  0.00  0.00    +0.000 N 
ATOM      6  C   UNL     1       2.320   5.659  19.886  0.00  0.00    +0.000 C 
ATOM      7  O   UNL     1       1.734   5.694  20.963  0.00  0.00    +0.000 OA
ATOM      8  N   UNL     1       1.397   8.494  20.229  0.00  0.00    +0.000 NA
ATOM      9  H   UNL     1       2.864   6.534  18.081  0.00  0.00    +0.000 HD
ENDROOT
BRANCH   6  10
ATOM     10  C   UNL     1       3.148   4.450  19.442  0.00  0.00    +0.000 C 
ATOM     11  C   UNL     1       3.034   4.091  17.926  0.00  0.00    +0.000 C 
ATOM     12  C   UNL     1       2.755   2.574  17.948  0.00  0.00    +0.000 C 
ATOM     13  C   UNL     1       1.372   2.360  18.510  0.00  0.00    +0.000 C 
ATOM     14  C   UNL     1       1.424   2.660  19.815  0.00  0.00    +0.000 C 
ATOM     15  C   UNL     1       2.839   3.096  20.126  0.00  0.00    +0.000 C 
ATOM     16  C   UNL     1       3.573   2.140  19.168  0.00  0.00    +0.000 C 
ENDBRANCH   6  10
BRANCH   1  22
ATOM     17  C   UNL     1      -0.523   8.938  22.477  0.00  0.00    +0.000 C 
ATOM     18  N   UNL     1      -0.346  10.297  22.026  0.00  0.00    +0.000 N 
ATOM     19  C   UNL     1      -0.823  11.416  22.654  0.00  0.00    +0.000 A 
ATOM     20  C   UNL     1      -0.312  12.472  21.938  0.00  0.00    +0.000 A 
ATOM     21  N   UNL     1       0.446  12.026  20.886  0.00  0.00    +0.000 NA
ATOM     22  C   UNL     1       0.384  10.704  20.934  0.00  0.00    +0.000 A 
ENDBRANCH   1  22
TORSDOF 2
ENDMDL
