MODEL 1
REMARK VINA RESULT:      -4.6      0.000      0.000
REMARK  Name = 
REMARK  11 active torsions:
REMARK  status: ('A' for Active; 'I' for Inactive)
REMARK    1  A    between atoms: C_1  and  C_2
REMARK    2  A    between atoms: C_2  and  C_3
REMARK    3  A    between atoms: C_3  and  C_4
REMARK    4  A    between atoms: C_4  and  S_5
REMARK    5  A    between atoms: S_5  and  S_6
REMARK    6  A    between atoms: S_6  and  C_7
REMARK    7  A    between atoms: C_7  and  N_9
REMARK    8  A    between atoms: N_9  and  C_10
REMARK    9  A    between atoms: N_9  and  C_12
REMARK   10  A    between atoms: C_10  and  C_11
REMARK   11  A    between atoms: C_12  and  C_13
REMARK                            x       y       z     vdW  Elec       q    Type
REMARK                         _______ _______ _______ _____ _____    ______ ____
ROOT
ATOM      1  C   UNL     1       4.756   5.543  17.716  0.00  0.00    +0.000 C 
ATOM      2  S   UNL     1       3.705   6.855  17.742  0.00  0.00    +0.000 S 
ENDROOT
BRANCH   1   3
ATOM      3  S   UNL     1       4.563   4.073  18.693  0.00  0.00    +0.000 S 
BRANCH   3   4
ATOM      4  S   UNL     1       3.269   2.849  17.662  0.00  0.00    +0.000 S 
BRANCH   4   5
ATOM      5  C   UNL     1       1.656   3.576  18.120  0.00  0.00    +0.000 C 
BRANCH   5   6
ATOM      6  C   UNL     1       0.918   2.671  19.109  0.00  0.00    +0.000 C 
BRANCH   6   8
ATOM      7  C   UNL     1       1.336   4.682  20.582  0.00  0.00    +0.000 C 
ATOM      8  C   UNL     1       1.075   3.183  20.542  0.00  0.00    +0.000 C 
ENDBRANCH   6   8
ENDBRANCH   5   6
ENDBRANCH   4   5
ENDBRANCH   3   4
ENDBRANCH   1   3
BRANCH   1   9
ATOM      9  N   UNL     1       5.807   5.435  16.793  0.00  0.00    +0.000 N 
BRANCH   9  10
ATOM     10  C   UNL     1       5.523   5.200  15.369  0.00  0.00    +0.000 C 
ATOM     11  C   UNL     1       6.610   4.443  14.625  0.00  0.00    +0.000 C 
ENDBRANCH   9  10
BRANCH   9  12
ATOM     12  C   UNL     1       7.206   5.467  17.240  0.00  0.00    +0.000 C 
ATOM     13  C   UNL     1       7.575   6.698  18.056  0.00  0.00    +0.000 C 
ENDBRANCH   9  12
ENDBRANCH   1   9
TORSDOF 8
ENDMDL
MODEL 2
REMARK VINA RESULT:      -4.5      1.008      2.148
REMARK  Name = 
REMARK  11 active torsions:
REMARK  status: ('A' for Active; 'I' for Inactive)
REMARK    1  A    between atoms: C_1  and  C_2
REMARK    2  A    between atoms: C_2  and  C_3
REMARK    3  A    between atoms: C_3  and  C_4
REMARK    4  A    between atoms: C_4  and  S_5
REMARK    5  A    between atoms: S_5  and  S_6
REMARK    6  A    between atoms: S_6  and  C_7
REMARK    7  A    between atoms: C_7  and  N_9
REMARK    8  A    between atoms: N_9  and  C_10
REMARK    9  A    between atoms: N_9  and  C_12
REMARK   10  A    between atoms: C_10  and  C_11
REMARK   11  A    between atoms: C_12  and  C_13
REMARK                            x       y       z     vdW  Elec       q    Type
REMARK                         _______ _______ _______ _____ _____    ______ ____
ROOT
ATOM      1  C   UNL     1       4.918   4.734  17.823  0.00  0.00    +0.000 C 
ATOM      2  S   UNL     1       4.100   6.190  17.621  0.00  0.00    +0.000 S 
ENDROOT
BRANCH   1   3
ATOM      3  S   UNL     1       4.321   3.364  18.781  0.00  0.00    +0.000 S 
BRANCH   3   4
ATOM      4  S   UNL     1       2.554   2.765  17.912  0.00  0.00    +0.000 S 
BRANCH   4   5
ATOM      5  C   UNL     1       1.739   1.923  19.314  0.00  0.00    +0.000 C 
BRANCH   5   6
ATOM      6  C   UNL     1       1.716   2.828  20.548  0.00  0.00    +0.000 C 
BRANCH   6   8
ATOM      7  C   UNL     1       1.718   5.354  20.643  0.00  0.00    +0.000 C 
ATOM      8  C   UNL     1       0.924   4.109  20.274  0.00  0.00    +0.000 C 
ENDBRANCH   6   8
ENDBRANCH   5   6
ENDBRANCH   4   5
ENDBRANCH   3   4
ENDBRANCH   1   3
BRANCH   1   9
ATOM      9  N   UNL     1       6.087   4.420  17.114  0.00  0.00    +0.000 N 
BRANCH   9  10
ATOM     10  C   UNL     1       7.407   4.651  17.720  0.00  0.00    +0.000 C 
ATOM     11  C   UNL     1       7.629   6.064  18.232  0.00  0.00    +0.000 C 
ENDBRANCH   9  10
BRANCH   9  12
ATOM     12  C   UNL     1       6.018   3.940  15.727  0.00  0.00    +0.000 C 
ATOM     13  C   UNL     1       6.372   4.989  14.682  0.00  0.00    +0.000 C 
ENDBRANCH   9  12
ENDBRANCH   1   9
TORSDOF 8
ENDMDL
MODEL 3
REMARK VINA RESULT:      -4.5      1.558      2.149
REMARK  Name = 
REMARK  11 active torsions:
REMARK  status: ('A' for Active; 'I' for Inactive)
REMARK    1  A    between atoms: C_1  and  C_2
REMARK    2  A    between atoms: C_2  and  C_3
REMARK    3  A    between atoms: C_3  and  C_4
REMARK    4  A    between atoms: C_4  and  S_5
REMARK    5  A    between atoms: S_5  and  S_6
REMARK    6  A    between atoms: S_6  and  C_7
REMARK    7  A    between atoms: C_7  and  N_9
REMARK    8  A    between atoms: N_9  and  C_10
REMARK    9  A    between atoms: N_9  and  C_12
REMARK   10  A    between atoms: C_10  and  C_11
REMARK   11  A    between atoms: C_12  and  C_13
REMARK                            x       y       z     vdW  Elec       q    Type
REMARK                         _______ _______ _______ _____ _____    ______ ____
ROOT
ATOM      1  C   UNL     1       5.326   4.615  17.247  0.00  0.00    +0.000 C 
ATOM      2  S   UNL     1       5.562   3.960  15.716  0.00  0.00    +0.000 S 
ENDROOT
BRANCH   1   3
ATOM      3  S   UNL     1       4.825   3.689  18.677  0.00  0.00    +0.000 S 
BRANCH   3   4
ATOM      4  S   UNL     1       3.480   2.276  18.020  0.00  0.00    +0.000 S 
BRANCH   4   5
ATOM      5  C   UNL     1       1.934   3.250  17.989  0.00  0.00    +0.000 C 
BRANCH   5   6
ATOM      6  C   UNL     1       0.951   2.735  19.043  0.00  0.00    +0.000 C 
BRANCH   6   8
ATOM      7  C   UNL     1       1.689   3.121  21.430  0.00  0.00    +0.000 C 
ATOM      8  C   UNL     1       0.902   3.675  20.251  0.00  0.00    +0.000 C 
ENDBRANCH   6   8
ENDBRANCH   5   6
ENDBRANCH   4   5
ENDBRANCH   3   4
ENDBRANCH   1   3
BRANCH   1   9
ATOM      9  N   UNL     1       5.658   5.941  17.560  0.00  0.00    +0.000 N 
BRANCH   9  10
ATOM     10  C   UNL     1       4.734   7.037  17.229  0.00  0.00    +0.000 C 
ATOM     11  C   UNL     1       3.370   6.934  17.890  0.00  0.00    +0.000 C 
ENDBRANCH   9  10
BRANCH   9  12
ATOM     12  C   UNL     1       6.966   6.270  18.142  0.00  0.00    +0.000 C 
ATOM     13  C   UNL     1       7.608   7.528  17.573  0.00  0.00    +0.000 C 
ENDBRANCH   9  12
ENDBRANCH   1   9
TORSDOF 8
ENDMDL
MODEL 4
REMARK VINA RESULT:      -4.5      1.754      2.619
REMARK  Name = 
REMARK  11 active torsions:
REMARK  status: ('A' for Active; 'I' for Inactive)
REMARK    1  A    between atoms: C_1  and  C_2
REMARK    2  A    between atoms: C_2  and  C_3
REMARK    3  A    between atoms: C_3  and  C_4
REMARK    4  A    between atoms: C_4  and  S_5
REMARK    5  A    between atoms: S_5  and  S_6
REMARK    6  A    between atoms: S_6  and  C_7
REMARK    7  A    between atoms: C_7  and  N_9
REMARK    8  A    between atoms: N_9  and  C_10
REMARK    9  A    between atoms: N_9  and  C_12
REMARK   10  A    between atoms: C_10  and  C_11
REMARK   11  A    between atoms: C_12  and  C_13
REMARK                            x       y       z     vdW  Elec       q    Type
REMARK                         _______ _______ _______ _____ _____    ______ ____
ROOT
ATOM      1  C   UNL     1       5.007   4.375  17.339  0.00  0.00    +0.000 C 
ATOM      2  S   UNL     1       5.772   3.900  15.919  0.00  0.00    +0.000 S 
ENDROOT
BRANCH   1   3
ATOM      3  S   UNL     1       4.450   3.263  18.608  0.00  0.00    +0.000 S 
BRANCH   3   4
ATOM      4  S   UNL     1       2.865   2.216  17.815  0.00  0.00    +0.000 S 
BRANCH   4   5
ATOM      5  C   UNL     1       1.793   2.033  19.284  0.00  0.00    +0.000 C 
BRANCH   5   6
ATOM      6  C   UNL     1       0.866   3.242  19.430  0.00  0.00    +0.000 C 
BRANCH   6   8
ATOM      7  C   UNL     1       2.066   3.286  21.655  0.00  0.00    +0.000 C 
ATOM      8  C   UNL     1       1.257   4.088  20.645  0.00  0.00    +0.000 C 
ENDBRANCH   6   8
ENDBRANCH   5   6
ENDBRANCH   4   5
ENDBRANCH   3   4
ENDBRANCH   1   3
BRANCH   1   9
ATOM      9  N   UNL     1       4.881   5.720  17.716  0.00  0.00    +0.000 N 
BRANCH   9  10
ATOM     10  C   UNL     1       5.770   6.740  17.139  0.00  0.00    +0.000 C 
ATOM     11  C   UNL     1       7.155   6.793  17.760  0.00  0.00    +0.000 C 
ENDBRANCH   9  10
BRANCH   9  12
ATOM     12  C   UNL     1       3.922   6.121  18.755  0.00  0.00    +0.000 C 
ATOM     13  C   UNL     1       2.599   6.649  18.217  0.00  0.00    +0.000 C 
ENDBRANCH   9  12
ENDBRANCH   1   9
TORSDOF 8
ENDMDL
MODEL 5
REMARK VINA RESULT:      -4.5      1.166      1.429
REMARK  Name = 
REMARK  11 active torsions:
REMARK  status: ('A' for Active; 'I' for Inactive)
REMARK    1  A    between atoms: C_1  and  C_2
REMARK    2  A    between atoms: C_2  and  C_3
REMARK    3  A    between atoms: C_3  and  C_4
REMARK    4  A    between atoms: C_4  and  S_5
REMARK    5  A    between atoms: S_5  and  S_6
REMARK    6  A    between atoms: S_6  and  C_7
REMARK    7  A    between atoms: C_7  and  N_9
REMARK    8  A    between atoms: N_9  and  C_10
REMARK    9  A    between atoms: N_9  and  C_12
REMARK   10  A    between atoms: C_10  and  C_11
REMARK   11  A    between atoms: C_12  and  C_13
REMARK                            x       y       z     vdW  Elec       q    Type
REMARK                         _______ _______ _______ _____ _____    ______ ____
ROOT
ATOM      1  C   UNL     1       4.853   4.822  17.686  0.00  0.00    +0.000 C 
ATOM      2  S   UNL     1       5.093   5.021  19.338  0.00  0.00    +0.000 S 
ENDROOT
BRANCH   1   3
ATOM      3  S   UNL     1       3.767   3.620  16.960  0.00  0.00    +0.000 S 
BRANCH   3   4
ATOM      4  S   UNL     1       3.559   2.107  18.340  0.00  0.00    +0.000 S 
BRANCH   4   5
ATOM      5  C   UNL     1       1.783   2.243  18.747  0.00  0.00    +0.000 C 
BRANCH   5   6
ATOM      6  C   UNL     1       1.378   3.709  18.913  0.00  0.00    +0.000 C 
BRANCH   6   8
ATOM      7  C   UNL     1       1.331   2.840  21.287  0.00  0.00    +0.000 C 
ATOM      8  C   UNL     1       1.034   4.020  20.372  0.00  0.00    +0.000 C 
ENDBRANCH   6   8
ENDBRANCH   5   6
ENDBRANCH   4   5
ENDBRANCH   3   4
ENDBRANCH   1   3
BRANCH   1   9
ATOM      9  N   UNL     1       5.383   5.705  16.734  0.00  0.00    +0.000 N 
BRANCH   9  10
ATOM     10  C   UNL     1       5.510   5.293  15.327  0.00  0.00    +0.000 C 
ATOM     11  C   UNL     1       6.728   4.437  15.028  0.00  0.00    +0.000 C 
ENDBRANCH   9  10
BRANCH   9  12
ATOM     12  C   UNL     1       5.901   7.020  17.136  0.00  0.00    +0.000 C 
ATOM     13  C   UNL     1       7.393   7.040  17.441  0.00  0.00    +0.000 C 
ENDBRANCH   9  12
ENDBRANCH   1   9
TORSDOF 8
ENDMDL
MODEL 6
REMARK VINA RESULT:      -4.5      1.791      2.751
REMARK  Name = 
REMARK  11 active torsions:
REMARK  status: ('A' for Active; 'I' for Inactive)
REMARK    1  A    between atoms: C_1  and  C_2
REMARK    2  A    between atoms: C_2  and  C_3
REMARK    3  A    between atoms: C_3  and  C_4
REMARK    4  A    between atoms: C_4  and  S_5
REMARK    5  A    between atoms: S_5  and  S_6
REMARK    6  A    between atoms: S_6  and  C_7
REMARK    7  A    between atoms: C_7  and  N_9
REMARK    8  A    between atoms: N_9  and  C_10
REMARK    9  A    between atoms: N_9  and  C_12
REMARK   10  A    between atoms: C_10  and  C_11
REMARK   11  A    between atoms: C_12  and  C_13
REMARK                            x       y       z     vdW  Elec       q    Type
REMARK                         _______ _______ _______ _____ _____    ______ ____
ROOT
ATOM      1  C   UNL     1       5.069   4.298  16.883  0.00  0.00    +0.000 C 
ATOM      2  S   UNL     1       5.815   4.022  15.401  0.00  0.00    +0.000 S 
ENDROOT
BRANCH   1   3
ATOM      3  S   UNL     1       4.025   3.132  17.722  0.00  0.00    +0.000 S 
BRANCH   3   4
ATOM      4  S   UNL     1       2.154   3.985  17.821  0.00  0.00    +0.000 S 
BRANCH   4   5
ATOM      5  C   UNL     1       2.162   4.655  19.520  0.00  0.00    +0.000 C 
BRANCH   5   6
ATOM      6  C   UNL     1       0.931   4.178  20.295  0.00  0.00    +0.000 C 
BRANCH   6   8
ATOM      7  C   UNL     1       2.511   2.746  21.652  0.00  0.00    +0.000 C 
ATOM      8  C   UNL     1       1.178   2.804  20.921  0.00  0.00    +0.000 C 
ENDBRANCH   6   8
ENDBRANCH   5   6
ENDBRANCH   4   5
ENDBRANCH   3   4
ENDBRANCH   1   3
BRANCH   1   9
ATOM      9  N   UNL     1       5.336   5.432  17.663  0.00  0.00    +0.000 N 
BRANCH   9  10
ATOM     10  C   UNL     1       5.789   5.286  19.055  0.00  0.00    +0.000 C 
ATOM     11  C   UNL     1       7.256   5.612  19.279  0.00  0.00    +0.000 C 
ENDBRANCH   9  10
BRANCH   9  12
ATOM     12  C   UNL     1       5.086   6.781  17.138  0.00  0.00    +0.000 C 
ATOM     13  C   UNL     1       3.736   7.366  17.528  0.00  0.00    +0.000 C 
ENDBRANCH   9  12
ENDBRANCH   1   9
TORSDOF 8
ENDMDL
MODEL 7
REMARK VINA RESULT:      -4.4      2.606      6.023
REMARK  Name = 
REMARK  11 active torsions:
REMARK  status: ('A' for Active; 'I' for Inactive)
REMARK    1  A    between atoms: C_1  and  C_2
REMARK    2  A    between atoms: C_2  and  C_3
REMARK    3  A    between atoms: C_3  and  C_4
REMARK    4  A    between atoms: C_4  and  S_5
REMARK    5  A    between atoms: S_5  and  S_6
REMARK    6  A    between atoms: S_6  and  C_7
REMARK    7  A    between atoms: C_7  and  N_9
REMARK    8  A    between atoms: N_9  and  C_10
REMARK    9  A    between atoms: N_9  and  C_12
REMARK   10  A    between atoms: C_10  and  C_11
REMARK   11  A    between atoms: C_12  and  C_13
REMARK                            x       y       z     vdW  Elec       q    Type
REMARK                         _______ _______ _______ _____ _____    ______ ____
ROOT
ATOM      1  C   UNL     1       4.691   5.532  17.488  0.00  0.00    +0.000 C 
ATOM      2  S   UNL     1       5.269   4.174  18.292  0.00  0.00    +0.000 S 
ENDROOT
BRANCH   1   3
ATOM      3  S   UNL     1       5.371   6.180  15.981  0.00  0.00    +0.000 S 
BRANCH   3   4
ATOM      4  S   UNL     1       6.862   4.883  15.405  0.00  0.00    +0.000 S 
BRANCH   4   5
ATOM      5  C   UNL     1       5.940   3.750  14.308  0.00  0.00    +0.000 C 
BRANCH   5   6
ATOM      6  C   UNL     1       6.397   3.913  12.857  0.00  0.00    +0.000 C 
BRANCH   6   8
ATOM      7  C   UNL     1       4.370   3.232  11.508  0.00  0.00    +0.000 C 
ATOM      8  C   UNL     1       5.769   2.841  11.962  0.00  0.00    +0.000 C 
ENDBRANCH   6   8
ENDBRANCH   5   6
ENDBRANCH   4   5
ENDBRANCH   3   4
ENDBRANCH   1   3
BRANCH   1   9
ATOM      9  N   UNL     1       3.509   6.188  17.864  0.00  0.00    +0.000 N 
BRANCH   9  10
ATOM     10  C   UNL     1       3.351   7.630  17.624  0.00  0.00    +0.000 C 
ATOM     11  C   UNL     1       2.015   8.201  18.065  0.00  0.00    +0.000 C 
ENDBRANCH   9  10
BRANCH   9  12
ATOM     12  C   UNL     1       2.449   5.469  18.583  0.00  0.00    +0.000 C 
ATOM     13  C   UNL     1       1.679   4.470  17.730  0.00  0.00    +0.000 C 
ENDBRANCH   9  12
ENDBRANCH   1   9
TORSDOF 8
ENDMDL
MODEL 8
REMARK VINA RESULT:      -4.4      1.239      2.433
REMARK  Name = 
REMARK  11 active torsions:
REMARK  status: ('A' for Active; 'I' for Inactive)
REMARK    1  A    between atoms: C_1  and  C_2
REMARK    2  A    between atoms: C_2  and  C_3
REMARK    3  A    between atoms: C_3  and  C_4
REMARK    4  A    between atoms: C_4  and  S_5
REMARK    5  A    between atoms: S_5  and  S_6
REMARK    6  A    between atoms: S_6  and  C_7
REMARK    7  A    between atoms: C_7  and  N_9
REMARK    8  A    between atoms: N_9  and  C_10
REMARK    9  A    between atoms: N_9  and  C_12
REMARK   10  A    between atoms: C_10  and  C_11
REMARK   11  A    between atoms: C_12  and  C_13
REMARK                            x       y       z     vdW  Elec       q    Type
REMARK                         _______ _______ _______ _____ _____    ______ ____
ROOT
ATOM      1  C   UNL     1       5.344   5.218  17.062  0.00  0.00    +0.000 C 
ATOM      2  S   UNL     1       4.712   6.734  16.699  0.00  0.00    +0.000 S 
ENDROOT
BRANCH   1   3
ATOM      3  S   UNL     1       4.411   3.870  17.743  0.00  0.00    +0.000 S 
BRANCH   3   4
ATOM      4  S   UNL     1       2.463   4.520  17.891  0.00  0.00    +0.000 S 
BRANCH   4   5
ATOM      5  C   UNL     1       1.639   3.020  18.530  0.00  0.00    +0.000 C 
BRANCH   5   6
ATOM      6  C   UNL     1       2.611   2.182  19.362  0.00  0.00    +0.000 C 
BRANCH   6   8
ATOM      7  C   UNL     1       1.255   2.893  21.373  0.00  0.00    +0.000 C 
ATOM      8  C   UNL     1       2.652   2.670  20.812  0.00  0.00    +0.000 C 
ENDBRANCH   6   8
ENDBRANCH   5   6
ENDBRANCH   4   5
ENDBRANCH   3   4
ENDBRANCH   1   3
BRANCH   1   9
ATOM      9  N   UNL     1       6.648   4.840  16.709  0.00  0.00    +0.000 N 
BRANCH   9  10
ATOM     10  C   UNL     1       7.664   4.617  17.748  0.00  0.00    +0.000 C 
ATOM     11  C   UNL     1       7.687   5.669  18.844  0.00  0.00    +0.000 C 
ENDBRANCH   9  10
BRANCH   9  12
ATOM     12  C   UNL     1       7.045   4.744  15.297  0.00  0.00    +0.000 C 
ATOM     13  C   UNL     1       6.028   4.044  14.406  0.00  0.00    +0.000 C 
ENDBRANCH   9  12
ENDBRANCH   1   9
TORSDOF 8
ENDMDL
MODEL 9
REMARK VINA RESULT:      -4.4      1.973      5.494
REMARK  Name = 
REMARK  11 active torsions:
REMARK  status: ('A' for Active; 'I' for Inactive)
REMARK    1  A    between atoms: C_1  and  C_2
REMARK    2  A    between atoms: C_2  and  C_3
REMARK    3  A    between atoms: C_3  and  C_4
REMARK    4  A    between atoms: C_4  and  S_5
REMARK    5  A    between atoms: S_5  and  S_6
REMARK    6  A    between atoms: S_6  and  C_7
REMARK    7  A    between atoms: C_7  and  N_9
REMARK    8  A    between atoms: N_9  and  C_10
REMARK    9  A    between atoms: N_9  and  C_12
REMARK   10  A    between atoms: C_10  and  C_11
REMARK   11  A    between atoms: C_12  and  C_13
REMARK                            x       y       z     vdW  Elec       q    Type
REMARK                         _______ _______ _______ _____ _____    ______ ____
ROOT
ATOM      1  C   UNL     1       3.750   5.265  18.758  0.00  0.00    +0.000 C 
ATOM      2  S   UNL     1       2.901   6.638  18.285  0.00  0.00    +0.000 S 
ENDROOT
BRANCH   1   3
ATOM      3  S   UNL     1       5.477   5.237  19.171  0.00  0.00    +0.000 S 
BRANCH   3   4
ATOM      4  S   UNL     1       6.493   5.842  17.487  0.00  0.00    +0.000 S 
BRANCH   4   5
ATOM      5  C   UNL     1       6.503   4.300  16.508  0.00  0.00    +0.000 C 
BRANCH   5   6
ATOM      6  C   UNL     1       5.383   4.315  15.465  0.00  0.00    +0.000 C 
BRANCH   6   8
ATOM      7  C   UNL     1       7.201   4.851  13.792  0.00  0.00    +0.000 C 
ATOM      8  C   UNL     1       5.936   4.048  14.063  0.00  0.00    +0.000 C 
ENDBRANCH   6   8
ENDBRANCH   5   6
ENDBRANCH   4   5
ENDBRANCH   3   4
ENDBRANCH   1   3
BRANCH   1   9
ATOM      9  N   UNL     1       3.119   4.040  19.018  0.00  0.00    +0.000 N 
BRANCH   9  10
ATOM     10  C   UNL     1       3.906   2.799  19.084  0.00  0.00    +0.000 C 
ATOM     11  C   UNL     1       3.488   1.732  18.086  0.00  0.00    +0.000 C 
ENDBRANCH   9  10
BRANCH   9  12
ATOM     12  C   UNL     1       1.657   3.959  19.140  0.00  0.00    +0.000 C 
ATOM     13  C   UNL     1       1.155   3.802  20.569  0.00  0.00    +0.000 C 
ENDBRANCH   9  12
ENDBRANCH   1   9
TORSDOF 8
ENDMDL
