MODEL 1
REMARK VINA RESULT:      -7.4      0.000      0.000
REMARK  Name = 
REMARK  7 active torsions:
REMARK  status: ('A' for Active; 'I' for Inactive)
REMARK    1  A    between atoms: C_1  and  N_2
REMARK    2  A    between atoms: N_2  and  C_3
REMARK    3  A    between atoms: N_2  and  C_4
REMARK    4  A    between atoms: N_6  and  C_7
REMARK    5  A    between atoms: C_7  and  C_8
REMARK    6  A    between atoms: C_15  and  C_16
REMARK    7  A    between atoms: N_18  and  C_19
REMARK                            x       y       z     vdW  Elec       q    Type
REMARK                         _______ _______ _______ _____ _____    ______ ____
ROOT
ATOM      1  C   UNL     1       2.799   4.443  20.221  0.00  0.00    +0.000 C 
ATOM      2  C   UNL     1       1.394   5.056  20.407  0.00  0.00    +0.000 C 
ATOM      3  N   UNL     1       1.458   6.403  19.808  0.00  0.00    +0.000 NA
ATOM      4  C   UNL     1       2.342   6.234  18.628  0.00  0.00    +0.000 C 
ATOM      5  C   UNL     1       3.120   4.907  18.780  0.00  0.00    +0.000 C 
ENDROOT
BRANCH   5   6
ATOM      6  C   UNL     1       4.583   5.034  18.452  0.00  0.00    +0.000 A 
ATOM      7  C   UNL     1       5.604   5.421  19.303  0.00  0.00    +0.000 A 
ATOM      8  N   UNL     1       6.780   5.414  18.603  0.00  0.00    +0.000 N 
ATOM      9  C   UNL     1       8.075   5.731  19.164  0.00  0.00    +0.000 C 
ATOM     10  C   UNL     1       6.556   5.054  17.293  0.00  0.00    +0.000 A 
ATOM     11  C   UNL     1       7.440   4.921  16.208  0.00  0.00    +0.000 A 
ATOM     12  C   UNL     1       6.915   4.526  14.975  0.00  0.00    +0.000 A 
ATOM     13  C   UNL     1       5.554   4.280  14.825  0.00  0.00    +0.000 A 
ATOM     14  C   UNL     1       4.683   4.419  15.909  0.00  0.00    +0.000 A 
ATOM     15  C   UNL     1       5.185   4.809  17.171  0.00  0.00    +0.000 A 
ENDBRANCH   5   6
BRANCH   1  17
ATOM     16  C   UNL     1       2.083   2.613  21.656  0.00  0.00    +0.000 C 
ATOM     17  N   UNL     1       2.952   3.006  20.545  0.00  0.00    +0.000 NA
ATOM     18  C   UNL     1       2.774   2.101  19.416  0.00  0.00    +0.000 C 
ENDBRANCH   1  17
BRANCH   3  19
ATOM     19  C   UNL     1       2.036   7.370  20.774  0.00  0.00    +0.000 C 
BRANCH  19  20
ATOM     20  C   UNL     1       1.199   8.621  20.962  0.00  0.00    +0.000 A 
ATOM     21  C   UNL     1       0.682   8.940  22.217  0.00  0.00    +0.000 A 
ATOM     22  C   UNL     1      -0.135  10.061  22.342  0.00  0.00    +0.000 A 
ATOM     23  C   UNL     1      -0.406  10.830  21.218  0.00  0.00    +0.000 A 
ATOM     24  C   UNL     1       0.162  10.455  20.010  0.00  0.00    +0.000 A 
ATOM     25  N   UNL     1       0.957   9.377  19.859  0.00  0.00    +0.000 NA
ENDBRANCH  19  20
ENDBRANCH   3  19
TORSDOF 4
ENDMDL
MODEL 2
REMARK VINA RESULT:      -7.1      0.836      1.295
REMARK  Name = 
REMARK  7 active torsions:
REMARK  status: ('A' for Active; 'I' for Inactive)
REMARK    1  A    between atoms: C_1  and  N_2
REMARK    2  A    between atoms: N_2  and  C_3
REMARK    3  A    between atoms: N_2  and  C_4
REMARK    4  A    between atoms: N_6  and  C_7
REMARK    5  A    between atoms: C_7  and  C_8
REMARK    6  A    between atoms: C_15  and  C_16
REMARK    7  A    between atoms: N_18  and  C_19
REMARK                            x       y       z     vdW  Elec       q    Type
REMARK                         _______ _______ _______ _____ _____    ______ ____
ROOT
ATOM      1  C   UNL     1       2.836   3.971  19.849  0.00  0.00    +0.000 C 
ATOM      2  C   UNL     1       1.404   4.485  20.111  0.00  0.00    +0.000 C 
ATOM      3  N   UNL     1       1.404   5.904  19.709  0.00  0.00    +0.000 NA
ATOM      4  C   UNL     1       2.294   5.945  18.521  0.00  0.00    +0.000 C 
ATOM      5  C   UNL     1       3.134   4.648  18.489  0.00  0.00    +0.000 C 
ENDROOT
BRANCH   5   6
ATOM      6  C   UNL     1       4.589   4.888  18.190  0.00  0.00    +0.000 A 
ATOM      7  C   UNL     1       5.564   5.333  19.067  0.00  0.00    +0.000 A 
ATOM      8  N   UNL     1       6.749   5.425  18.388  0.00  0.00    +0.000 N 
ATOM      9  C   UNL     1       8.007   5.826  18.979  0.00  0.00    +0.000 C 
ATOM     10  C   UNL     1       6.574   5.074  17.068  0.00  0.00    +0.000 A 
ATOM     11  C   UNL     1       7.484   5.026  15.998  0.00  0.00    +0.000 A 
ATOM     12  C   UNL     1       7.011   4.617  14.749  0.00  0.00    +0.000 A 
ATOM     13  C   UNL     1       5.675   4.274  14.569  0.00  0.00    +0.000 A 
ATOM     14  C   UNL     1       4.778   4.329  15.640  0.00  0.00    +0.000 A 
ATOM     15  C   UNL     1       5.228   4.732  16.917  0.00  0.00    +0.000 A 
ENDBRANCH   5   6
BRANCH   1  17
ATOM     16  C   UNL     1       2.778   1.825  18.702  0.00  0.00    +0.000 C 
ATOM     17  N   UNL     1       3.057   2.511  19.966  0.00  0.00    +0.000 NA
ATOM     18  C   UNL     1       4.369   2.129  20.473  0.00  0.00    +0.000 C 
ENDBRANCH   1  17
BRANCH   3  19
ATOM     19  C   UNL     1       1.937   6.751  20.804  0.00  0.00    +0.000 C 
BRANCH  19  20
ATOM     20  C   UNL     1       1.351   8.150  20.836  0.00  0.00    +0.000 A 
ATOM     21  C   UNL     1       1.297   8.918  19.674  0.00  0.00    +0.000 A 
ATOM     22  C   UNL     1       0.813  10.221  19.751  0.00  0.00    +0.000 A 
ATOM     23  C   UNL     1       0.393  10.716  20.979  0.00  0.00    +0.000 A 
ATOM     24  C   UNL     1       0.463   9.881  22.084  0.00  0.00    +0.000 A 
ATOM     25  N   UNL     1       0.925   8.616  22.040  0.00  0.00    +0.000 NA
ENDBRANCH  19  20
ENDBRANCH   3  19
TORSDOF 4
ENDMDL
MODEL 3
REMARK VINA RESULT:      -7.1      1.743      6.707
REMARK  Name = 
REMARK  7 active torsions:
REMARK  status: ('A' for Active; 'I' for Inactive)
REMARK    1  A    between atoms: C_1  and  N_2
REMARK    2  A    between atoms: N_2  and  C_3
REMARK    3  A    between atoms: N_2  and  C_4
REMARK    4  A    between atoms: N_6  and  C_7
REMARK    5  A    between atoms: C_7  and  C_8
REMARK    6  A    between atoms: C_15  and  C_16
REMARK    7  A    between atoms: N_18  and  C_19
REMARK                            x       y       z     vdW  Elec       q    Type
REMARK                         _______ _______ _______ _____ _____    ______ ____
ROOT
ATOM      1  C   UNL     1       2.099   4.266  19.207  0.00  0.00    +0.000 C 
ATOM      2  C   UNL     1       3.316   3.482  18.673  0.00  0.00    +0.000 C 
ATOM      3  N   UNL     1       4.347   4.493  18.367  0.00  0.00    +0.000 NA
ATOM      4  C   UNL     1       4.186   5.510  19.437  0.00  0.00    +0.000 C 
ATOM      5  C   UNL     1       2.808   5.309  20.106  0.00  0.00    +0.000 C 
ENDROOT
BRANCH   5   6
ATOM      6  C   UNL     1       2.057   6.594  20.321  0.00  0.00    +0.000 A 
ATOM      7  C   UNL     1       1.248   6.925  21.395  0.00  0.00    +0.000 A 
ATOM      8  N   UNL     1       0.749   8.183  21.193  0.00  0.00    +0.000 N 
ATOM      9  C   UNL     1      -0.114   8.885  22.118  0.00  0.00    +0.000 C 
ATOM     10  C   UNL     1       1.190   8.686  19.990  0.00  0.00    +0.000 A 
ATOM     11  C   UNL     1       0.938   9.915  19.356  0.00  0.00    +0.000 A 
ATOM     12  C   UNL     1       1.542  10.153  18.118  0.00  0.00    +0.000 A 
ATOM     13  C   UNL     1       2.363   9.197  17.529  0.00  0.00    +0.000 A 
ATOM     14  C   UNL     1       2.604   7.977  18.167  0.00  0.00    +0.000 A 
ATOM     15  C   UNL     1       2.013   7.710  19.422  0.00  0.00    +0.000 A 
ENDBRANCH   5   6
BRANCH   1  17
ATOM     16  C   UNL     1       0.606   2.368  18.913  0.00  0.00    +0.000 C 
ATOM     17  N   UNL     1       0.993   3.473  19.792  0.00  0.00    +0.000 NA
ATOM     18  C   UNL     1       1.238   2.986  21.144  0.00  0.00    +0.000 C 
ENDBRANCH   1  17
BRANCH   3  19
ATOM     19  C   UNL     1       4.108   5.084  17.028  0.00  0.00    +0.000 C 
BRANCH  19  20
ATOM     20  C   UNL     1       5.253   4.877  16.054  0.00  0.00    +0.000 A 
ATOM     21  C   UNL     1       6.526   5.362  16.351  0.00  0.00    +0.000 A 
ATOM     22  C   UNL     1       7.539   5.211  15.407  0.00  0.00    +0.000 A 
ATOM     23  C   UNL     1       7.255   4.577  14.204  0.00  0.00    +0.000 A 
ATOM     24  C   UNL     1       5.967   4.108  13.995  0.00  0.00    +0.000 A 
ATOM     25  N   UNL     1       4.968   4.239  14.889  0.00  0.00    +0.000 NA
ENDBRANCH  19  20
ENDBRANCH   3  19
TORSDOF 4
ENDMDL
MODEL 4
REMARK VINA RESULT:      -7.0      1.115      2.273
REMARK  Name = 
REMARK  7 active torsions:
REMARK  status: ('A' for Active; 'I' for Inactive)
REMARK    1  A    between atoms: C_1  and  N_2
REMARK    2  A    between atoms: N_2  and  C_3
REMARK    3  A    between atoms: N_2  and  C_4
REMARK    4  A    between atoms: N_6  and  C_7
REMARK    5  A    between atoms: C_7  and  C_8
REMARK    6  A    between atoms: C_15  and  C_16
REMARK    7  A    between atoms: N_18  and  C_19
REMARK                            x       y       z     vdW  Elec       q    Type
REMARK                         _______ _______ _______ _____ _____    ______ ____
ROOT
ATOM      1  C   UNL     1       2.794   3.881  19.604  0.00  0.00    +0.000 C 
ATOM      2  C   UNL     1       1.504   4.555  20.119  0.00  0.00    +0.000 C 
ATOM      3  N   UNL     1       1.446   5.874  19.461  0.00  0.00    +0.000 NA
ATOM      4  C   UNL     1       1.986   5.625  18.101  0.00  0.00    +0.000 C 
ATOM      5  C   UNL     1       2.740   4.277  18.108  0.00  0.00    +0.000 C 
ENDROOT
BRANCH   5   6
ATOM      6  C   UNL     1       4.069   4.333  17.406  0.00  0.00    +0.000 A 
ATOM      7  C   UNL     1       4.349   3.949  16.106  0.00  0.00    +0.000 A 
ATOM      8  N   UNL     1       5.681   4.154  15.869  0.00  0.00    +0.000 N 
ATOM      9  C   UNL     1       6.343   3.900  14.608  0.00  0.00    +0.000 C 
ATOM     10  C   UNL     1       6.300   4.643  16.998  0.00  0.00    +0.000 A 
ATOM     11  C   UNL     1       7.640   4.989  17.239  0.00  0.00    +0.000 A 
ATOM     12  C   UNL     1       7.977   5.474  18.506  0.00  0.00    +0.000 A 
ATOM     13  C   UNL     1       7.014   5.603  19.501  0.00  0.00    +0.000 A 
ATOM     14  C   UNL     1       5.684   5.252  19.251  0.00  0.00    +0.000 A 
ATOM     15  C   UNL     1       5.311   4.765  17.978  0.00  0.00    +0.000 A 
ENDBRANCH   5   6
BRANCH   1  17
ATOM     16  C   UNL     1       2.520   1.579  18.865  0.00  0.00    +0.000 C 
ATOM     17  N   UNL     1       2.986   2.453  19.944  0.00  0.00    +0.000 NA
ATOM     18  C   UNL     1       4.343   2.094  20.338  0.00  0.00    +0.000 C 
ENDBRANCH   1  17
BRANCH   3  19
ATOM     19  C   UNL     1       2.282   6.855  20.196  0.00  0.00    +0.000 C 
BRANCH  19  20
ATOM     20  C   UNL     1       1.594   8.185  20.440  0.00  0.00    +0.000 A 
ATOM     21  C   UNL     1       1.148   8.522  21.717  0.00  0.00    +0.000 A 
ATOM     22  C   UNL     1       0.464   9.722  21.894  0.00  0.00    +0.000 A 
ATOM     23  C   UNL     1       0.252  10.549  20.799  0.00  0.00    +0.000 A 
ATOM     24  C   UNL     1       0.745  10.148  19.566  0.00  0.00    +0.000 A 
ATOM     25  N   UNL     1       1.411   8.995  19.365  0.00  0.00    +0.000 NA
ENDBRANCH  19  20
ENDBRANCH   3  19
TORSDOF 4
ENDMDL
MODEL 5
REMARK VINA RESULT:      -6.9      1.376      1.760
REMARK  Name = 
REMARK  7 active torsions:
REMARK  status: ('A' for Active; 'I' for Inactive)
REMARK    1  A    between atoms: C_1  and  N_2
REMARK    2  A    between atoms: N_2  and  C_3
REMARK    3  A    between atoms: N_2  and  C_4
REMARK    4  A    between atoms: N_6  and  C_7
REMARK    5  A    between atoms: C_7  and  C_8
REMARK    6  A    between atoms: C_15  and  C_16
REMARK    7  A    between atoms: N_18  and  C_19
REMARK                            x       y       z     vdW  Elec       q    Type
REMARK                         _______ _______ _______ _____ _____    ______ ____
ROOT
ATOM      1  C   UNL     1       3.616   3.830  19.250  0.00  0.00    +0.000 C 
ATOM      2  C   UNL     1       2.161   3.960  19.747  0.00  0.00    +0.000 C 
ATOM      3  N   UNL     1       1.727   5.321  19.376  0.00  0.00    +0.000 NA
ATOM      4  C   UNL     1       2.374   5.563  18.063  0.00  0.00    +0.000 C 
ATOM      5  C   UNL     1       3.507   4.529  17.873  0.00  0.00    +0.000 C 
ENDROOT
BRANCH   5   6
ATOM      6  C   UNL     1       4.783   5.131  17.350  0.00  0.00    +0.000 A 
ATOM      7  C   UNL     1       5.556   6.111  17.949  0.00  0.00    +0.000 A 
ATOM      8  N   UNL     1       6.624   6.379  17.136  0.00  0.00    +0.000 N 
ATOM      9  C   UNL     1       7.673   7.327  17.440  0.00  0.00    +0.000 C 
ATOM     10  C   UNL     1       6.561   5.614  15.992  0.00  0.00    +0.000 A 
ATOM     11  C   UNL     1       7.413   5.551  14.876  0.00  0.00    +0.000 A 
ATOM     12  C   UNL     1       7.090   4.656  13.852  0.00  0.00    +0.000 A 
ATOM     13  C   UNL     1       5.954   3.858  13.933  0.00  0.00    +0.000 A 
ATOM     14  C   UNL     1       5.112   3.933  15.046  0.00  0.00    +0.000 A 
ATOM     15  C   UNL     1       5.415   4.821  16.101  0.00  0.00    +0.000 A 
ENDBRANCH   5   6
BRANCH   1  17
ATOM     16  C   UNL     1       4.359   2.010  20.684  0.00  0.00    +0.000 C 
ATOM     17  N   UNL     1       4.226   2.481  19.304  0.00  0.00    +0.000 NA
ATOM     18  C   UNL     1       3.561   1.475  18.485  0.00  0.00    +0.000 C 
ENDBRANCH   1  17
BRANCH   3  19
ATOM     19  C   UNL     1       2.188   6.304  20.388  0.00  0.00    +0.000 C 
BRANCH  19  20
ATOM     20  C   UNL     1       1.592   7.688  20.214  0.00  0.00    +0.000 A 
ATOM     21  C   UNL     1       1.833   8.417  19.051  0.00  0.00    +0.000 A 
ATOM     22  C   UNL     1       1.323   9.709  18.950  0.00  0.00    +0.000 A 
ATOM     23  C   UNL     1       0.586  10.230  20.006  0.00  0.00    +0.000 A 
ATOM     24  C   UNL     1       0.377   9.432  21.120  0.00  0.00    +0.000 A 
ATOM     25  N   UNL     1       0.856   8.179  21.245  0.00  0.00    +0.000 NA
ENDBRANCH  19  20
ENDBRANCH   3  19
TORSDOF 4
ENDMDL
MODEL 6
REMARK VINA RESULT:      -6.9      1.440      2.748
REMARK  Name = 
REMARK  7 active torsions:
REMARK  status: ('A' for Active; 'I' for Inactive)
REMARK    1  A    between atoms: C_1  and  N_2
REMARK    2  A    between atoms: N_2  and  C_3
REMARK    3  A    between atoms: N_2  and  C_4
REMARK    4  A    between atoms: N_6  and  C_7
REMARK    5  A    between atoms: C_7  and  C_8
REMARK    6  A    between atoms: C_15  and  C_16
REMARK    7  A    between atoms: N_18  and  C_19
REMARK                            x       y       z     vdW  Elec       q    Type
REMARK                         _______ _______ _______ _____ _____    ______ ____
ROOT
ATOM      1  C   UNL     1       3.009   3.509  19.525  0.00  0.00    +0.000 C 
ATOM      2  C   UNL     1       1.654   4.016  20.065  0.00  0.00    +0.000 C 
ATOM      3  N   UNL     1       1.421   5.319  19.414  0.00  0.00    +0.000 NA
ATOM      4  C   UNL     1       1.964   5.144  18.044  0.00  0.00    +0.000 C 
ATOM      5  C   UNL     1       2.881   3.899  18.033  0.00  0.00    +0.000 C 
ENDROOT
BRANCH   5   6
ATOM      6  C   UNL     1       4.180   4.123  17.309  0.00  0.00    +0.000 A 
ATOM      7  C   UNL     1       4.475   3.804  15.994  0.00  0.00    +0.000 A 
ATOM      8  N   UNL     1       5.771   4.165  15.739  0.00  0.00    +0.000 N 
ATOM      9  C   UNL     1       6.430   4.017  14.460  0.00  0.00    +0.000 C 
ATOM     10  C   UNL     1       6.352   4.694  16.869  0.00  0.00    +0.000 A 
ATOM     11  C   UNL     1       7.650   5.185  17.096  0.00  0.00    +0.000 A 
ATOM     12  C   UNL     1       7.956   5.676  18.368  0.00  0.00    +0.000 A 
ATOM     13  C   UNL     1       7.004   5.670  19.382  0.00  0.00    +0.000 A 
ATOM     14  C   UNL     1       5.718   5.176  19.147  0.00  0.00    +0.000 A 
ATOM     15  C   UNL     1       5.376   4.681  17.869  0.00  0.00    +0.000 A 
ENDBRANCH   5   6
BRANCH   1  17
ATOM     16  C   UNL     1       3.403   1.270  18.658  0.00  0.00    +0.000 C 
ATOM     17  N   UNL     1       3.384   2.115  19.855  0.00  0.00    +0.000 NA
ATOM     18  C   UNL     1       4.631   1.975  20.596  0.00  0.00    +0.000 C 
ENDBRANCH   1  17
BRANCH   3  19
ATOM     19  C   UNL     1       2.141   6.394  20.140  0.00  0.00    +0.000 C 
BRANCH  19  20
ATOM     20  C   UNL     1       1.787   7.793  19.672  0.00  0.00    +0.000 A 
ATOM     21  C   UNL     1       2.200   8.241  18.418  0.00  0.00    +0.000 A 
ATOM     22  C   UNL     1       1.913   9.552  18.045  0.00  0.00    +0.000 A 
ATOM     23  C   UNL     1       1.221  10.371  18.927  0.00  0.00    +0.000 A 
ATOM     24  C   UNL     1       0.830   9.842  20.148  0.00  0.00    +0.000 A 
ATOM     25  N   UNL     1       1.092   8.579  20.536  0.00  0.00    +0.000 NA
ENDBRANCH  19  20
ENDBRANCH   3  19
TORSDOF 4
ENDMDL
MODEL 7
REMARK VINA RESULT:      -6.8      1.056      2.332
REMARK  Name = 
REMARK  7 active torsions:
REMARK  status: ('A' for Active; 'I' for Inactive)
REMARK    1  A    between atoms: C_1  and  N_2
REMARK    2  A    between atoms: N_2  and  C_3
REMARK    3  A    between atoms: N_2  and  C_4
REMARK    4  A    between atoms: N_6  and  C_7
REMARK    5  A    between atoms: C_7  and  C_8
REMARK    6  A    between atoms: C_15  and  C_16
REMARK    7  A    between atoms: N_18  and  C_19
REMARK                            x       y       z     vdW  Elec       q    Type
REMARK                         _______ _______ _______ _____ _____    ______ ____
ROOT
ATOM      1  C   UNL     1       2.810   4.144  19.809  0.00  0.00    +0.000 C 
ATOM      2  C   UNL     1       1.523   4.853  20.280  0.00  0.00    +0.000 C 
ATOM      3  N   UNL     1       1.432   6.095  19.488  0.00  0.00    +0.000 NA
ATOM      4  C   UNL     1       1.945   5.710  18.150  0.00  0.00    +0.000 C 
ATOM      5  C   UNL     1       2.719   4.378  18.282  0.00  0.00    +0.000 C 
ENDROOT
BRANCH   5   6
ATOM      6  C   UNL     1       4.031   4.376  17.547  0.00  0.00    +0.000 A 
ATOM      7  C   UNL     1       4.266   3.958  16.248  0.00  0.00    +0.000 A 
ATOM      8  N   UNL     1       5.598   4.112  15.975  0.00  0.00    +0.000 N 
ATOM      9  C   UNL     1       6.219   3.812  14.704  0.00  0.00    +0.000 C 
ATOM     10  C   UNL     1       6.260   4.601  17.079  0.00  0.00    +0.000 A 
ATOM     11  C   UNL     1       7.617   4.905  17.282  0.00  0.00    +0.000 A 
ATOM     12  C   UNL     1       8.002   5.402  18.530  0.00  0.00    +0.000 A 
ATOM     13  C   UNL     1       7.068   5.582  19.545  0.00  0.00    +0.000 A 
ATOM     14  C   UNL     1       5.721   5.272  19.334  0.00  0.00    +0.000 A 
ATOM     15  C   UNL     1       5.300   4.776  18.080  0.00  0.00    +0.000 A 
ENDBRANCH   5   6
BRANCH   1  17
ATOM     16  C   UNL     1       2.335   2.522  21.561  0.00  0.00    +0.000 C 
ATOM     17  N   UNL     1       3.030   2.762  20.294  0.00  0.00    +0.000 NA
ATOM     18  C   UNL     1       2.707   1.716  19.331  0.00  0.00    +0.000 C 
ENDBRANCH   1  17
BRANCH   3  19
ATOM     19  C   UNL     1       2.270   7.157  20.096  0.00  0.00    +0.000 C 
BRANCH  19  20
ATOM     20  C   UNL     1       1.492   8.394  20.502  0.00  0.00    +0.000 A 
ATOM     21  C   UNL     1       1.111   9.332  19.543  0.00  0.00    +0.000 A 
ATOM     22  C   UNL     1       0.453  10.488  19.958  0.00  0.00    +0.000 A 
ATOM     23  C   UNL     1       0.191  10.669  21.310  0.00  0.00    +0.000 A 
ATOM     24  C   UNL     1       0.588   9.680  22.196  0.00  0.00    +0.000 A 
ATOM     25  N   UNL     1       1.224   8.552  21.825  0.00  0.00    +0.000 NA
ENDBRANCH  19  20
ENDBRANCH   3  19
TORSDOF 4
ENDMDL
MODEL 8
REMARK VINA RESULT:      -6.5      1.723      6.405
REMARK  Name = 
REMARK  7 active torsions:
REMARK  status: ('A' for Active; 'I' for Inactive)
REMARK    1  A    between atoms: C_1  and  N_2
REMARK    2  A    between atoms: N_2  and  C_3
REMARK    3  A    between atoms: N_2  and  C_4
REMARK    4  A    between atoms: N_6  and  C_7
REMARK    5  A    between atoms: C_7  and  C_8
REMARK    6  A    between atoms: C_15  and  C_16
REMARK    7  A    between atoms: N_18  and  C_19
REMARK                            x       y       z     vdW  Elec       q    Type
REMARK                         _______ _______ _______ _____ _____    ______ ____
ROOT
ATOM      1  C   UNL     1       2.604   4.232  18.885  0.00  0.00    +0.000 C 
ATOM      2  C   UNL     1       3.758   3.234  19.118  0.00  0.00    +0.000 C 
ATOM      3  N   UNL     1       4.986   4.049  19.201  0.00  0.00    +0.000 NA
ATOM      4  C   UNL     1       4.557   5.284  19.904  0.00  0.00    +0.000 C 
ATOM      5  C   UNL     1       3.014   5.369  19.853  0.00  0.00    +0.000 C 
ENDROOT
BRANCH   5   6
ATOM      6  C   UNL     1       2.505   6.739  19.495  0.00  0.00    +0.000 A 
ATOM      7  C   UNL     1       2.860   7.507  18.399  0.00  0.00    +0.000 A 
ATOM      8  N   UNL     1       2.173   8.689  18.456  0.00  0.00    +0.000 N 
ATOM      9  C   UNL     1       2.257   9.739  17.465  0.00  0.00    +0.000 C 
ATOM     10  C   UNL     1       1.387   8.733  19.586  0.00  0.00    +0.000 A 
ATOM     11  C   UNL     1       0.526   9.732  20.073  0.00  0.00    +0.000 A 
ATOM     12  C   UNL     1      -0.159   9.487  21.265  0.00  0.00    +0.000 A 
ATOM     13  C   UNL     1       0.013   8.290  21.955  0.00  0.00    +0.000 A 
ATOM     14  C   UNL     1       0.875   7.306  21.463  0.00  0.00    +0.000 A 
ATOM     15  C   UNL     1       1.575   7.521  20.255  0.00  0.00    +0.000 A 
ENDBRANCH   5   6
BRANCH   1  17
ATOM     16  C   UNL     1       1.134   2.355  18.399  0.00  0.00    +0.000 C 
ATOM     17  N   UNL     1       1.226   3.698  18.978  0.00  0.00    +0.000 NA
ATOM     18  C   UNL     1       0.651   3.715  20.317  0.00  0.00    +0.000 C 
ENDBRANCH   1  17
BRANCH   3  19
ATOM     19  C   UNL     1       5.493   4.357  17.841  0.00  0.00    +0.000 C 
BRANCH  19  20
ATOM     20  C   UNL     1       6.351   5.606  17.776  0.00  0.00    +0.000 A 
ATOM     21  C   UNL     1       7.488   5.722  18.574  0.00  0.00    +0.000 A 
ATOM     22  C   UNL     1       8.218   6.907  18.537  0.00  0.00    +0.000 A 
ATOM     23  C   UNL     1       7.797   7.936  17.704  0.00  0.00    +0.000 A 
ATOM     24  C   UNL     1       6.665   7.734  16.929  0.00  0.00    +0.000 A 
ATOM     25  N   UNL     1       5.940   6.598  16.943  0.00  0.00    +0.000 NA
ENDBRANCH  19  20
ENDBRANCH   3  19
TORSDOF 4
ENDMDL
MODEL 9
REMARK VINA RESULT:      -6.5      1.800      5.938
REMARK  Name = 
REMARK  7 active torsions:
REMARK  status: ('A' for Active; 'I' for Inactive)
REMARK    1  A    between atoms: C_1  and  N_2
REMARK    2  A    between atoms: N_2  and  C_3
REMARK    3  A    between atoms: N_2  and  C_4
REMARK    4  A    between atoms: N_6  and  C_7
REMARK    5  A    between atoms: C_7  and  C_8
REMARK    6  A    between atoms: C_15  and  C_16
REMARK    7  A    between atoms: N_18  and  C_19
REMARK                            x       y       z     vdW  Elec       q    Type
REMARK                         _______ _______ _______ _____ _____    ______ ____
ROOT
ATOM      1  C   UNL     1       2.591   4.010  18.732  0.00  0.00    +0.000 C 
ATOM      2  C   UNL     1       3.868   3.174  18.500  0.00  0.00    +0.000 C 
ATOM      3  N   UNL     1       4.999   4.095  18.723  0.00  0.00    +0.000 NA
ATOM      4  C   UNL     1       4.546   4.965  19.836  0.00  0.00    +0.000 C 
ATOM      5  C   UNL     1       3.012   4.830  19.975  0.00  0.00    +0.000 C 
ENDROOT
BRANCH   5   6
ATOM      6  C   UNL     1       2.311   6.150  20.148  0.00  0.00    +0.000 A 
ATOM      7  C   UNL     1       1.505   6.541  21.203  0.00  0.00    +0.000 A 
ATOM      8  N   UNL     1       1.059   7.812  20.961  0.00  0.00    +0.000 N 
ATOM      9  C   UNL     1       0.215   8.573  21.857  0.00  0.00    +0.000 C 
ATOM     10  C   UNL     1       1.533   8.265  19.751  0.00  0.00    +0.000 A 
ATOM     11  C   UNL     1       1.338   9.485  19.081  0.00  0.00    +0.000 A 
ATOM     12  C   UNL     1       1.964   9.666  17.845  0.00  0.00    +0.000 A 
ATOM     13  C   UNL     1       2.753   8.663  17.291  0.00  0.00    +0.000 A 
ATOM     14  C   UNL     1       2.937   7.452  17.964  0.00  0.00    +0.000 A 
ATOM     15  C   UNL     1       2.323   7.242  19.219  0.00  0.00    +0.000 A 
ENDBRANCH   5   6
BRANCH   1  17
ATOM     16  C   UNL     1       1.453   1.909  18.269  0.00  0.00    +0.000 C 
ATOM     17  N   UNL     1       1.307   3.273  18.783  0.00  0.00    +0.000 NA
ATOM     18  C   UNL     1       0.659   3.258  20.089  0.00  0.00    +0.000 C 
ENDBRANCH   1  17
BRANCH   3  19
ATOM     19  C   UNL     1       5.266   4.890  17.499  0.00  0.00    +0.000 C 
BRANCH  19  20
ATOM     20  C   UNL     1       6.319   5.966  17.684  0.00  0.00    +0.000 A 
ATOM     21  C   UNL     1       7.355   5.786  18.599  0.00  0.00    +0.000 A 
ATOM     22  C   UNL     1       8.268   6.820  18.792  0.00  0.00    +0.000 A 
ATOM     23  C   UNL     1       8.125   7.994  18.064  0.00  0.00    +0.000 A 
ATOM     24  C   UNL     1       7.077   8.085  17.161  0.00  0.00    +0.000 A 
ATOM     25  N   UNL     1       6.180   7.102  16.953  0.00  0.00    +0.000 NA
ENDBRANCH  19  20
ENDBRANCH   3  19
TORSDOF 4
ENDMDL
