MODEL 1
REMARK VINA RESULT:      -8.8      0.000      0.000
REMARK  Name = 
REMARK  4 active torsions:
REMARK  status: ('A' for Active; 'I' for Inactive)
REMARK    1  A    between atoms: N_3  and  C_4
REMARK    2  A    between atoms: N_11  and  C_12
REMARK    3  A    between atoms: C_16  and  C_17
REMARK    4  A    between atoms: C_21  and  O_22
REMARK                            x       y       z     vdW  Elec       q    Type
REMARK                         _______ _______ _______ _____ _____    ______ ____
ROOT
ATOM      1  C   UNL     1       6.005   6.466  16.910  0.00  0.00    +0.000 A 
ATOM      2  C   UNL     1       6.544   5.450  16.119  0.00  0.00    +0.000 A 
ATOM      3  C   UNL     1       6.026   4.159  16.170  0.00  0.00    +0.000 A 
ATOM      4  C   UNL     1       4.948   3.875  17.004  0.00  0.00    +0.000 A 
ATOM      5  C   UNL     1       4.341   4.877  17.779  0.00  0.00    +0.000 A 
ATOM      6  C   UNL     1       4.888   6.177  17.708  0.00  0.00    +0.000 A 
ENDROOT
BRANCH   1  10
ATOM      7  O   UNL     1       8.357   7.375  18.333  0.00  0.00    +0.000 OA
ATOM      8  C   UNL     1       7.668   8.149  17.681  0.00  0.00    +0.000 C 
ATOM      9  N   UNL     1       7.898   9.516  17.616  0.00  0.00    +0.000 N 
ATOM     10  N   UNL     1       6.542   7.776  16.964  0.00  0.00    +0.000 N 
ATOM     11  H   UNL     1       7.166  10.088  17.224  0.00  0.00    +0.000 HD
ATOM     12  H   UNL     1       5.979   8.510  16.562  0.00  0.00    +0.000 HD
BRANCH   9  13
ATOM     13  C   UNL     1       8.938  10.198  18.292  0.00  0.00    +0.000 A 
ATOM     14  C   UNL     1       9.064  10.221  19.687  0.00  0.00    +0.000 A 
ATOM     15  C   UNL     1      10.063  10.977  20.306  0.00  0.00    +0.000 A 
ATOM     16  C   UNL     1      10.957  11.704  19.530  0.00  0.00    +0.000 A 
ATOM     17 CL   UNL     1      12.162  12.666  20.291  0.00  0.00    +0.000 Cl
ATOM     18  C   UNL     1      10.874  11.658  18.141  0.00  0.00    +0.000 A 
ATOM     19  C   UNL     1       9.873  10.899  17.522  0.00  0.00    +0.000 A 
ENDBRANCH   9  13
ENDBRANCH   1  10
BRANCH   5  20
ATOM     20  C   UNL     1       3.159   4.579  18.622  0.00  0.00    +0.000 A 
ATOM     21  C   UNL     1       2.926   5.278  19.823  0.00  0.00    +0.000 A 
ATOM     22  C   UNL     1       1.836   4.980  20.648  0.00  0.00    +0.000 A 
ATOM     23  C   UNL     1       0.954   3.964  20.295  0.00  0.00    +0.000 A 
ATOM     24  C   UNL     1       1.162   3.270  19.111  0.00  0.00    +0.000 A 
ATOM     25  C   UNL     1       2.235   3.576  18.276  0.00  0.00    +0.000 A 
BRANCH  24  26
ATOM     26  O   UNL     1       0.332   2.258  18.727  0.00  0.00    +0.000 OA
ATOM     27  H   UNL     1      -0.575   2.605  18.678  0.00  0.00    +0.000 HD
ENDBRANCH  24  26
ENDBRANCH   5  20
TORSDOF 4
ENDMDL
MODEL 2
REMARK VINA RESULT:      -8.7      1.542      1.956
REMARK  Name = 
REMARK  4 active torsions:
REMARK  status: ('A' for Active; 'I' for Inactive)
REMARK    1  A    between atoms: N_3  and  C_4
REMARK    2  A    between atoms: N_11  and  C_12
REMARK    3  A    between atoms: C_16  and  C_17
REMARK    4  A    between atoms: C_21  and  O_22
REMARK                            x       y       z     vdW  Elec       q    Type
REMARK                         _______ _______ _______ _____ _____    ______ ____
ROOT
ATOM      1  C   UNL     1       6.972   5.886  17.715  0.00  0.00    +0.000 A 
ATOM      2  C   UNL     1       7.197   5.501  16.393  0.00  0.00    +0.000 A 
ATOM      3  C   UNL     1       6.359   4.582  15.766  0.00  0.00    +0.000 A 
ATOM      4  C   UNL     1       5.273   4.051  16.456  0.00  0.00    +0.000 A 
ATOM      5  C   UNL     1       4.976   4.449  17.770  0.00  0.00    +0.000 A 
ATOM      6  C   UNL     1       5.844   5.381  18.380  0.00  0.00    +0.000 A 
ENDROOT
BRANCH   1  10
ATOM      7  O   UNL     1       7.272   8.751  17.426  0.00  0.00    +0.000 OA
ATOM      8  C   UNL     1       7.943   8.117  18.232  0.00  0.00    +0.000 C 
ATOM      9  N   UNL     1       8.937   8.683  19.018  0.00  0.00    +0.000 N 
ATOM     10  N   UNL     1       7.836   6.750  18.432  0.00  0.00    +0.000 N 
ATOM     11  H   UNL     1       9.562   8.051  19.494  0.00  0.00    +0.000 HD
ATOM     12  H   UNL     1       8.517   6.310  19.030  0.00  0.00    +0.000 HD
BRANCH   9  13
ATOM     13  C   UNL     1       9.317  10.047  18.991  0.00  0.00    +0.000 A 
ATOM     14  C   UNL     1       9.707  10.715  17.823  0.00  0.00    +0.000 A 
ATOM     15  C   UNL     1      10.150  12.039  17.866  0.00  0.00    +0.000 A 
ATOM     16  C   UNL     1      10.190  12.712  19.081  0.00  0.00    +0.000 A 
ATOM     17 CL   UNL     1      10.772  14.328  19.141  0.00  0.00    +0.000 Cl
ATOM     18  C   UNL     1       9.765  12.079  20.246  0.00  0.00    +0.000 A 
ATOM     19  C   UNL     1       9.320  10.752  20.200  0.00  0.00    +0.000 A 
ENDBRANCH   9  13
ENDBRANCH   1  10
BRANCH   5  20
ATOM     20  C   UNL     1       3.785   3.921  18.477  0.00  0.00    +0.000 A 
ATOM     21  C   UNL     1       2.516   3.919  17.863  0.00  0.00    +0.000 A 
ATOM     22  C   UNL     1       1.377   3.459  18.532  0.00  0.00    +0.000 A 
ATOM     23  C   UNL     1       1.477   2.999  19.841  0.00  0.00    +0.000 A 
ATOM     24  C   UNL     1       2.721   2.986  20.459  0.00  0.00    +0.000 A 
ATOM     25  C   UNL     1       3.862   3.424  19.790  0.00  0.00    +0.000 A 
BRANCH  24  26
ATOM     26  O   UNL     1       2.869   2.554  21.745  0.00  0.00    +0.000 OA
ATOM     27  H   UNL     1       2.073   2.055  21.996  0.00  0.00    +0.000 HD
ENDBRANCH  24  26
ENDBRANCH   5  20
TORSDOF 4
ENDMDL
MODEL 3
REMARK VINA RESULT:      -8.6      1.108      1.466
REMARK  Name = 
REMARK  4 active torsions:
REMARK  status: ('A' for Active; 'I' for Inactive)
REMARK    1  A    between atoms: N_3  and  C_4
REMARK    2  A    between atoms: N_11  and  C_12
REMARK    3  A    between atoms: C_16  and  C_17
REMARK    4  A    between atoms: C_21  and  O_22
REMARK                            x       y       z     vdW  Elec       q    Type
REMARK                         _______ _______ _______ _____ _____    ______ ____
ROOT
ATOM      1  C   UNL     1       6.848   6.076  17.586  0.00  0.00    +0.000 A 
ATOM      2  C   UNL     1       7.074   5.610  16.290  0.00  0.00    +0.000 A 
ATOM      3  C   UNL     1       6.163   4.757  15.672  0.00  0.00    +0.000 A 
ATOM      4  C   UNL     1       5.005   4.374  16.343  0.00  0.00    +0.000 A 
ATOM      5  C   UNL     1       4.711   4.860  17.628  0.00  0.00    +0.000 A 
ATOM      6  C   UNL     1       5.653   5.723  18.229  0.00  0.00    +0.000 A 
ENDROOT
BRANCH   1  10
ATOM      7  O   UNL     1       7.203   8.946  17.445  0.00  0.00    +0.000 OA
ATOM      8  C   UNL     1       7.905   8.252  18.170  0.00  0.00    +0.000 C 
ATOM      9  N   UNL     1       8.959   8.747  18.924  0.00  0.00    +0.000 N 
ATOM     10  N   UNL     1       7.776   6.878  18.296  0.00  0.00    +0.000 N 
ATOM     11  H   UNL     1       9.596   8.075  19.324  0.00  0.00    +0.000 HD
ATOM     12  H   UNL     1       8.481   6.388  18.825  0.00  0.00    +0.000 HD
BRANCH   9  13
ATOM     13  C   UNL     1       9.371  10.102  18.953  0.00  0.00    +0.000 A 
ATOM     14  C   UNL     1       9.804  10.800  17.818  0.00  0.00    +0.000 A 
ATOM     15  C   UNL     1      10.277  12.110  17.917  0.00  0.00    +0.000 A 
ATOM     16  C   UNL     1      10.304  12.741  19.154  0.00  0.00    +0.000 A 
ATOM     17 CL   UNL     1      10.922  14.340  19.284  0.00  0.00    +0.000 Cl
ATOM     18  C   UNL     1       9.837  12.079  20.287  0.00  0.00    +0.000 A 
ATOM     19  C   UNL     1       9.362  10.765  20.186  0.00  0.00    +0.000 A 
ENDBRANCH   9  13
ENDBRANCH   1  10
BRANCH   5  20
ATOM     20  C   UNL     1       3.449   4.492  18.312  0.00  0.00    +0.000 A 
ATOM     21  C   UNL     1       2.955   5.256  19.389  0.00  0.00    +0.000 A 
ATOM     22  C   UNL     1       1.785   4.899  20.068  0.00  0.00    +0.000 A 
ATOM     23  C   UNL     1       1.084   3.758  19.694  0.00  0.00    +0.000 A 
ATOM     24  C   UNL     1       1.551   2.997  18.630  0.00  0.00    +0.000 A 
ATOM     25  C   UNL     1       2.704   3.360  17.937  0.00  0.00    +0.000 A 
BRANCH  24  26
ATOM     26  O   UNL     1       0.904   1.864  18.232  0.00  0.00    +0.000 OA
ATOM     27  H   UNL     1       1.133   1.146  18.846  0.00  0.00    +0.000 HD
ENDBRANCH  24  26
ENDBRANCH   5  20
TORSDOF 4
ENDMDL
MODEL 4
REMARK VINA RESULT:      -8.5      1.191      1.200
REMARK  Name = 
REMARK  4 active torsions:
REMARK  status: ('A' for Active; 'I' for Inactive)
REMARK    1  A    between atoms: N_3  and  C_4
REMARK    2  A    between atoms: N_11  and  C_12
REMARK    3  A    between atoms: C_16  and  C_17
REMARK    4  A    between atoms: C_21  and  O_22
REMARK                            x       y       z     vdW  Elec       q    Type
REMARK                         _______ _______ _______ _____ _____    ______ ____
ROOT
ATOM      1  C   UNL     1       6.868   6.043  17.595  0.00  0.00    +0.000 A 
ATOM      2  C   UNL     1       7.082   5.572  16.299  0.00  0.00    +0.000 A 
ATOM      3  C   UNL     1       6.158   4.729  15.687  0.00  0.00    +0.000 A 
ATOM      4  C   UNL     1       4.999   4.361  16.364  0.00  0.00    +0.000 A 
ATOM      5  C   UNL     1       4.717   4.852  17.649  0.00  0.00    +0.000 A 
ATOM      6  C   UNL     1       5.672   5.705  18.245  0.00  0.00    +0.000 A 
ENDROOT
BRANCH   1  10
ATOM      7  O   UNL     1       7.121   8.927  17.609  0.00  0.00    +0.000 OA
ATOM      8  C   UNL     1       7.886   8.217  18.250  0.00  0.00    +0.000 C 
ATOM      9  N   UNL     1       8.965   8.705  18.974  0.00  0.00    +0.000 N 
ATOM     10  N   UNL     1       7.808   6.834  18.300  0.00  0.00    +0.000 N 
ATOM     11  H   UNL     1       9.644   8.034  19.296  0.00  0.00    +0.000 HD
ATOM     12  H   UNL     1       8.558   6.340  18.759  0.00  0.00    +0.000 HD
BRANCH   9  13
ATOM     13  C   UNL     1       9.333  10.069  19.061  0.00  0.00    +0.000 A 
ATOM     14  C   UNL     1       9.364  10.783  20.266  0.00  0.00    +0.000 A 
ATOM     15  C   UNL     1       9.655  12.150  20.285  0.00  0.00    +0.000 A 
ATOM     16  C   UNL     1       9.935  12.810  19.095  0.00  0.00    +0.000 A 
ATOM     17 CL   UNL     1      10.256  14.499  19.113  0.00  0.00    +0.000 Cl
ATOM     18  C   UNL     1       9.952  12.108  17.893  0.00  0.00    +0.000 A 
ATOM     19  C   UNL     1       9.661  10.739  17.876  0.00  0.00    +0.000 A 
ENDBRANCH   9  13
ENDBRANCH   1  10
BRANCH   5  20
ATOM     20  C   UNL     1       3.454   4.500  18.340  0.00  0.00    +0.000 A 
ATOM     21  C   UNL     1       2.977   5.268  19.421  0.00  0.00    +0.000 A 
ATOM     22  C   UNL     1       1.806   4.925  20.107  0.00  0.00    +0.000 A 
ATOM     23  C   UNL     1       1.088   3.794  19.734  0.00  0.00    +0.000 A 
ATOM     24  C   UNL     1       1.538   3.029  18.666  0.00  0.00    +0.000 A 
ATOM     25  C   UNL     1       2.691   3.378  17.966  0.00  0.00    +0.000 A 
BRANCH  24  26
ATOM     26  O   UNL     1       0.874   1.906  18.269  0.00  0.00    +0.000 OA
ATOM     27  H   UNL     1      -0.080   2.091  18.282  0.00  0.00    +0.000 HD
ENDBRANCH  24  26
ENDBRANCH   5  20
TORSDOF 4
ENDMDL
MODEL 5
REMARK VINA RESULT:      -8.5      1.551      1.741
REMARK  Name = 
REMARK  4 active torsions:
REMARK  status: ('A' for Active; 'I' for Inactive)
REMARK    1  A    between atoms: N_3  and  C_4
REMARK    2  A    between atoms: N_11  and  C_12
REMARK    3  A    between atoms: C_16  and  C_17
REMARK    4  A    between atoms: C_21  and  O_22
REMARK                            x       y       z     vdW  Elec       q    Type
REMARK                         _______ _______ _______ _____ _____    ______ ____
ROOT
ATOM      1  C   UNL     1       6.971   5.996  17.559  0.00  0.00    +0.000 A 
ATOM      2  C   UNL     1       7.204   5.658  16.225  0.00  0.00    +0.000 A 
ATOM      3  C   UNL     1       6.358   4.777  15.556  0.00  0.00    +0.000 A 
ATOM      4  C   UNL     1       5.257   4.237  16.215  0.00  0.00    +0.000 A 
ATOM      5  C   UNL     1       4.954   4.589  17.541  0.00  0.00    +0.000 A 
ATOM      6  C   UNL     1       5.830   5.483  18.194  0.00  0.00    +0.000 A 
ENDROOT
BRANCH   1  10
ATOM      7  O   UNL     1       7.244   8.876  17.455  0.00  0.00    +0.000 OA
ATOM      8  C   UNL     1       7.934   8.197  18.205  0.00  0.00    +0.000 C 
ATOM      9  N   UNL     1       8.938   8.718  19.009  0.00  0.00    +0.000 N 
ATOM     10  N   UNL     1       7.842   6.819  18.315  0.00  0.00    +0.000 N 
ATOM     11  H   UNL     1       9.577   8.062  19.431  0.00  0.00    +0.000 HD
ATOM     12  H   UNL     1       8.537   6.346  18.872  0.00  0.00    +0.000 HD
BRANCH   9  13
ATOM     13  C   UNL     1       9.306  10.084  19.065  0.00  0.00    +0.000 A 
ATOM     14  C   UNL     1       9.316  10.831  20.251  0.00  0.00    +0.000 A 
ATOM     15  C   UNL     1       9.608  12.197  20.237  0.00  0.00    +0.000 A 
ATOM     16  C   UNL     1       9.910  12.825  19.035  0.00  0.00    +0.000 A 
ATOM     17 CL   UNL     1      10.232  14.513  19.012  0.00  0.00    +0.000 Cl
ATOM     18  C   UNL     1       9.948  12.090  17.853  0.00  0.00    +0.000 A 
ATOM     19  C   UNL     1       9.656  10.721  17.869  0.00  0.00    +0.000 A 
ENDBRANCH   9  13
ENDBRANCH   1  10
BRANCH   5  20
ATOM     20  C   UNL     1       3.749   4.052  18.216  0.00  0.00    +0.000 A 
ATOM     21  C   UNL     1       2.499   4.030  17.565  0.00  0.00    +0.000 A 
ATOM     22  C   UNL     1       1.346   3.562  18.203  0.00  0.00    +0.000 A 
ATOM     23  C   UNL     1       1.412   3.114  19.519  0.00  0.00    +0.000 A 
ATOM     24  C   UNL     1       2.636   3.120  20.173  0.00  0.00    +0.000 A 
ATOM     25  C   UNL     1       3.792   3.566  19.534  0.00  0.00    +0.000 A 
BRANCH  24  26
ATOM     26  O   UNL     1       2.751   2.700  21.466  0.00  0.00    +0.000 OA
ATOM     27  H   UNL     1       1.993   2.127  21.672  0.00  0.00    +0.000 HD
ENDBRANCH  24  26
ENDBRANCH   5  20
TORSDOF 4
ENDMDL
MODEL 6
REMARK VINA RESULT:      -8.2      1.150      1.485
REMARK  Name = 
REMARK  4 active torsions:
REMARK  status: ('A' for Active; 'I' for Inactive)
REMARK    1  A    between atoms: N_3  and  C_4
REMARK    2  A    between atoms: N_11  and  C_12
REMARK    3  A    between atoms: C_16  and  C_17
REMARK    4  A    between atoms: C_21  and  O_22
REMARK                            x       y       z     vdW  Elec       q    Type
REMARK                         _______ _______ _______ _____ _____    ______ ____
ROOT
ATOM      1  C   UNL     1       6.316   6.585  17.061  0.00  0.00    +0.000 A 
ATOM      2  C   UNL     1       6.851   5.511  16.348  0.00  0.00    +0.000 A 
ATOM      3  C   UNL     1       6.322   4.231  16.487  0.00  0.00    +0.000 A 
ATOM      4  C   UNL     1       5.237   4.016  17.333  0.00  0.00    +0.000 A 
ATOM      5  C   UNL     1       4.634   5.075  18.031  0.00  0.00    +0.000 A 
ATOM      6  C   UNL     1       5.192   6.363  17.870  0.00  0.00    +0.000 A 
ENDROOT
BRANCH   1  10
ATOM      7  O   UNL     1       8.540   7.633  18.590  0.00  0.00    +0.000 OA
ATOM      8  C   UNL     1       7.924   8.335  17.798  0.00  0.00    +0.000 C 
ATOM      9  N   UNL     1       8.177   9.687  17.610  0.00  0.00    +0.000 N 
ATOM     10  N   UNL     1       6.863   7.892  17.025  0.00  0.00    +0.000 N 
ATOM     11  H   UNL     1       7.492  10.216  17.093  0.00  0.00    +0.000 HD
ATOM     12  H   UNL     1       6.349   8.580  16.496  0.00  0.00    +0.000 HD
BRANCH   9  13
ATOM     13  C   UNL     1       9.160  10.433  18.303  0.00  0.00    +0.000 A 
ATOM     14  C   UNL     1       9.188  10.563  19.697  0.00  0.00    +0.000 A 
ATOM     15  C   UNL     1      10.132  11.379  20.325  0.00  0.00    +0.000 A 
ATOM     16  C   UNL     1      11.071  12.059  19.560  0.00  0.00    +0.000 A 
ATOM     17 CL   UNL     1      12.209  13.094  20.327  0.00  0.00    +0.000 Cl
ATOM     18  C   UNL     1      11.087  11.908  18.175  0.00  0.00    +0.000 A 
ATOM     19  C   UNL     1      10.140  11.089  17.548  0.00  0.00    +0.000 A 
ENDBRANCH   9  13
ENDBRANCH   1  10
BRANCH   5  20
ATOM     20  C   UNL     1       3.445   4.847  18.885  0.00  0.00    +0.000 A 
ATOM     21  C   UNL     1       2.742   3.626  18.843  0.00  0.00    +0.000 A 
ATOM     22  C   UNL     1       1.596   3.411  19.617  0.00  0.00    +0.000 A 
ATOM     23  C   UNL     1       1.116   4.420  20.445  0.00  0.00    +0.000 A 
ATOM     24  C   UNL     1       1.800   5.626  20.506  0.00  0.00    +0.000 A 
ATOM     25  C   UNL     1       2.954   5.838  19.754  0.00  0.00    +0.000 A 
BRANCH  24  26
ATOM     26  O   UNL     1       1.363   6.650  21.295  0.00  0.00    +0.000 OA
ATOM     27  H   UNL     1       0.806   7.237  20.758  0.00  0.00    +0.000 HD
ENDBRANCH  24  26
ENDBRANCH   5  20
TORSDOF 4
ENDMDL
MODEL 7
REMARK VINA RESULT:      -7.9      5.685      7.979
REMARK  Name = 
REMARK  4 active torsions:
REMARK  status: ('A' for Active; 'I' for Inactive)
REMARK    1  A    between atoms: N_3  and  C_4
REMARK    2  A    between atoms: N_11  and  C_12
REMARK    3  A    between atoms: C_16  and  C_17
REMARK    4  A    between atoms: C_21  and  O_22
REMARK                            x       y       z     vdW  Elec       q    Type
REMARK                         _______ _______ _______ _____ _____    ______ ____
ROOT
ATOM      1  C   UNL     1       2.165   7.062  19.721  0.00  0.00    +0.000 A 
ATOM      2  C   UNL     1       1.806   6.053  20.616  0.00  0.00    +0.000 A 
ATOM      3  C   UNL     1       2.423   4.806  20.566  0.00  0.00    +0.000 A 
ATOM      4  C   UNL     1       3.421   4.561  19.626  0.00  0.00    +0.000 A 
ATOM      5  C   UNL     1       3.851   5.563  18.741  0.00  0.00    +0.000 A 
ATOM      6  C   UNL     1       3.207   6.818  18.813  0.00  0.00    +0.000 A 
ENDROOT
BRANCH   1  10
ATOM      7  O   UNL     1       1.467   8.805  21.925  0.00  0.00    +0.000 OA
ATOM      8  C   UNL     1       1.196   9.101  20.767  0.00  0.00    +0.000 C 
ATOM      9  N   UNL     1       0.484  10.237  20.411  0.00  0.00    +0.000 N 
ATOM     10  N   UNL     1       1.517   8.321  19.668  0.00  0.00    +0.000 N 
ATOM     11  H   UNL     1       0.140  10.287  19.464  0.00  0.00    +0.000 HD
ATOM     12  H   UNL     1       1.142   8.596  18.774  0.00  0.00    +0.000 HD
BRANCH   9  13
ATOM     13  C   UNL     1      -0.029  11.193  21.321  0.00  0.00    +0.000 A 
ATOM     14  C   UNL     1      -0.951  10.880  22.328  0.00  0.00    +0.000 A 
ATOM     15  C   UNL     1      -1.487  11.877  23.146  0.00  0.00    +0.000 A 
ATOM     16  C   UNL     1      -1.090  13.197  22.973  0.00  0.00    +0.000 A 
ATOM     17 CL   UNL     1      -1.778  14.430  23.954  0.00  0.00    +0.000 Cl
ATOM     18  C   UNL     1      -0.142  13.521  22.007  0.00  0.00    +0.000 A 
ATOM     19  C   UNL     1       0.396  12.521  21.188  0.00  0.00    +0.000 A 
ENDBRANCH   9  13
ENDBRANCH   1  10
BRANCH   5  20
ATOM     20  C   UNL     1       4.952   5.312  17.781  0.00  0.00    +0.000 A 
ATOM     21  C   UNL     1       4.781   5.537  16.401  0.00  0.00    +0.000 A 
ATOM     22  C   UNL     1       5.799   5.268  15.480  0.00  0.00    +0.000 A 
ATOM     23  C   UNL     1       7.015   4.754  15.917  0.00  0.00    +0.000 A 
ATOM     24  C   UNL     1       7.206   4.534  17.275  0.00  0.00    +0.000 A 
ATOM     25  C   UNL     1       6.202   4.820  18.198  0.00  0.00    +0.000 A 
BRANCH  24  26
ATOM     26  O   UNL     1       8.377   4.022  17.753  0.00  0.00    +0.000 OA
ATOM     27  H   UNL     1       9.044   4.729  17.752  0.00  0.00    +0.000 HD
ENDBRANCH  24  26
ENDBRANCH   5  20
TORSDOF 4
ENDMDL
MODEL 8
REMARK VINA RESULT:      -7.9      1.065      1.366
REMARK  Name = 
REMARK  4 active torsions:
REMARK  status: ('A' for Active; 'I' for Inactive)
REMARK    1  A    between atoms: N_3  and  C_4
REMARK    2  A    between atoms: N_11  and  C_12
REMARK    3  A    between atoms: C_16  and  C_17
REMARK    4  A    between atoms: C_21  and  O_22
REMARK                            x       y       z     vdW  Elec       q    Type
REMARK                         _______ _______ _______ _____ _____    ______ ____
ROOT
ATOM      1  C   UNL     1       6.321   6.404  16.870  0.00  0.00    +0.000 A 
ATOM      2  C   UNL     1       7.051   5.415  16.210  0.00  0.00    +0.000 A 
ATOM      3  C   UNL     1       6.664   4.079  16.278  0.00  0.00    +0.000 A 
ATOM      4  C   UNL     1       5.526   3.722  16.997  0.00  0.00    +0.000 A 
ATOM      5  C   UNL     1       4.731   4.689  17.633  0.00  0.00    +0.000 A 
ATOM      6  C   UNL     1       5.149   6.036  17.548  0.00  0.00    +0.000 A 
ENDROOT
BRANCH   1  10
ATOM      7  O   UNL     1       8.420   7.616  18.453  0.00  0.00    +0.000 OA
ATOM      8  C   UNL     1       7.720   8.285  17.703  0.00  0.00    +0.000 C 
ATOM      9  N   UNL     1       7.813   9.665  17.591  0.00  0.00    +0.000 N 
ATOM     10  N   UNL     1       6.712   7.765  16.907  0.00  0.00    +0.000 N 
ATOM     11  H   UNL     1       7.067  10.139  17.106  0.00  0.00    +0.000 HD
ATOM     12  H   UNL     1       6.117   8.417  16.419  0.00  0.00    +0.000 HD
BRANCH   9  13
ATOM     13  C   UNL     1       8.708  10.481  18.324  0.00  0.00    +0.000 A 
ATOM     14  C   UNL     1       9.157  10.167  19.614  0.00  0.00    +0.000 A 
ATOM     15  C   UNL     1       9.975  11.048  20.324  0.00  0.00    +0.000 A 
ATOM     16  C   UNL     1      10.367  12.246  19.741  0.00  0.00    +0.000 A 
ATOM     17 CL   UNL     1      11.343  13.348  20.629  0.00  0.00    +0.000 Cl
ATOM     18  C   UNL     1       9.967  12.556  18.444  0.00  0.00    +0.000 A 
ATOM     19  C   UNL     1       9.148  11.671  17.732  0.00  0.00    +0.000 A 
ENDBRANCH   9  13
ENDBRANCH   1  10
BRANCH   5  20
ATOM     20  C   UNL     1       3.491   4.306  18.349  0.00  0.00    +0.000 A 
ATOM     21  C   UNL     1       2.302   4.026  17.646  0.00  0.00    +0.000 A 
ATOM     22  C   UNL     1       1.114   3.701  18.311  0.00  0.00    +0.000 A 
ATOM     23  C   UNL     1       1.084   3.659  19.701  0.00  0.00    +0.000 A 
ATOM     24  C   UNL     1       2.248   3.924  20.410  0.00  0.00    +0.000 A 
ATOM     25  C   UNL     1       3.438   4.228  19.752  0.00  0.00    +0.000 A 
BRANCH  24  26
ATOM     26  O   UNL     1       2.267   3.905  21.774  0.00  0.00    +0.000 OA
ATOM     27  H   UNL     1       2.656   3.064  22.065  0.00  0.00    +0.000 HD
ENDBRANCH  24  26
ENDBRANCH   5  20
TORSDOF 4
ENDMDL
MODEL 9
REMARK VINA RESULT:      -7.9      6.698      8.581
REMARK  Name = 
REMARK  4 active torsions:
REMARK  status: ('A' for Active; 'I' for Inactive)
REMARK    1  A    between atoms: N_3  and  C_4
REMARK    2  A    between atoms: N_11  and  C_12
REMARK    3  A    between atoms: C_16  and  C_17
REMARK    4  A    between atoms: C_21  and  O_22
REMARK                            x       y       z     vdW  Elec       q    Type
REMARK                         _______ _______ _______ _____ _____    ______ ____
ROOT
ATOM      1  C   UNL     1       0.813   9.504  19.701  0.00  0.00    +0.000 A 
ATOM      2  C   UNL     1       0.914  10.531  20.641  0.00  0.00    +0.000 A 
ATOM      3  C   UNL     1       0.053  11.625  20.595  0.00  0.00    +0.000 A 
ATOM      4  C   UNL     1      -0.932  11.692  19.613  0.00  0.00    +0.000 A 
ATOM      5  C   UNL     1      -1.104  10.657  18.679  0.00  0.00    +0.000 A 
ATOM      6  C   UNL     1      -0.215   9.561  18.750  0.00  0.00    +0.000 A 
ENDROOT
BRANCH   1  10
ATOM      7  O   UNL     1       2.343   8.562  17.431  0.00  0.00    +0.000 OA
ATOM      8  C   UNL     1       2.404   8.000  18.518  0.00  0.00    +0.000 C 
ATOM      9  N   UNL     1       3.138   6.845  18.747  0.00  0.00    +0.000 N 
ATOM     10  N   UNL     1       1.712   8.410  19.647  0.00  0.00    +0.000 N 
ATOM     11  H   UNL     1       2.964   6.353  19.609  0.00  0.00    +0.000 HD
ATOM     12  H   UNL     1       1.738   7.809  20.455  0.00  0.00    +0.000 HD
BRANCH   9  13
ATOM     13  C   UNL     1       3.899   6.160  17.770  0.00  0.00    +0.000 A 
ATOM     14  C   UNL     1       4.871   6.780  16.975  0.00  0.00    +0.000 A 
ATOM     15  C   UNL     1       5.535   6.075  15.969  0.00  0.00    +0.000 A 
ATOM     16  C   UNL     1       5.242   4.733  15.761  0.00  0.00    +0.000 A 
ATOM     17 CL   UNL     1       6.030   3.874  14.497  0.00  0.00    +0.000 Cl
ATOM     18  C   UNL     1       4.310   4.087  16.569  0.00  0.00    +0.000 A 
ATOM     19  C   UNL     1       3.646   4.796  17.578  0.00  0.00    +0.000 A 
ENDBRANCH   9  13
ENDBRANCH   1  10
BRANCH   5  20
ATOM     20  C   UNL     1      -2.190  10.710  17.672  0.00  0.00    +0.000 A 
ATOM     21  C   UNL     1      -2.127   9.943  16.492  0.00  0.00    +0.000 A 
ATOM     22  C   UNL     1      -3.127  10.012  15.516  0.00  0.00    +0.000 A 
ATOM     23  C   UNL     1      -4.213  10.863  15.691  0.00  0.00    +0.000 A 
ATOM     24  C   UNL     1      -4.296  11.621  16.852  0.00  0.00    +0.000 A 
ATOM     25  C   UNL     1      -3.314  11.539  17.837  0.00  0.00    +0.000 A 
BRANCH  24  26
ATOM     26  O   UNL     1      -5.337  12.477  17.066  0.00  0.00    +0.000 OA
ATOM     27  H   UNL     1      -5.791  12.212  17.883  0.00  0.00    +0.000 HD
ENDBRANCH  24  26
ENDBRANCH   5  20
TORSDOF 4
ENDMDL
