MODEL 1
REMARK VINA RESULT:      -6.7      0.000      0.000
REMARK  Name = 
REMARK  6 active torsions:
REMARK  status: ('A' for Active; 'I' for Inactive)
REMARK    1  A    between atoms: C_1  and  C_2
REMARK    2  A    between atoms: C_2  and  C_3
REMARK    3  A    between atoms: C_2  and  N_11
REMARK    4  A    between atoms: C_3  and  C_4
REMARK    5  A    between atoms: C_4  and  C_5
REMARK    6  A    between atoms: C_12  and  C_14
REMARK                            x       y       z     vdW  Elec       q    Type
REMARK                         _______ _______ _______ _____ _____    ______ ____
ROOT
ATOM      1  C   UNL     1       4.380   6.438  17.820  0.00  0.00    +0.000 C 
ATOM      2  C   UNL     1       5.551   5.469  17.664  0.00  0.00    +0.000 C 
ENDROOT
BRANCH   2   3
ATOM      3  N   UNL     1       5.708   5.147  16.254  0.00  0.00    +0.000 N 
ATOM      4  C   UNL     1       6.885   4.694  15.691  0.00  0.00    +0.000 C 
ATOM      5  O   UNL     1       7.910   4.544  16.350  0.00  0.00    +0.000 OA
ATOM      6  H   UNL     1       4.910   5.243  15.641  0.00  0.00    +0.000 HD
BRANCH   4   7
ATOM      7  C   UNL     1       6.810   4.393  14.265  0.00  0.00    +0.000 A 
ATOM      8  C   UNL     1       5.907   3.554  13.637  0.00  0.00    +0.000 A 
ATOM      9  C   UNL     1       6.097   3.498  12.224  0.00  0.00    +0.000 A 
ATOM     10  C   UNL     1       7.145   4.292  11.817  0.00  0.00    +0.000 A 
ATOM     11  S   UNL     1       7.888   5.094  13.127  0.00  0.00    +0.000 S 
ENDBRANCH   4   7
ENDBRANCH   2   3
BRANCH   2  12
ATOM     12  C   UNL     1       5.311   4.192  18.489  0.00  0.00    +0.000 C 
BRANCH  12  13
ATOM     13  C   UNL     1       4.069   3.420  18.026  0.00  0.00    +0.000 C 
BRANCH  13  14
ATOM     14  C   UNL     1       3.064   3.229  19.138  0.00  0.00    +0.000 A 
ATOM     15  C   UNL     1       1.697   3.431  18.902  0.00  0.00    +0.000 A 
ATOM     16  C   UNL     1       0.764   3.237  19.920  0.00  0.00    +0.000 A 
ATOM     17  C   UNL     1       1.186   2.844  21.188  0.00  0.00    +0.000 A 
ATOM     18  C   UNL     1       2.544   2.650  21.438  0.00  0.00    +0.000 A 
ATOM     19  C   UNL     1       3.479   2.845  20.419  0.00  0.00    +0.000 A 
ENDBRANCH  13  14
ENDBRANCH  12  13
ENDBRANCH   2  12
TORSDOF 5
ENDMDL
MODEL 2
REMARK VINA RESULT:      -6.6      3.202      4.996
REMARK  Name = 
REMARK  6 active torsions:
REMARK  status: ('A' for Active; 'I' for Inactive)
REMARK    1  A    between atoms: C_1  and  C_2
REMARK    2  A    between atoms: C_2  and  C_3
REMARK    3  A    between atoms: C_2  and  N_11
REMARK    4  A    between atoms: C_3  and  C_4
REMARK    5  A    between atoms: C_4  and  C_5
REMARK    6  A    between atoms: C_12  and  C_14
REMARK                            x       y       z     vdW  Elec       q    Type
REMARK                         _______ _______ _______ _____ _____    ______ ____
ROOT
ATOM      1  C   UNL     1       2.374   2.729  21.346  0.00  0.00    +0.000 C 
ATOM      2  C   UNL     1       2.005   3.374  20.011  0.00  0.00    +0.000 C 
ENDROOT
BRANCH   2   3
ATOM      3  N   UNL     1       3.224   3.623  19.258  0.00  0.00    +0.000 N 
ATOM      4  C   UNL     1       3.287   3.659  17.878  0.00  0.00    +0.000 C 
ATOM      5  O   UNL     1       2.302   3.462  17.174  0.00  0.00    +0.000 OA
ATOM      6  H   UNL     1       4.082   3.796  19.764  0.00  0.00    +0.000 HD
BRANCH   4   7
ATOM      7  C   UNL     1       4.604   3.964  17.330  0.00  0.00    +0.000 A 
ATOM      8  C   UNL     1       5.021   3.797  16.021  0.00  0.00    +0.000 A 
ATOM      9  C   UNL     1       6.369   4.216  15.815  0.00  0.00    +0.000 A 
ATOM     10  C   UNL     1       6.944   4.683  16.975  0.00  0.00    +0.000 A 
ATOM     11  S   UNL     1       5.865   4.617  18.296  0.00  0.00    +0.000 S 
ENDBRANCH   4   7
ENDBRANCH   2   3
BRANCH   2  12
ATOM     12  C   UNL     1       1.231   4.685  20.240  0.00  0.00    +0.000 C 
BRANCH  12  13
ATOM     13  C   UNL     1       2.134   5.821  20.736  0.00  0.00    +0.000 C 
BRANCH  13  14
ATOM     14  C   UNL     1       1.974   7.081  19.919  0.00  0.00    +0.000 A 
ATOM     15  C   UNL     1       2.471   7.145  18.609  0.00  0.00    +0.000 A 
ATOM     16  C   UNL     1       2.308   8.299  17.843  0.00  0.00    +0.000 A 
ATOM     17  C   UNL     1       1.653   9.405  18.378  0.00  0.00    +0.000 A 
ATOM     18  C   UNL     1       1.164   9.358  19.683  0.00  0.00    +0.000 A 
ATOM     19  C   UNL     1       1.327   8.203  20.451  0.00  0.00    +0.000 A 
ENDBRANCH  13  14
ENDBRANCH  12  13
ENDBRANCH   2  12
TORSDOF 5
ENDMDL
MODEL 3
REMARK VINA RESULT:      -6.5      1.067      1.676
REMARK  Name = 
REMARK  6 active torsions:
REMARK  status: ('A' for Active; 'I' for Inactive)
REMARK    1  A    between atoms: C_1  and  C_2
REMARK    2  A    between atoms: C_2  and  C_3
REMARK    3  A    between atoms: C_2  and  N_11
REMARK    4  A    between atoms: C_3  and  C_4
REMARK    5  A    between atoms: C_4  and  C_5
REMARK    6  A    between atoms: C_12  and  C_14
REMARK                            x       y       z     vdW  Elec       q    Type
REMARK                         _______ _______ _______ _____ _____    ______ ____
ROOT
ATOM      1  C   UNL     1       6.633   7.008  17.758  0.00  0.00    +0.000 C 
ATOM      2  C   UNL     1       5.666   5.855  17.488  0.00  0.00    +0.000 C 
ENDROOT
BRANCH   2   3
ATOM      3  N   UNL     1       5.800   5.446  16.099  0.00  0.00    +0.000 N 
ATOM      4  C   UNL     1       6.888   4.759  15.596  0.00  0.00    +0.000 C 
ATOM      5  O   UNL     1       7.847   4.451  16.296  0.00  0.00    +0.000 OA
ATOM      6  H   UNL     1       5.052   5.661  15.454  0.00  0.00    +0.000 HD
BRANCH   4   7
ATOM      7  C   UNL     1       6.798   4.414  14.181  0.00  0.00    +0.000 A 
ATOM      8  C   UNL     1       5.865   3.585  13.583  0.00  0.00    +0.000 A 
ATOM      9  C   UNL     1       6.049   3.476  12.172  0.00  0.00    +0.000 A 
ATOM     10  C   UNL     1       7.121   4.221  11.736  0.00  0.00    +0.000 A 
ATOM     11  S   UNL     1       7.894   5.041  13.018  0.00  0.00    +0.000 S 
ENDBRANCH   4   7
ENDBRANCH   2   3
BRANCH   2  12
ATOM     12  C   UNL     1       4.219   6.280  17.791  0.00  0.00    +0.000 C 
BRANCH  12  13
ATOM     13  C   UNL     1       3.818   6.000  19.245  0.00  0.00    +0.000 C 
BRANCH  13  14
ATOM     14  C   UNL     1       2.757   4.930  19.352  0.00  0.00    +0.000 A 
ATOM     15  C   UNL     1       2.138   4.665  20.582  0.00  0.00    +0.000 A 
ATOM     16  C   UNL     1       1.144   3.692  20.682  0.00  0.00    +0.000 A 
ATOM     17  C   UNL     1       0.761   2.967  19.556  0.00  0.00    +0.000 A 
ATOM     18  C   UNL     1       1.377   3.214  18.330  0.00  0.00    +0.000 A 
ATOM     19  C   UNL     1       2.373   4.188  18.229  0.00  0.00    +0.000 A 
ENDBRANCH  13  14
ENDBRANCH  12  13
ENDBRANCH   2  12
TORSDOF 5
ENDMDL
MODEL 4
REMARK VINA RESULT:      -6.5      0.987      1.331
REMARK  Name = 
REMARK  6 active torsions:
REMARK  status: ('A' for Active; 'I' for Inactive)
REMARK    1  A    between atoms: C_1  and  C_2
REMARK    2  A    between atoms: C_2  and  C_3
REMARK    3  A    between atoms: C_2  and  N_11
REMARK    4  A    between atoms: C_3  and  C_4
REMARK    5  A    between atoms: C_4  and  C_5
REMARK    6  A    between atoms: C_12  and  C_14
REMARK                            x       y       z     vdW  Elec       q    Type
REMARK                         _______ _______ _______ _____ _____    ______ ____
ROOT
ATOM      1  C   UNL     1       4.369   6.694  17.494  0.00  0.00    +0.000 C 
ATOM      2  C   UNL     1       5.506   5.673  17.472  0.00  0.00    +0.000 C 
ENDROOT
BRANCH   2   3
ATOM      3  N   UNL     1       5.597   5.101  16.138  0.00  0.00    +0.000 N 
ATOM      4  C   UNL     1       6.662   5.302  15.282  0.00  0.00    +0.000 C 
ATOM      5  O   UNL     1       7.620   6.005  15.585  0.00  0.00    +0.000 OA
ATOM      6  H   UNL     1       4.847   4.507  15.811  0.00  0.00    +0.000 HD
BRANCH   4   7
ATOM      7  C   UNL     1       6.566   4.601  14.005  0.00  0.00    +0.000 A 
ATOM      8  C   UNL     1       5.583   3.709  13.616  0.00  0.00    +0.000 A 
ATOM      9  C   UNL     1       5.777   3.218  12.291  0.00  0.00    +0.000 A 
ATOM     10  C   UNL     1       6.908   3.745  11.710  0.00  0.00    +0.000 A 
ATOM     11  S   UNL     1       7.723   4.820  12.756  0.00  0.00    +0.000 S 
ENDBRANCH   4   7
ENDBRANCH   2   3
BRANCH   2  12
ATOM     12  C   UNL     1       5.265   4.572  18.520  0.00  0.00    +0.000 C 
BRANCH  12  13
ATOM     13  C   UNL     1       4.215   4.974  19.563  0.00  0.00    +0.000 C 
BRANCH  13  14
ATOM     14  C   UNL     1       2.967   4.127  19.478  0.00  0.00    +0.000 A 
ATOM     15  C   UNL     1       1.906   4.335  20.371  0.00  0.00    +0.000 A 
ATOM     16  C   UNL     1       0.743   3.569  20.284  0.00  0.00    +0.000 A 
ATOM     17  C   UNL     1       0.630   2.582  19.308  0.00  0.00    +0.000 A 
ATOM     18  C   UNL     1       1.682   2.358  18.421  0.00  0.00    +0.000 A 
ATOM     19  C   UNL     1       2.847   3.125  18.508  0.00  0.00    +0.000 A 
ENDBRANCH  13  14
ENDBRANCH  12  13
ENDBRANCH   2  12
TORSDOF 5
ENDMDL
MODEL 5
REMARK VINA RESULT:      -6.5      0.908      1.301
REMARK  Name = 
REMARK  6 active torsions:
REMARK  status: ('A' for Active; 'I' for Inactive)
REMARK    1  A    between atoms: C_1  and  C_2
REMARK    2  A    between atoms: C_2  and  C_3
REMARK    3  A    between atoms: C_2  and  N_11
REMARK    4  A    between atoms: C_3  and  C_4
REMARK    5  A    between atoms: C_4  and  C_5
REMARK    6  A    between atoms: C_12  and  C_14
REMARK                            x       y       z     vdW  Elec       q    Type
REMARK                         _______ _______ _______ _____ _____    ______ ____
ROOT
ATOM      1  C   UNL     1       4.237   7.482  17.079  0.00  0.00    +0.000 C 
ATOM      2  C   UNL     1       5.228   6.325  17.214  0.00  0.00    +0.000 C 
ENDROOT
BRANCH   2   3
ATOM      3  N   UNL     1       5.497   5.782  15.892  0.00  0.00    +0.000 N 
ATOM      4  C   UNL     1       6.645   5.091  15.559  0.00  0.00    +0.000 C 
ATOM      5  O   UNL     1       7.547   4.895  16.367  0.00  0.00    +0.000 OA
ATOM      6  H   UNL     1       4.802   5.900  15.167  0.00  0.00    +0.000 HD
BRANCH   4   7
ATOM      7  C   UNL     1       6.692   4.599  14.186  0.00  0.00    +0.000 A 
ATOM      8  C   UNL     1       5.860   3.655  13.610  0.00  0.00    +0.000 A 
ATOM      9  C   UNL     1       6.165   3.417  12.237  0.00  0.00    +0.000 A 
ATOM     10  C   UNL     1       7.226   4.181  11.807  0.00  0.00    +0.000 A 
ATOM     11  S   UNL     1       7.844   5.175  13.050  0.00  0.00    +0.000 S 
ENDBRANCH   4   7
ENDBRANCH   2   3
BRANCH   2  12
ATOM     12  C   UNL     1       4.664   5.236  18.143  0.00  0.00    +0.000 C 
BRANCH  12  13
ATOM     13  C   UNL     1       3.228   4.837  17.777  0.00  0.00    +0.000 C 
BRANCH  13  14
ATOM     14  C   UNL     1       2.508   4.166  18.923  0.00  0.00    +0.000 A 
ATOM     15  C   UNL     1       2.786   4.533  20.247  0.00  0.00    +0.000 A 
ATOM     16  C   UNL     1       2.110   3.931  21.308  0.00  0.00    +0.000 A 
ATOM     17  C   UNL     1       1.153   2.951  21.059  0.00  0.00    +0.000 A 
ATOM     18  C   UNL     1       0.874   2.570  19.747  0.00  0.00    +0.000 A 
ATOM     19  C   UNL     1       1.552   3.172  18.684  0.00  0.00    +0.000 A 
ENDBRANCH  13  14
ENDBRANCH  12  13
ENDBRANCH   2  12
TORSDOF 5
ENDMDL
MODEL 6
REMARK VINA RESULT:      -6.4      2.964      4.163
REMARK  Name = 
REMARK  6 active torsions:
REMARK  status: ('A' for Active; 'I' for Inactive)
REMARK    1  A    between atoms: C_1  and  C_2
REMARK    2  A    between atoms: C_2  and  C_3
REMARK    3  A    between atoms: C_2  and  N_11
REMARK    4  A    between atoms: C_3  and  C_4
REMARK    5  A    between atoms: C_4  and  C_5
REMARK    6  A    between atoms: C_12  and  C_14
REMARK                            x       y       z     vdW  Elec       q    Type
REMARK                         _______ _______ _______ _____ _____    ______ ____
ROOT
ATOM      1  C   UNL     1       3.727   1.654  19.067  0.00  0.00    +0.000 C 
ATOM      2  C   UNL     1       3.885   2.436  17.762  0.00  0.00    +0.000 C 
ENDROOT
BRANCH   2   3
ATOM      3  N   UNL     1       4.855   3.499  17.968  0.00  0.00    +0.000 N 
ATOM      4  C   UNL     1       5.361   4.291  16.955  0.00  0.00    +0.000 C 
ATOM      5  O   UNL     1       5.034   4.140  15.782  0.00  0.00    +0.000 OA
ATOM      6  H   UNL     1       5.177   3.690  18.907  0.00  0.00    +0.000 HD
BRANCH   4   7
ATOM      7  C   UNL     1       6.294   5.325  17.390  0.00  0.00    +0.000 A 
ATOM      8  C   UNL     1       6.691   6.443  16.677  0.00  0.00    +0.000 A 
ATOM      9  C   UNL     1       7.602   7.265  17.404  0.00  0.00    +0.000 A 
ATOM     10  C   UNL     1       7.879   6.747  18.649  0.00  0.00    +0.000 A 
ATOM     11  S   UNL     1       7.047   5.284  18.933  0.00  0.00    +0.000 S 
ENDBRANCH   4   7
ENDBRANCH   2   3
BRANCH   2  12
ATOM     12  C   UNL     1       2.533   3.015  17.311  0.00  0.00    +0.000 C 
BRANCH  12  13
ATOM     13  C   UNL     1       1.624   3.373  18.494  0.00  0.00    +0.000 C 
BRANCH  13  14
ATOM     14  C   UNL     1       1.828   4.794  18.965  0.00  0.00    +0.000 A 
ATOM     15  C   UNL     1       2.287   5.777  18.077  0.00  0.00    +0.000 A 
ATOM     16  C   UNL     1       2.459   7.094  18.502  0.00  0.00    +0.000 A 
ATOM     17  C   UNL     1       2.179   7.444  19.820  0.00  0.00    +0.000 A 
ATOM     18  C   UNL     1       1.732   6.474  20.716  0.00  0.00    +0.000 A 
ATOM     19  C   UNL     1       1.561   5.154  20.292  0.00  0.00    +0.000 A 
ENDBRANCH  13  14
ENDBRANCH  12  13
ENDBRANCH   2  12
TORSDOF 5
ENDMDL
MODEL 7
REMARK VINA RESULT:      -6.3      2.909      7.399
REMARK  Name = 
REMARK  6 active torsions:
REMARK  status: ('A' for Active; 'I' for Inactive)
REMARK    1  A    between atoms: C_1  and  C_2
REMARK    2  A    between atoms: C_2  and  C_3
REMARK    3  A    between atoms: C_2  and  N_11
REMARK    4  A    between atoms: C_3  and  C_4
REMARK    5  A    between atoms: C_4  and  C_5
REMARK    6  A    between atoms: C_12  and  C_14
REMARK                            x       y       z     vdW  Elec       q    Type
REMARK                         _______ _______ _______ _____ _____    ______ ____
ROOT
ATOM      1  C   UNL     1       4.917   6.942  17.366  0.00  0.00    +0.000 C 
ATOM      2  C   UNL     1       4.612   5.475  17.063  0.00  0.00    +0.000 C 
ENDROOT
BRANCH   2   3
ATOM      3  N   UNL     1       4.017   4.866  18.242  0.00  0.00    +0.000 N 
ATOM      4  C   UNL     1       2.980   3.955  18.201  0.00  0.00    +0.000 C 
ATOM      5  O   UNL     1       2.464   3.598  17.147  0.00  0.00    +0.000 OA
ATOM      6  H   UNL     1       4.386   5.107  19.152  0.00  0.00    +0.000 HD
BRANCH   4   7
ATOM      7  C   UNL     1       2.563   3.439  19.502  0.00  0.00    +0.000 A 
ATOM      8  C   UNL     1       3.346   2.764  20.421  0.00  0.00    +0.000 A 
ATOM      9  C   UNL     1       2.630   2.416  21.604  0.00  0.00    +0.000 A 
ATOM     10  C   UNL     1       1.318   2.829  21.550  0.00  0.00    +0.000 A 
ATOM     11  S   UNL     1       0.959   3.629  20.085  0.00  0.00    +0.000 S 
ENDBRANCH   4   7
ENDBRANCH   2   3
BRANCH   2  12
ATOM     12  C   UNL     1       5.895   4.730  16.655  0.00  0.00    +0.000 C 
BRANCH  12  13
ATOM     13  C   UNL     1       5.638   3.662  15.584  0.00  0.00    +0.000 C 
BRANCH  13  14
ATOM     14  C   UNL     1       6.289   4.006  14.264  0.00  0.00    +0.000 A 
ATOM     15  C   UNL     1       5.951   3.299  13.101  0.00  0.00    +0.000 A 
ATOM     16  C   UNL     1       6.534   3.626  11.877  0.00  0.00    +0.000 A 
ATOM     17  C   UNL     1       7.466   4.657  11.801  0.00  0.00    +0.000 A 
ATOM     18  C   UNL     1       7.818   5.361  12.952  0.00  0.00    +0.000 A 
ATOM     19  C   UNL     1       7.236   5.034  14.179  0.00  0.00    +0.000 A 
ENDBRANCH  13  14
ENDBRANCH  12  13
ENDBRANCH   2  12
TORSDOF 5
ENDMDL
MODEL 8
REMARK VINA RESULT:      -6.3      1.086      1.278
REMARK  Name = 
REMARK  6 active torsions:
REMARK  status: ('A' for Active; 'I' for Inactive)
REMARK    1  A    between atoms: C_1  and  C_2
REMARK    2  A    between atoms: C_2  and  C_3
REMARK    3  A    between atoms: C_2  and  N_11
REMARK    4  A    between atoms: C_3  and  C_4
REMARK    5  A    between atoms: C_4  and  C_5
REMARK    6  A    between atoms: C_12  and  C_14
REMARK                            x       y       z     vdW  Elec       q    Type
REMARK                         _______ _______ _______ _____ _____    ______ ____
ROOT
ATOM      1  C   UNL     1       4.356   7.023  17.367  0.00  0.00    +0.000 C 
ATOM      2  C   UNL     1       5.474   5.981  17.336  0.00  0.00    +0.000 C 
ENDROOT
BRANCH   2   3
ATOM      3  N   UNL     1       5.763   5.644  15.952  0.00  0.00    +0.000 N 
ATOM      4  C   UNL     1       6.901   4.980  15.539  0.00  0.00    +0.000 C 
ATOM      5  O   UNL     1       7.777   4.633  16.325  0.00  0.00    +0.000 OA
ATOM      6  H   UNL     1       5.090   5.894  15.239  0.00  0.00    +0.000 HD
BRANCH   4   7
ATOM      7  C   UNL     1       6.970   4.708  14.106  0.00  0.00    +0.000 A 
ATOM      8  C   UNL     1       7.790   5.327  13.179  0.00  0.00    +0.000 A 
ATOM      9  C   UNL     1       7.621   4.809  11.861  0.00  0.00    +0.000 A 
ATOM     10  C   UNL     1       6.672   3.813  11.820  0.00  0.00    +0.000 A 
ATOM     11  S   UNL     1       5.994   3.510  13.357  0.00  0.00    +0.000 S 
ENDBRANCH   4   7
ENDBRANCH   2   3
BRANCH   2  12
ATOM     12  C   UNL     1       5.064   4.725  18.126  0.00  0.00    +0.000 C 
BRANCH  12  13
ATOM     13  C   UNL     1       3.819   4.045  17.542  0.00  0.00    +0.000 C 
BRANCH  13  14
ATOM     14  C   UNL     1       2.764   3.783  18.591  0.00  0.00    +0.000 A 
ATOM     15  C   UNL     1       1.698   2.911  18.324  0.00  0.00    +0.000 A 
ATOM     16  C   UNL     1       0.732   2.651  19.295  0.00  0.00    +0.000 A 
ATOM     17  C   UNL     1       0.815   3.263  20.543  0.00  0.00    +0.000 A 
ATOM     18  C   UNL     1       1.864   4.139  20.818  0.00  0.00    +0.000 A 
ATOM     19  C   UNL     1       2.832   4.401  19.845  0.00  0.00    +0.000 A 
ENDBRANCH  13  14
ENDBRANCH  12  13
ENDBRANCH   2  12
TORSDOF 5
ENDMDL
MODEL 9
REMARK VINA RESULT:      -6.3      1.178      1.268
REMARK  Name = 
REMARK  6 active torsions:
REMARK  status: ('A' for Active; 'I' for Inactive)
REMARK    1  A    between atoms: C_1  and  C_2
REMARK    2  A    between atoms: C_2  and  C_3
REMARK    3  A    between atoms: C_2  and  N_11
REMARK    4  A    between atoms: C_3  and  C_4
REMARK    5  A    between atoms: C_4  and  C_5
REMARK    6  A    between atoms: C_12  and  C_14
REMARK                            x       y       z     vdW  Elec       q    Type
REMARK                         _______ _______ _______ _____ _____    ______ ____
ROOT
ATOM      1  C   UNL     1       5.529   7.786  17.349  0.00  0.00    +0.000 C 
ATOM      2  C   UNL     1       5.946   6.317  17.409  0.00  0.00    +0.000 C 
ENDROOT
BRANCH   2   3
ATOM      3  N   UNL     1       6.006   5.790  16.055  0.00  0.00    +0.000 N 
ATOM      4  C   UNL     1       6.970   4.907  15.611  0.00  0.00    +0.000 C 
ATOM      5  O   UNL     1       7.875   4.508  16.337  0.00  0.00    +0.000 OA
ATOM      6  H   UNL     1       5.295   6.069  15.393  0.00  0.00    +0.000 HD
BRANCH   4   7
ATOM      7  C   UNL     1       6.818   4.475  14.225  0.00  0.00    +0.000 A 
ATOM      8  C   UNL     1       5.863   3.610  13.722  0.00  0.00    +0.000 A 
ATOM      9  C   UNL     1       5.984   3.415  12.314  0.00  0.00    +0.000 A 
ATOM     10  C   UNL     1       7.033   4.132  11.785  0.00  0.00    +0.000 A 
ATOM     11  S   UNL     1       7.860   5.030  12.978  0.00  0.00    +0.000 S 
ENDBRANCH   4   7
ENDBRANCH   2   3
BRANCH   2  12
ATOM     12  C   UNL     1       4.953   5.508  18.263  0.00  0.00    +0.000 C 
BRANCH  12  13
ATOM     13  C   UNL     1       3.622   5.263  17.542  0.00  0.00    +0.000 C 
BRANCH  13  14
ATOM     14  C   UNL     1       2.611   4.568  18.423  0.00  0.00    +0.000 A 
ATOM     15  C   UNL     1       1.915   3.444  17.955  0.00  0.00    +0.000 A 
ATOM     16  C   UNL     1       0.995   2.787  18.772  0.00  0.00    +0.000 A 
ATOM     17  C   UNL     1       0.754   3.250  20.063  0.00  0.00    +0.000 A 
ATOM     18  C   UNL     1       1.432   4.372  20.537  0.00  0.00    +0.000 A 
ATOM     19  C   UNL     1       2.353   5.031  19.719  0.00  0.00    +0.000 A 
ENDBRANCH  13  14
ENDBRANCH  12  13
ENDBRANCH   2  12
TORSDOF 5
ENDMDL
