MODEL 1
REMARK VINA RESULT:      -8.5      0.000      0.000
REMARK  Name = 
REMARK  8 active torsions:
REMARK  status: ('A' for Active; 'I' for Inactive)
REMARK    1  A    between atoms: C_1  and  C_2
REMARK    2  A    between atoms: C_2  and  N_3
REMARK    3  A    between atoms: N_3  and  C_4
REMARK    4  A    between atoms: C_4  and  C_5
REMARK    5  A    between atoms: C_14  and  C_16
REMARK    6  A    between atoms: C_17  and  C_18
REMARK    7  A    between atoms: C_19  and  C_20
REMARK    8  A    between atoms: C_24  and  C_25
REMARK                            x       y       z     vdW  Elec       q    Type
REMARK                         _______ _______ _______ _____ _____    ______ ____
ROOT
ATOM      1  N   UNL     1       2.090   4.533  19.497  0.00  0.00    +0.000 N 
ATOM      2  C   UNL     1       2.199   4.069  18.180  0.00  0.00    +0.000 C 
ATOM      3  O   UNL     1       1.442   3.237  17.686  0.00  0.00    +0.000 OA
ENDROOT
BRANCH   1   5
ATOM      4  C   UNL     1       1.348   2.828  21.333  0.00  0.00    +0.000 C 
ATOM      5  C   UNL     1       1.055   4.015  20.426  0.00  0.00    +0.000 C 
ENDBRANCH   1   5
BRANCH   2   6
ATOM      6  C   UNL     1       3.322   4.578  17.332  0.00  0.00    +0.000 C 
ATOM      7  C   UNL     1       4.566   4.069  17.449  0.00  0.00    +0.000 C 
BRANCH   7   8
ATOM      8  C   UNL     1       5.666   4.644  16.746  0.00  0.00    +0.000 A 
ATOM      9  C   UNL     1       6.731   5.473  17.117  0.00  0.00    +0.000 A 
ATOM     10  C   UNL     1       7.100   6.049  18.437  0.00  0.00    +0.000 C 
ATOM     11  N   UNL     1       7.577   5.745  16.059  0.00  0.00    +0.000 NA
ATOM     12  C   UNL     1       7.058   5.065  15.081  0.00  0.00    +0.000 A 
ATOM     13  S   UNL     1       7.529   4.837  13.435  0.00  0.00    +0.000 S 
ATOM     14  C   UNL     1       6.124   3.769  13.220  0.00  0.00    +0.000 A 
ATOM     15  C   UNL     1       5.881   3.164  11.875  0.00  0.00    +0.000 C 
ATOM     16  C   UNL     1       5.397   3.637  14.353  0.00  0.00    +0.000 A 
ATOM     17  N   UNL     1       5.927   4.370  15.408  0.00  0.00    +0.000 N 
ENDBRANCH   7   8
ENDBRANCH   2   6
BRANCH   1  18
ATOM     18  C   UNL     1       2.812   5.702  20.031  0.00  0.00    +0.000 C 
BRANCH  18  19
ATOM     19  C   UNL     1       2.142   7.065  19.969  0.00  0.00    +0.000 A 
ATOM     20  C   UNL     1       1.436   7.489  21.128  0.00  0.00    +0.000 A 
ATOM     21  C   UNL     1       0.722   8.692  21.165  0.00  0.00    +0.000 A 
ATOM     22  C   UNL     1       0.759   9.482  20.043  0.00  0.00    +0.000 A 
ATOM     23  C   UNL     1       1.494   9.128  18.936  0.00  0.00    +0.000 A 
ATOM     24  C   UNL     1       2.198   7.934  18.867  0.00  0.00    +0.000 A 
ATOM     25  O   UNL     1       1.423  10.074  17.958  0.00  0.00    +0.000 OA
ATOM     26  C   UNL     1       0.581  11.066  18.589  0.00  0.00    +0.000 C 
ATOM     27  O   UNL     1       0.108  10.667  19.890  0.00  0.00    +0.000 OA
ENDBRANCH  18  19
ENDBRANCH   1  18
TORSDOF 5
ENDMDL
MODEL 2
REMARK VINA RESULT:      -8.4      0.942      1.484
REMARK  Name = 
REMARK  8 active torsions:
REMARK  status: ('A' for Active; 'I' for Inactive)
REMARK    1  A    between atoms: C_1  and  C_2
REMARK    2  A    between atoms: C_2  and  N_3
REMARK    3  A    between atoms: N_3  and  C_4
REMARK    4  A    between atoms: C_4  and  C_5
REMARK    5  A    between atoms: C_14  and  C_16
REMARK    6  A    between atoms: C_17  and  C_18
REMARK    7  A    between atoms: C_19  and  C_20
REMARK    8  A    between atoms: C_24  and  C_25
REMARK                            x       y       z     vdW  Elec       q    Type
REMARK                         _______ _______ _______ _____ _____    ______ ____
ROOT
ATOM      1  N   UNL     1       2.550   4.168  19.194  0.00  0.00    +0.000 N 
ATOM      2  C   UNL     1       2.859   3.424  18.049  0.00  0.00    +0.000 C 
ATOM      3  O   UNL     1       2.135   2.542  17.593  0.00  0.00    +0.000 OA
ENDROOT
BRANCH   1   5
ATOM      4  C   UNL     1       1.315   2.906  21.121  0.00  0.00    +0.000 C 
ATOM      5  C   UNL     1       1.318   3.917  19.982  0.00  0.00    +0.000 C 
ENDBRANCH   1   5
BRANCH   2   6
ATOM      6  C   UNL     1       4.161   3.680  17.358  0.00  0.00    +0.000 C 
ATOM      7  C   UNL     1       4.376   4.830  16.685  0.00  0.00    +0.000 C 
BRANCH   7   8
ATOM      8  C   UNL     1       5.558   5.020  15.910  0.00  0.00    +0.000 A 
ATOM      9  C   UNL     1       6.781   5.661  16.142  0.00  0.00    +0.000 A 
ATOM     10  C   UNL     1       7.287   6.382  17.340  0.00  0.00    +0.000 C 
ATOM     11  N   UNL     1       7.644   5.549  15.069  0.00  0.00    +0.000 NA
ATOM     12  C   UNL     1       6.975   4.824  14.224  0.00  0.00    +0.000 A 
ATOM     13  S   UNL     1       7.354   4.202  12.658  0.00  0.00    +0.000 S 
ATOM     14  C   UNL     1       5.754   3.431  12.617  0.00  0.00    +0.000 A 
ATOM     15  C   UNL     1       5.362   2.651  11.402  0.00  0.00    +0.000 C 
ATOM     16  C   UNL     1       5.037   3.667  13.740  0.00  0.00    +0.000 A 
ATOM     17  N   UNL     1       5.730   4.455  14.651  0.00  0.00    +0.000 N 
ENDBRANCH   7   8
ENDBRANCH   2   6
BRANCH   1  18
ATOM     18  C   UNL     1       3.264   5.389  19.613  0.00  0.00    +0.000 C 
BRANCH  18  19
ATOM     19  C   UNL     1       2.560   6.729  19.478  0.00  0.00    +0.000 A 
ATOM     20  C   UNL     1       2.590   7.346  18.196  0.00  0.00    +0.000 A 
ATOM     21  C   UNL     1       2.038   8.611  17.967  0.00  0.00    +0.000 A 
ATOM     22  C   UNL     1       1.419   9.230  19.026  0.00  0.00    +0.000 A 
ATOM     23  C   UNL     1       1.313   8.622  20.254  0.00  0.00    +0.000 A 
ATOM     24  C   UNL     1       1.865   7.376  20.513  0.00  0.00    +0.000 A 
ATOM     25  O   UNL     1       0.626   9.394  21.143  0.00  0.00    +0.000 OA
ATOM     26  C   UNL     1       0.298  10.539  20.323  0.00  0.00    +0.000 C 
ATOM     27  O   UNL     1       0.851  10.465  18.995  0.00  0.00    +0.000 OA
ENDBRANCH  18  19
ENDBRANCH   1  18
TORSDOF 5
ENDMDL
MODEL 3
REMARK VINA RESULT:      -8.0      1.376      1.688
REMARK  Name = 
REMARK  8 active torsions:
REMARK  status: ('A' for Active; 'I' for Inactive)
REMARK    1  A    between atoms: C_1  and  C_2
REMARK    2  A    between atoms: C_2  and  N_3
REMARK    3  A    between atoms: N_3  and  C_4
REMARK    4  A    between atoms: C_4  and  C_5
REMARK    5  A    between atoms: C_14  and  C_16
REMARK    6  A    between atoms: C_17  and  C_18
REMARK    7  A    between atoms: C_19  and  C_20
REMARK    8  A    between atoms: C_24  and  C_25
REMARK                            x       y       z     vdW  Elec       q    Type
REMARK                         _______ _______ _______ _____ _____    ______ ____
ROOT
ATOM      1  N   UNL     1       2.969   3.208  19.654  0.00  0.00    +0.000 N 
ATOM      2  C   UNL     1       4.353   3.000  19.690  0.00  0.00    +0.000 C 
ATOM      3  O   UNL     1       4.898   2.163  20.406  0.00  0.00    +0.000 OA
ENDROOT
BRANCH   1   5
ATOM      4  C   UNL     1       1.709   2.933  21.927  0.00  0.00    +0.000 C 
ATOM      5  C   UNL     1       2.040   2.444  20.523  0.00  0.00    +0.000 C 
ENDBRANCH   1   5
BRANCH   2   6
ATOM      6  C   UNL     1       5.231   3.868  18.845  0.00  0.00    +0.000 C 
ATOM      7  C   UNL     1       5.063   3.931  17.507  0.00  0.00    +0.000 C 
BRANCH   7   8
ATOM      8  C   UNL     1       5.982   4.646  16.682  0.00  0.00    +0.000 A 
ATOM      9  C   UNL     1       6.930   5.647  16.924  0.00  0.00    +0.000 A 
ATOM     10  C   UNL     1       7.327   6.325  18.186  0.00  0.00    +0.000 C 
ATOM     11  N   UNL     1       7.613   6.009  15.779  0.00  0.00    +0.000 NA
ATOM     12  C   UNL     1       7.119   5.218  14.874  0.00  0.00    +0.000 A 
ATOM     13  S   UNL     1       7.457   5.005  13.194  0.00  0.00    +0.000 S 
ATOM     14  C   UNL     1       6.229   3.721  13.149  0.00  0.00    +0.000 A 
ATOM     15  C   UNL     1       5.957   3.032  11.849  0.00  0.00    +0.000 C 
ATOM     16  C   UNL     1       5.647   3.518  14.352  0.00  0.00    +0.000 A 
ATOM     17  N   UNL     1       6.152   4.366  15.331  0.00  0.00    +0.000 N 
ENDBRANCH   7   8
ENDBRANCH   2   6
BRANCH   1  18
ATOM     18  C   UNL     1       2.274   4.014  18.633  0.00  0.00    +0.000 C 
BRANCH  18  19
ATOM     19  C   UNL     1       2.164   5.515  18.838  0.00  0.00    +0.000 A 
ATOM     20  C   UNL     1       1.930   5.968  20.166  0.00  0.00    +0.000 A 
ATOM     21  C   UNL     1       1.742   7.322  20.468  0.00  0.00    +0.000 A 
ATOM     22  C   UNL     1       1.832   8.217  19.431  0.00  0.00    +0.000 A 
ATOM     23  C   UNL     1       2.129   7.811  18.151  0.00  0.00    +0.000 A 
ATOM     24  C   UNL     1       2.305   6.474  17.822  0.00  0.00    +0.000 A 
ATOM     25  O   UNL     1       2.211   8.866  17.292  0.00  0.00    +0.000 OA
ATOM     26  C   UNL     1       1.954   9.973  18.184  0.00  0.00    +0.000 C 
ATOM     27  O   UNL     1       1.654   9.562  19.532  0.00  0.00    +0.000 OA
ENDBRANCH  18  19
ENDBRANCH   1  18
TORSDOF 5
ENDMDL
MODEL 4
REMARK VINA RESULT:      -8.0      3.592      7.698
REMARK  Name = 
REMARK  8 active torsions:
REMARK  status: ('A' for Active; 'I' for Inactive)
REMARK    1  A    between atoms: C_1  and  C_2
REMARK    2  A    between atoms: C_2  and  N_3
REMARK    3  A    between atoms: N_3  and  C_4
REMARK    4  A    between atoms: C_4  and  C_5
REMARK    5  A    between atoms: C_14  and  C_16
REMARK    6  A    between atoms: C_17  and  C_18
REMARK    7  A    between atoms: C_19  and  C_20
REMARK    8  A    between atoms: C_24  and  C_25
REMARK                            x       y       z     vdW  Elec       q    Type
REMARK                         _______ _______ _______ _____ _____    ______ ____
ROOT
ATOM      1  N   UNL     1       3.497   3.815  19.584  0.00  0.00    +0.000 N 
ATOM      2  C   UNL     1       2.212   4.369  19.534  0.00  0.00    +0.000 C 
ATOM      3  O   UNL     1       1.185   3.729  19.748  0.00  0.00    +0.000 OA
ENDROOT
BRANCH   1   5
ATOM      4  C   UNL     1       3.634   1.342  18.751  0.00  0.00    +0.000 C 
ATOM      5  C   UNL     1       3.718   2.375  19.866  0.00  0.00    +0.000 C 
ENDBRANCH   1   5
BRANCH   2   6
ATOM      6  C   UNL     1       2.067   5.811  19.161  0.00  0.00    +0.000 C 
ATOM      7  C   UNL     1       1.965   6.766  20.108  0.00  0.00    +0.000 C 
BRANCH   7   8
ATOM      8  C   UNL     1       1.687   8.122  19.760  0.00  0.00    +0.000 A 
ATOM      9  C   UNL     1       1.968   8.915  18.642  0.00  0.00    +0.000 A 
ATOM     10  C   UNL     1       2.671   8.592  17.372  0.00  0.00    +0.000 C 
ATOM     11  N   UNL     1       1.455  10.193  18.764  0.00  0.00    +0.000 NA
ATOM     12  C   UNL     1       0.845  10.160  19.911  0.00  0.00    +0.000 A 
ATOM     13  S   UNL     1      -0.078  11.333  20.779  0.00  0.00    +0.000 S 
ATOM     14  C   UNL     1      -0.342  10.126  22.056  0.00  0.00    +0.000 A 
ATOM     15  C   UNL     1      -1.138  10.516  23.260  0.00  0.00    +0.000 C 
ATOM     16  C   UNL     1       0.251   8.942  21.780  0.00  0.00    +0.000 A 
ATOM     17  N   UNL     1       0.923   8.961  20.563  0.00  0.00    +0.000 N 
ENDBRANCH   7   8
ENDBRANCH   2   6
BRANCH   1  18
ATOM     18  C   UNL     1       4.745   4.601  19.586  0.00  0.00    +0.000 C 
BRANCH  18  19
ATOM     19  C   UNL     1       5.492   4.788  18.277  0.00  0.00    +0.000 A 
ATOM     20  C   UNL     1       6.598   5.683  18.288  0.00  0.00    +0.000 A 
ATOM     21  C   UNL     1       7.319   5.989  17.129  0.00  0.00    +0.000 A 
ATOM     22  C   UNL     1       6.946   5.356  15.969  0.00  0.00    +0.000 A 
ATOM     23  C   UNL     1       5.928   4.431  15.947  0.00  0.00    +0.000 A 
ATOM     24  C   UNL     1       5.186   4.122  17.079  0.00  0.00    +0.000 A 
ATOM     25  O   UNL     1       5.756   3.898  14.705  0.00  0.00    +0.000 OA
ATOM     26  C   UNL     1       6.794   4.576  13.963  0.00  0.00    +0.000 C 
ATOM     27  O   UNL     1       7.514   5.547  14.748  0.00  0.00    +0.000 OA
ENDBRANCH  18  19
ENDBRANCH   1  18
TORSDOF 5
ENDMDL
MODEL 5
REMARK VINA RESULT:      -7.8      4.161      6.743
REMARK  Name = 
REMARK  8 active torsions:
REMARK  status: ('A' for Active; 'I' for Inactive)
REMARK    1  A    between atoms: C_1  and  C_2
REMARK    2  A    between atoms: C_2  and  N_3
REMARK    3  A    between atoms: N_3  and  C_4
REMARK    4  A    between atoms: C_4  and  C_5
REMARK    5  A    between atoms: C_14  and  C_16
REMARK    6  A    between atoms: C_17  and  C_18
REMARK    7  A    between atoms: C_19  and  C_20
REMARK    8  A    between atoms: C_24  and  C_25
REMARK                            x       y       z     vdW  Elec       q    Type
REMARK                         _______ _______ _______ _____ _____    ______ ____
ROOT
ATOM      1  N   UNL     1      -0.271  11.041  21.491  0.00  0.00    +0.000 N 
ATOM      2  C   UNL     1      -0.224   9.689  21.850  0.00  0.00    +0.000 C 
ATOM      3  O   UNL     1      -0.517   9.269  22.966  0.00  0.00    +0.000 OA
ENDROOT
BRANCH   1   5
ATOM      4  C   UNL     1      -2.085  12.220  22.957  0.00  0.00    +0.000 C 
ATOM      5  C   UNL     1      -0.650  12.096  22.464  0.00  0.00    +0.000 C 
ENDBRANCH   1   5
BRANCH   2   6
ATOM      6  C   UNL     1       0.249   8.695  20.836  0.00  0.00    +0.000 C 
ATOM      7  C   UNL     1       1.451   8.095  20.960  0.00  0.00    +0.000 C 
BRANCH   7   8
ATOM      8  C   UNL     1       1.966   7.255  19.928  0.00  0.00    +0.000 A 
ATOM      9  C   UNL     1       2.391   7.480  18.614  0.00  0.00    +0.000 A 
ATOM     10  C   UNL     1       2.466   8.733  17.817  0.00  0.00    +0.000 C 
ATOM     11  N   UNL     1       2.843   6.324  18.004  0.00  0.00    +0.000 NA
ATOM     12  C   UNL     1       2.732   5.431  18.941  0.00  0.00    +0.000 A 
ATOM     13  S   UNL     1       3.116   3.748  19.006  0.00  0.00    +0.000 S 
ATOM     14  C   UNL     1       2.563   3.725  20.694  0.00  0.00    +0.000 A 
ATOM     15  C   UNL     1       2.605   2.433  21.446  0.00  0.00    +0.000 C 
ATOM     16  C   UNL     1       2.133   4.936  21.115  0.00  0.00    +0.000 A 
ATOM     17  N   UNL     1       2.231   5.904  20.122  0.00  0.00    +0.000 N 
ENDBRANCH   7   8
ENDBRANCH   2   6
BRANCH   1  18
ATOM     18  C   UNL     1      -0.174  11.541  20.106  0.00  0.00    +0.000 C 
BRANCH  18  19
ATOM     19  C   UNL     1      -1.360  11.348  19.176  0.00  0.00    +0.000 A 
ATOM     20  C   UNL     1      -1.183  10.453  18.085  0.00  0.00    +0.000 A 
ATOM     21  C   UNL     1      -2.179  10.248  17.123  0.00  0.00    +0.000 A 
ATOM     22  C   UNL     1      -3.366  10.918  17.292  0.00  0.00    +0.000 A 
ATOM     23  C   UNL     1      -3.587  11.731  18.378  0.00  0.00    +0.000 A 
ATOM     24  C   UNL     1      -2.612  11.965  19.337  0.00  0.00    +0.000 A 
ATOM     25  O   UNL     1      -4.843  12.259  18.367  0.00  0.00    +0.000 OA
ATOM     26  C   UNL     1      -5.385  11.665  17.166  0.00  0.00    +0.000 C 
ATOM     27  O   UNL     1      -4.431  10.859  16.447  0.00  0.00    +0.000 OA
ENDBRANCH  18  19
ENDBRANCH   1  18
TORSDOF 5
ENDMDL
MODEL 6
REMARK VINA RESULT:      -7.7      3.885      7.311
REMARK  Name = 
REMARK  8 active torsions:
REMARK  status: ('A' for Active; 'I' for Inactive)
REMARK    1  A    between atoms: C_1  and  C_2
REMARK    2  A    between atoms: C_2  and  N_3
REMARK    3  A    between atoms: N_3  and  C_4
REMARK    4  A    between atoms: C_4  and  C_5
REMARK    5  A    between atoms: C_14  and  C_16
REMARK    6  A    between atoms: C_17  and  C_18
REMARK    7  A    between atoms: C_19  and  C_20
REMARK    8  A    between atoms: C_24  and  C_25
REMARK                            x       y       z     vdW  Elec       q    Type
REMARK                         _______ _______ _______ _____ _____    ______ ____
ROOT
ATOM      1  N   UNL     1       2.640   3.520  18.933  0.00  0.00    +0.000 N 
ATOM      2  C   UNL     1       1.995   4.416  19.793  0.00  0.00    +0.000 C 
ATOM      3  O   UNL     1       1.556   4.104  20.898  0.00  0.00    +0.000 OA
ENDROOT
BRANCH   1   5
ATOM      4  C   UNL     1       3.738   1.195  18.463  0.00  0.00    +0.000 C 
ATOM      5  C   UNL     1       2.813   2.087  19.280  0.00  0.00    +0.000 C 
ENDBRANCH   1   5
BRANCH   2   6
ATOM      6  C   UNL     1       1.785   5.825  19.335  0.00  0.00    +0.000 C 
ATOM      7  C   UNL     1       2.042   6.866  20.153  0.00  0.00    +0.000 C 
BRANCH   7   8
ATOM      8  C   UNL     1       1.712   8.201  19.772  0.00  0.00    +0.000 A 
ATOM      9  C   UNL     1       1.944   8.970  18.626  0.00  0.00    +0.000 A 
ATOM     10  C   UNL     1       2.632   8.633  17.352  0.00  0.00    +0.000 C 
ATOM     11  N   UNL     1       1.392  10.234  18.722  0.00  0.00    +0.000 NA
ATOM     12  C   UNL     1       0.806  10.215  19.882  0.00  0.00    +0.000 A 
ATOM     13  S   UNL     1      -0.137  11.383  20.735  0.00  0.00    +0.000 S 
ATOM     14  C   UNL     1      -0.336  10.205  22.051  0.00  0.00    +0.000 A 
ATOM     15  C   UNL     1      -1.120  10.604  23.260  0.00  0.00    +0.000 C 
ATOM     16  C   UNL     1       0.291   9.034  21.797  0.00  0.00    +0.000 A 
ATOM     17  N   UNL     1       0.937   9.039  20.566  0.00  0.00    +0.000 N 
ENDBRANCH   7   8
ENDBRANCH   2   6
BRANCH   1  18
ATOM     18  C   UNL     1       3.395   3.917  17.729  0.00  0.00    +0.000 C 
BRANCH  18  19
ATOM     19  C   UNL     1       4.651   4.755  17.898  0.00  0.00    +0.000 A 
ATOM     20  C   UNL     1       5.516   4.409  18.974  0.00  0.00    +0.000 A 
ATOM     21  C   UNL     1       6.665   5.150  19.272  0.00  0.00    +0.000 A 
ATOM     22  C   UNL     1       6.958   6.214  18.455  0.00  0.00    +0.000 A 
ATOM     23  C   UNL     1       6.178   6.523  17.366  0.00  0.00    +0.000 A 
ATOM     24  C   UNL     1       5.025   5.815  17.057  0.00  0.00    +0.000 A 
ATOM     25  O   UNL     1       6.675   7.586  16.673  0.00  0.00    +0.000 OA
ATOM     26  C   UNL     1       7.863   7.888  17.439  0.00  0.00    +0.000 C 
ATOM     27  O   UNL     1       8.015   7.057  18.606  0.00  0.00    +0.000 OA
ENDBRANCH  18  19
ENDBRANCH   1  18
TORSDOF 5
ENDMDL
MODEL 7
REMARK VINA RESULT:      -7.6      3.177      7.336
REMARK  Name = 
REMARK  8 active torsions:
REMARK  status: ('A' for Active; 'I' for Inactive)
REMARK    1  A    between atoms: C_1  and  C_2
REMARK    2  A    between atoms: C_2  and  N_3
REMARK    3  A    between atoms: N_3  and  C_4
REMARK    4  A    between atoms: C_4  and  C_5
REMARK    5  A    between atoms: C_14  and  C_16
REMARK    6  A    between atoms: C_17  and  C_18
REMARK    7  A    between atoms: C_19  and  C_20
REMARK    8  A    between atoms: C_24  and  C_25
REMARK                            x       y       z     vdW  Elec       q    Type
REMARK                         _______ _______ _______ _____ _____    ______ ____
ROOT
ATOM      1  N   UNL     1       6.005   5.512  16.512  0.00  0.00    +0.000 N 
ATOM      2  C   UNL     1       5.054   6.531  16.378  0.00  0.00    +0.000 C 
ATOM      3  O   UNL     1       4.852   7.141  15.332  0.00  0.00    +0.000 OA
ENDROOT
BRANCH   1   5
ATOM      4  C   UNL     1       6.403   4.116  14.339  0.00  0.00    +0.000 C 
ATOM      5  C   UNL     1       6.885   5.110  15.387  0.00  0.00    +0.000 C 
ENDBRANCH   1   5
BRANCH   2   6
ATOM      6  C   UNL     1       4.263   6.935  17.583  0.00  0.00    +0.000 C 
ATOM      7  C   UNL     1       3.044   7.498  17.455  0.00  0.00    +0.000 C 
BRANCH   7   8
ATOM      8  C   UNL     1       2.347   8.012  18.590  0.00  0.00    +0.000 A 
ATOM      9  C   UNL     1       1.926   7.459  19.804  0.00  0.00    +0.000 A 
ATOM     10  C   UNL     1       2.083   6.086  20.354  0.00  0.00    +0.000 C 
ATOM     11  N   UNL     1       1.297   8.387  20.613  0.00  0.00    +0.000 NA
ATOM     12  C   UNL     1       1.372   9.484  19.920  0.00  0.00    +0.000 A 
ATOM     13  S   UNL     1       0.860  11.103  20.234  0.00  0.00    +0.000 S 
ATOM     14  C   UNL     1       1.522  11.579  18.654  0.00  0.00    +0.000 A 
ATOM     15  C   UNL     1       1.395  13.004  18.221  0.00  0.00    +0.000 C 
ATOM     16  C   UNL     1       2.078  10.538  17.992  0.00  0.00    +0.000 A 
ATOM     17  N   UNL     1       1.994   9.352  18.710  0.00  0.00    +0.000 N 
ENDBRANCH   7   8
ENDBRANCH   2   6
BRANCH   1  18
ATOM     18  C   UNL     1       6.092   4.599  17.667  0.00  0.00    +0.000 C 
BRANCH  18  19
ATOM     19  C   UNL     1       4.828   3.904  18.145  0.00  0.00    +0.000 A 
ATOM     20  C   UNL     1       3.920   3.459  17.144  0.00  0.00    +0.000 A 
ATOM     21  C   UNL     1       2.692   2.869  17.463  0.00  0.00    +0.000 A 
ATOM     22  C   UNL     1       2.404   2.694  18.794  0.00  0.00    +0.000 A 
ATOM     23  C   UNL     1       3.296   3.048  19.778  0.00  0.00    +0.000 A 
ATOM     24  C   UNL     1       4.514   3.650  19.490  0.00  0.00    +0.000 A 
ATOM     25  O   UNL     1       2.825   2.748  21.021  0.00  0.00    +0.000 OA
ATOM     26  C   UNL     1       1.551   2.145  20.698  0.00  0.00    +0.000 C 
ATOM     27  O   UNL     1       1.253   2.163  19.289  0.00  0.00    +0.000 OA
ENDBRANCH  18  19
ENDBRANCH   1  18
TORSDOF 5
ENDMDL
MODEL 8
REMARK VINA RESULT:      -7.6      3.924      7.565
REMARK  Name = 
REMARK  8 active torsions:
REMARK  status: ('A' for Active; 'I' for Inactive)
REMARK    1  A    between atoms: C_1  and  C_2
REMARK    2  A    between atoms: C_2  and  N_3
REMARK    3  A    between atoms: N_3  and  C_4
REMARK    4  A    between atoms: C_4  and  C_5
REMARK    5  A    between atoms: C_14  and  C_16
REMARK    6  A    between atoms: C_17  and  C_18
REMARK    7  A    between atoms: C_19  and  C_20
REMARK    8  A    between atoms: C_24  and  C_25
REMARK                            x       y       z     vdW  Elec       q    Type
REMARK                         _______ _______ _______ _____ _____    ______ ____
ROOT
ATOM      1  N   UNL     1       2.294   3.622  18.922  0.00  0.00    +0.000 N 
ATOM      2  C   UNL     1       1.786   4.560  19.828  0.00  0.00    +0.000 C 
ATOM      3  O   UNL     1       1.362   4.269  20.944  0.00  0.00    +0.000 OA
ENDROOT
BRANCH   1   5
ATOM      4  C   UNL     1       3.455   1.289  18.718  0.00  0.00    +0.000 C 
ATOM      5  C   UNL     1       2.324   2.171  19.231  0.00  0.00    +0.000 C 
ENDBRANCH   1   5
BRANCH   2   6
ATOM      6  C   UNL     1       1.712   5.995  19.409  0.00  0.00    +0.000 C 
ATOM      7  C   UNL     1       1.651   6.983  20.325  0.00  0.00    +0.000 C 
BRANCH   7   8
ATOM      8  C   UNL     1       1.441   8.339  19.934  0.00  0.00    +0.000 A 
ATOM      9  C   UNL     1       1.783   9.089  18.802  0.00  0.00    +0.000 A 
ATOM     10  C   UNL     1       2.505   8.701  17.562  0.00  0.00    +0.000 C 
ATOM     11  N   UNL     1       1.323  10.389  18.876  0.00  0.00    +0.000 NA
ATOM     12  C   UNL     1       0.682  10.414  20.007  0.00  0.00    +0.000 A 
ATOM     13  S   UNL     1      -0.212  11.649  20.818  0.00  0.00    +0.000 S 
ATOM     14  C   UNL     1      -0.560  10.490  22.119  0.00  0.00    +0.000 A 
ATOM     15  C   UNL     1      -1.370  10.946  23.291  0.00  0.00    +0.000 C 
ATOM     16  C   UNL     1      -0.011   9.275  21.891  0.00  0.00    +0.000 A 
ATOM     17  N   UNL     1       0.692   9.232  20.692  0.00  0.00    +0.000 N 
ENDBRANCH   7   8
ENDBRANCH   2   6
BRANCH   1  18
ATOM     18  C   UNL     1       3.038   3.966  17.695  0.00  0.00    +0.000 C 
BRANCH  18  19
ATOM     19  C   UNL     1       4.320   4.771  17.820  0.00  0.00    +0.000 A 
ATOM     20  C   UNL     1       4.619   5.675  16.762  0.00  0.00    +0.000 A 
ATOM     21  C   UNL     1       5.804   6.418  16.732  0.00  0.00    +0.000 A 
ATOM     22  C   UNL     1       6.665   6.275  17.793  0.00  0.00    +0.000 A 
ATOM     23  C   UNL     1       6.364   5.464  18.861  0.00  0.00    +0.000 A 
ATOM     24  C   UNL     1       5.204   4.704  18.909  0.00  0.00    +0.000 A 
ATOM     25  O   UNL     1       7.336   5.505  19.816  0.00  0.00    +0.000 OA
ATOM     26  C   UNL     1       8.261   6.450  19.233  0.00  0.00    +0.000 C 
ATOM     27  O   UNL     1       7.868   6.897  17.921  0.00  0.00    +0.000 OA
ENDBRANCH  18  19
ENDBRANCH   1  18
TORSDOF 5
ENDMDL
MODEL 9
REMARK VINA RESULT:      -7.6      4.110      6.611
REMARK  Name = 
REMARK  8 active torsions:
REMARK  status: ('A' for Active; 'I' for Inactive)
REMARK    1  A    between atoms: C_1  and  C_2
REMARK    2  A    between atoms: C_2  and  N_3
REMARK    3  A    between atoms: N_3  and  C_4
REMARK    4  A    between atoms: C_4  and  C_5
REMARK    5  A    between atoms: C_14  and  C_16
REMARK    6  A    between atoms: C_17  and  C_18
REMARK    7  A    between atoms: C_19  and  C_20
REMARK    8  A    between atoms: C_24  and  C_25
REMARK                            x       y       z     vdW  Elec       q    Type
REMARK                         _______ _______ _______ _____ _____    ______ ____
ROOT
ATOM      1  N   UNL     1      -0.323  10.970  21.696  0.00  0.00    +0.000 N 
ATOM      2  C   UNL     1      -0.384   9.608  22.015  0.00  0.00    +0.000 C 
ATOM      3  O   UNL     1      -0.794   9.176  23.089  0.00  0.00    +0.000 OA
ENDROOT
BRANCH   1   5
ATOM      4  C   UNL     1      -2.179  12.190  23.073  0.00  0.00    +0.000 C 
ATOM      5  C   UNL     1      -0.722  12.019  22.668  0.00  0.00    +0.000 C 
ENDBRANCH   1   5
BRANCH   2   6
ATOM      6  C   UNL     1       0.115   8.615  21.012  0.00  0.00    +0.000 C 
ATOM      7  C   UNL     1       1.414   8.252  20.983  0.00  0.00    +0.000 C 
BRANCH   7   8
ATOM      8  C   UNL     1       1.922   7.415  19.944  0.00  0.00    +0.000 A 
ATOM      9  C   UNL     1       2.346   7.646  18.630  0.00  0.00    +0.000 A 
ATOM     10  C   UNL     1       2.428   8.904  17.842  0.00  0.00    +0.000 C 
ATOM     11  N   UNL     1       2.790   6.492  18.013  0.00  0.00    +0.000 NA
ATOM     12  C   UNL     1       2.674   5.593  18.944  0.00  0.00    +0.000 A 
ATOM     13  S   UNL     1       3.048   3.908  18.997  0.00  0.00    +0.000 S 
ATOM     14  C   UNL     1       2.498   3.877  20.686  0.00  0.00    +0.000 A 
ATOM     15  C   UNL     1       2.533   2.580  21.429  0.00  0.00    +0.000 C 
ATOM     16  C   UNL     1       2.076   5.088  21.116  0.00  0.00    +0.000 A 
ATOM     17  N   UNL     1       2.178   6.061  20.128  0.00  0.00    +0.000 N 
ENDBRANCH   7   8
ENDBRANCH   2   6
BRANCH   1  18
ATOM     18  C   UNL     1      -0.082  11.500  20.341  0.00  0.00    +0.000 C 
BRANCH  18  19
ATOM     19  C   UNL     1      -1.171  11.345  19.292  0.00  0.00    +0.000 A 
ATOM     20  C   UNL     1      -2.390  12.042  19.522  0.00  0.00    +0.000 A 
ATOM     21  C   UNL     1      -3.488  11.921  18.663  0.00  0.00    +0.000 A 
ATOM     22  C   UNL     1      -3.336  11.127  17.553  0.00  0.00    +0.000 A 
ATOM     23  C   UNL     1      -2.144  10.502  17.271  0.00  0.00    +0.000 A 
ATOM     24  C   UNL     1      -1.045  10.592  18.113  0.00  0.00    +0.000 A 
ATOM     25  O   UNL     1      -2.204   9.803  16.103  0.00  0.00    +0.000 OA
ATOM     26  C   UNL     1      -3.557  10.083  15.678  0.00  0.00    +0.000 C 
ATOM     27  O   UNL     1      -4.299  10.875  16.626  0.00  0.00    +0.000 OA
ENDBRANCH  18  19
ENDBRANCH   1  18
TORSDOF 5
ENDMDL
