MODEL 1
REMARK VINA RESULT:      -8.1      0.000      0.000
REMARK  Name = 
REMARK  4 active torsions:
REMARK  status: ('A' for Active; 'I' for Inactive)
REMARK    1  A    between atoms: C_1  and  N_2
REMARK    2  A    between atoms: N_5  and  C_6
REMARK    3  A    between atoms: C_6  and  C_7
REMARK    4  A    between atoms: C_10  and  C_11
REMARK                            x       y       z     vdW  Elec       q    Type
REMARK                         _______ _______ _______ _____ _____    ______ ____
ROOT
ATOM      1  C   UNL     1       0.770   9.298  19.846  0.00  0.00    +0.000 A 
ATOM      2  C   UNL     1       1.171   9.598  18.536  0.00  0.00    +0.000 A 
ATOM      3  C   UNL     1       2.055   8.747  17.810  0.00  0.00    +0.000 A 
ATOM      4  C   UNL     1       2.545   7.612  18.415  0.00  0.00    +0.000 A 
ATOM      5  N   UNL     1       2.293   7.437  19.756  0.00  0.00    +0.000 NA
ATOM      6  C   UNL     1       1.439   8.245  20.420  0.00  0.00    +0.000 A 
ENDROOT
BRANCH   4   7
ATOM      7  C   UNL     1       3.206   6.409  17.780  0.00  0.00    +0.000 A 
ATOM      8  C   UNL     1       4.417   6.698  17.103  0.00  0.00    +0.000 A 
ATOM      9  C   UNL     1       5.159   5.728  16.473  0.00  0.00    +0.000 A 
ATOM     10  C   UNL     1       5.132   4.513  17.077  0.00  0.00    +0.000 A 
ATOM     11  C   UNL     1       3.921   4.112  17.634  0.00  0.00    +0.000 A 
ATOM     12  C   UNL     1       3.815   2.747  17.872  0.00  0.00    +0.000 A 
ATOM     13  C   UNL     1       2.568   2.194  18.103  0.00  0.00    +0.000 A 
ATOM     14  C   UNL     1       1.502   3.101  18.145  0.00  0.00    +0.000 A 
ATOM     15  N   UNL     1       1.625   4.463  18.113  0.00  0.00    +0.000 NA
ATOM     16  C   UNL     1       2.846   5.022  17.852  0.00  0.00    +0.000 A 
ENDBRANCH   4   7
BRANCH   1  17
ATOM     17  C   UNL     1      -0.285  10.051  20.653  0.00  0.00    +0.000 C 
BRANCH  17  22
ATOM     18  C   UNL     1      -2.730  13.826  23.069  0.00  0.00    +0.000 C 
ATOM     19  N   UNL     1      -1.550  12.969  22.970  0.00  0.00    +0.000 NA
ATOM     20  C   UNL     1      -0.836  13.174  21.699  0.00  0.00    +0.000 C 
ATOM     21  C   UNL     1       0.408  12.257  21.554  0.00  0.00    +0.000 C 
ATOM     22  N   UNL     1       0.219  10.812  21.812  0.00  0.00    +0.000 NA
ATOM     23  C   UNL     1      -0.616  10.653  23.027  0.00  0.00    +0.000 C 
ATOM     24  C   UNL     1      -1.886  11.547  23.116  0.00  0.00    +0.000 C 
ENDBRANCH  17  22
ENDBRANCH   1  17
TORSDOF 3
ENDMDL
MODEL 2
REMARK VINA RESULT:      -8.0      1.092      2.259
REMARK  Name = 
REMARK  4 active torsions:
REMARK  status: ('A' for Active; 'I' for Inactive)
REMARK    1  A    between atoms: C_1  and  N_2
REMARK    2  A    between atoms: N_5  and  C_6
REMARK    3  A    between atoms: C_6  and  C_7
REMARK    4  A    between atoms: C_10  and  C_11
REMARK                            x       y       z     vdW  Elec       q    Type
REMARK                         _______ _______ _______ _____ _____    ______ ____
ROOT
ATOM      1  C   UNL     1       0.856   9.474  19.719  0.00  0.00    +0.000 A 
ATOM      2  C   UNL     1       1.327   9.530  18.399  0.00  0.00    +0.000 A 
ATOM      3  C   UNL     1       2.142   8.497  17.850  0.00  0.00    +0.000 A 
ATOM      4  C   UNL     1       2.496   7.427  18.641  0.00  0.00    +0.000 A 
ATOM      5  N   UNL     1       2.186   7.486  19.980  0.00  0.00    +0.000 NA
ATOM      6  C   UNL     1       1.397   8.464  20.475  0.00  0.00    +0.000 A 
ENDROOT
BRANCH   4   7
ATOM      7  C   UNL     1       3.052   6.084  18.225  0.00  0.00    +0.000 A 
ATOM      8  C   UNL     1       2.170   4.996  18.438  0.00  0.00    +0.000 A 
ATOM      9  C   UNL     1       2.501   3.702  18.112  0.00  0.00    +0.000 A 
ATOM     10  C   UNL     1       3.286   3.579  17.013  0.00  0.00    +0.000 A 
ATOM     11  C   UNL     1       4.272   4.543  16.829  0.00  0.00    +0.000 A 
ATOM     12  C   UNL     1       5.287   4.178  15.954  0.00  0.00    +0.000 A 
ATOM     13  C   UNL     1       6.470   4.896  15.949  0.00  0.00    +0.000 A 
ATOM     14  C   UNL     1       6.510   6.003  16.805  0.00  0.00    +0.000 A 
ATOM     15  N   UNL     1       5.446   6.486  17.517  0.00  0.00    +0.000 NA
ATOM     16  C   UNL     1       4.282   5.769  17.558  0.00  0.00    +0.000 A 
ENDBRANCH   4   7
BRANCH   1  17
ATOM     17  C   UNL     1      -0.142  10.440  20.353  0.00  0.00    +0.000 C 
BRANCH  17  22
ATOM     18  C   UNL     1      -2.886  13.653  23.219  0.00  0.00    +0.000 C 
ATOM     19  N   UNL     1      -1.627  12.944  23.001  0.00  0.00    +0.000 NA
ATOM     20  C   UNL     1      -0.982  13.357  21.744  0.00  0.00    +0.000 C 
ATOM     21  C   UNL     1       0.345  12.601  21.471  0.00  0.00    +0.000 C 
ATOM     22  N   UNL     1       0.318  11.125  21.576  0.00  0.00    +0.000 NA
ATOM     23  C   UNL     1      -0.454  10.749  22.785  0.00  0.00    +0.000 C 
ATOM     24  C   UNL     1      -1.807  11.486  23.000  0.00  0.00    +0.000 C 
ENDBRANCH  17  22
ENDBRANCH   1  17
TORSDOF 3
ENDMDL
MODEL 3
REMARK VINA RESULT:      -8.0      2.474      3.448
REMARK  Name = 
REMARK  4 active torsions:
REMARK  status: ('A' for Active; 'I' for Inactive)
REMARK    1  A    between atoms: C_1  and  N_2
REMARK    2  A    between atoms: N_5  and  C_6
REMARK    3  A    between atoms: C_6  and  C_7
REMARK    4  A    between atoms: C_10  and  C_11
REMARK                            x       y       z     vdW  Elec       q    Type
REMARK                         _______ _______ _______ _____ _____    ______ ____
ROOT
ATOM      1  C   UNL     1       0.967   9.437  19.127  0.00  0.00    +0.000 A 
ATOM      2  C   UNL     1       1.709   9.468  17.937  0.00  0.00    +0.000 A 
ATOM      3  C   UNL     1       2.604   8.416  17.585  0.00  0.00    +0.000 A 
ATOM      4  C   UNL     1       2.763   7.352  18.444  0.00  0.00    +0.000 A 
ATOM      5  N   UNL     1       2.175   7.432  19.685  0.00  0.00    +0.000 NA
ATOM      6  C   UNL     1       1.317   8.429  19.991  0.00  0.00    +0.000 A 
ENDROOT
BRANCH   4   7
ATOM      7  C   UNL     1       3.370   5.995  18.168  0.00  0.00    +0.000 A 
ATOM      8  C   UNL     1       2.525   4.902  18.481  0.00  0.00    +0.000 A 
ATOM      9  C   UNL     1       2.906   3.595  18.290  0.00  0.00    +0.000 A 
ATOM     10  C   UNL     1       3.708   3.392  17.214  0.00  0.00    +0.000 A 
ATOM     11  C   UNL     1       4.661   4.369  16.943  0.00  0.00    +0.000 A 
ATOM     12  C   UNL     1       5.699   3.956  16.117  0.00  0.00    +0.000 A 
ATOM     13  C   UNL     1       6.855   4.711  16.049  0.00  0.00    +0.000 A 
ATOM     14  C   UNL     1       6.845   5.899  16.791  0.00  0.00    +0.000 A 
ATOM     15  N   UNL     1       5.757   6.411  17.443  0.00  0.00    +0.000 NA
ATOM     16  C   UNL     1       4.619   5.660  17.546  0.00  0.00    +0.000 A 
ENDBRANCH   4   7
BRANCH   1  17
ATOM     17  C   UNL     1      -0.126  10.426  19.525  0.00  0.00    +0.000 C 
BRANCH  17  22
ATOM     18  C   UNL     1      -5.056  11.530  18.789  0.00  0.00    +0.000 C 
ATOM     19  N   UNL     1      -3.668  11.678  18.355  0.00  0.00    +0.000 NA
ATOM     20  C   UNL     1      -3.079  10.386  17.968  0.00  0.00    +0.000 C 
ATOM     21  C   UNL     1      -1.596  10.508  17.528  0.00  0.00    +0.000 C 
ATOM     22  N   UNL     1      -0.680  11.243  18.429  0.00  0.00    +0.000 NA
ATOM     23  C   UNL     1      -1.363  12.472  18.900  0.00  0.00    +0.000 C 
ATOM     24  C   UNL     1      -2.831  12.306  19.387  0.00  0.00    +0.000 C 
ENDBRANCH  17  22
ENDBRANCH   1  17
TORSDOF 3
ENDMDL
MODEL 4
REMARK VINA RESULT:      -7.8      0.992      1.087
REMARK  Name = 
REMARK  4 active torsions:
REMARK  status: ('A' for Active; 'I' for Inactive)
REMARK    1  A    between atoms: C_1  and  N_2
REMARK    2  A    between atoms: N_5  and  C_6
REMARK    3  A    between atoms: C_6  and  C_7
REMARK    4  A    between atoms: C_10  and  C_11
REMARK                            x       y       z     vdW  Elec       q    Type
REMARK                         _______ _______ _______ _____ _____    ______ ____
ROOT
ATOM      1  C   UNL     1       0.857   9.314  19.821  0.00  0.00    +0.000 A 
ATOM      2  C   UNL     1       1.295   9.623  18.525  0.00  0.00    +0.000 A 
ATOM      3  C   UNL     1       2.160   8.752  17.799  0.00  0.00    +0.000 A 
ATOM      4  C   UNL     1       2.594   7.587  18.391  0.00  0.00    +0.000 A 
ATOM      5  N   UNL     1       2.309   7.397  19.724  0.00  0.00    +0.000 NA
ATOM      6  C   UNL     1       1.474   8.226  20.387  0.00  0.00    +0.000 A 
ENDROOT
BRANCH   4   7
ATOM      7  C   UNL     1       3.220   6.372  17.745  0.00  0.00    +0.000 A 
ATOM      8  C   UNL     1       4.414   6.640  17.032  0.00  0.00    +0.000 A 
ATOM      9  C   UNL     1       5.125   5.656  16.387  0.00  0.00    +0.000 A 
ATOM     10  C   UNL     1       5.100   4.447  17.000  0.00  0.00    +0.000 A 
ATOM     11  C   UNL     1       3.902   4.065  17.595  0.00  0.00    +0.000 A 
ATOM     12  C   UNL     1       3.785   2.703  17.847  0.00  0.00    +0.000 A 
ATOM     13  C   UNL     1       2.539   2.167  18.117  0.00  0.00    +0.000 A 
ATOM     14  C   UNL     1       1.486   3.088  18.184  0.00  0.00    +0.000 A 
ATOM     15  N   UNL     1       1.626   4.448  18.139  0.00  0.00    +0.000 NA
ATOM     16  C   UNL     1       2.845   4.990  17.838  0.00  0.00    +0.000 A 
ENDBRANCH   4   7
BRANCH   1  17
ATOM     17  C   UNL     1      -0.184  10.093  20.622  0.00  0.00    +0.000 C 
BRANCH  17  22
ATOM     18  C   UNL     1      -3.908  13.342  21.903  0.00  0.00    +0.000 C 
ATOM     19  N   UNL     1      -2.567  13.136  21.357  0.00  0.00    +0.000 NA
ATOM     20  C   UNL     1      -2.601  12.340  20.119  0.00  0.00    +0.000 C 
ATOM     21  C   UNL     1      -1.189  12.082  19.531  0.00  0.00    +0.000 C 
ATOM     22  N   UNL     1      -0.156  11.558  20.453  0.00  0.00    +0.000 NA
ATOM     23  C   UNL     1      -0.245  12.298  21.735  0.00  0.00    +0.000 C 
ATOM     24  C   UNL     1      -1.670  12.492  22.326  0.00  0.00    +0.000 C 
ENDBRANCH  17  22
ENDBRANCH   1  17
TORSDOF 3
ENDMDL
MODEL 5
REMARK VINA RESULT:      -7.8      1.762      2.785
REMARK  Name = 
REMARK  4 active torsions:
REMARK  status: ('A' for Active; 'I' for Inactive)
REMARK    1  A    between atoms: C_1  and  N_2
REMARK    2  A    between atoms: N_5  and  C_6
REMARK    3  A    between atoms: C_6  and  C_7
REMARK    4  A    between atoms: C_10  and  C_11
REMARK                            x       y       z     vdW  Elec       q    Type
REMARK                         _______ _______ _______ _____ _____    ______ ____
ROOT
ATOM      1  C   UNL     1       0.914   9.261  19.686  0.00  0.00    +0.000 A 
ATOM      2  C   UNL     1       1.429   9.377  18.387  0.00  0.00    +0.000 A 
ATOM      3  C   UNL     1       2.284   8.382  17.828  0.00  0.00    +0.000 A 
ATOM      4  C   UNL     1       2.631   7.289  18.589  0.00  0.00    +0.000 A 
ATOM      5  N   UNL     1       2.273   7.288  19.917  0.00  0.00    +0.000 NA
ATOM      6  C   UNL     1       1.449   8.232  20.421  0.00  0.00    +0.000 A 
ENDROOT
BRANCH   4   7
ATOM      7  C   UNL     1       3.228   5.973  18.141  0.00  0.00    +0.000 A 
ATOM      8  C   UNL     1       2.364   4.860  18.286  0.00  0.00    +0.000 A 
ATOM      9  C   UNL     1       2.733   3.587  17.924  0.00  0.00    +0.000 A 
ATOM     10  C   UNL     1       3.552   3.521  16.844  0.00  0.00    +0.000 A 
ATOM     11  C   UNL     1       4.522   4.512  16.727  0.00  0.00    +0.000 A 
ATOM     12  C   UNL     1       5.570   4.200  15.870  0.00  0.00    +0.000 A 
ATOM     13  C   UNL     1       6.737   4.941  15.927  0.00  0.00    +0.000 A 
ATOM     14  C   UNL     1       6.727   6.016  16.824  0.00  0.00    +0.000 A 
ATOM     15  N   UNL     1       5.633   6.450  17.521  0.00  0.00    +0.000 NA
ATOM     16  C   UNL     1       4.484   5.709  17.500  0.00  0.00    +0.000 A 
ENDBRANCH   4   7
BRANCH   1  17
ATOM     17  C   UNL     1      -0.124  10.182  20.321  0.00  0.00    +0.000 C 
BRANCH  17  22
ATOM     18  C   UNL     1      -4.131  13.329  20.644  0.00  0.00    +0.000 C 
ATOM     19  N   UNL     1      -2.766  13.094  20.176  0.00  0.00    +0.000 NA
ATOM     20  C   UNL     1      -2.707  11.984  19.212  0.00  0.00    +0.000 C 
ATOM     21  C   UNL     1      -1.265  11.693  18.718  0.00  0.00    +0.000 C 
ATOM     22  N   UNL     1      -0.214  11.538  19.747  0.00  0.00    +0.000 NA
ATOM     23  C   UNL     1      -0.391  12.597  20.770  0.00  0.00    +0.000 C 
ATOM     24  C   UNL     1      -1.841  12.827  21.285  0.00  0.00    +0.000 C 
ENDBRANCH  17  22
ENDBRANCH   1  17
TORSDOF 3
ENDMDL
MODEL 6
REMARK VINA RESULT:      -7.7      1.547      2.635
REMARK  Name = 
REMARK  4 active torsions:
REMARK  status: ('A' for Active; 'I' for Inactive)
REMARK    1  A    between atoms: C_1  and  N_2
REMARK    2  A    between atoms: N_5  and  C_6
REMARK    3  A    between atoms: C_6  and  C_7
REMARK    4  A    between atoms: C_10  and  C_11
REMARK                            x       y       z     vdW  Elec       q    Type
REMARK                         _______ _______ _______ _____ _____    ______ ____
ROOT
ATOM      1  C   UNL     1       0.918   9.517  19.522  0.00  0.00    +0.000 A 
ATOM      2  C   UNL     1       1.455   9.535  18.227  0.00  0.00    +0.000 A 
ATOM      3  C   UNL     1       2.260   8.466  17.735  0.00  0.00    +0.000 A 
ATOM      4  C   UNL     1       2.536   7.397  18.558  0.00  0.00    +0.000 A 
ATOM      5  N   UNL     1       2.162   7.488  19.879  0.00  0.00    +0.000 NA
ATOM      6  C   UNL     1       1.385   8.501  20.319  0.00  0.00    +0.000 A 
ENDROOT
BRANCH   4   7
ATOM      7  C   UNL     1       3.064   6.029  18.190  0.00  0.00    +0.000 A 
ATOM      8  C   UNL     1       2.133   4.976  18.369  0.00  0.00    +0.000 A 
ATOM      9  C   UNL     1       2.435   3.667  18.079  0.00  0.00    +0.000 A 
ATOM     10  C   UNL     1       3.272   3.500  17.024  0.00  0.00    +0.000 A 
ATOM     11  C   UNL     1       4.301   4.426  16.882  0.00  0.00    +0.000 A 
ATOM     12  C   UNL     1       5.347   4.012  16.067  0.00  0.00    +0.000 A 
ATOM     13  C   UNL     1       6.554   4.687  16.117  0.00  0.00    +0.000 A 
ATOM     14  C   UNL     1       6.588   5.804  16.960  0.00  0.00    +0.000 A 
ATOM     15  N   UNL     1       5.506   6.335  17.607  0.00  0.00    +0.000 NA
ATOM     16  C   UNL     1       4.316   5.661  17.594  0.00  0.00    +0.000 A 
ENDBRANCH   4   7
BRANCH   1  17
ATOM     17  C   UNL     1      -0.076  10.527  20.091  0.00  0.00    +0.000 C 
BRANCH  17  22
ATOM     18  C   UNL     1      -0.846  15.574  20.041  0.00  0.00    +0.000 C 
ATOM     19  N   UNL     1      -0.231  14.414  20.683  0.00  0.00    +0.000 NA
ATOM     20  C   UNL     1       0.738  13.752  19.795  0.00  0.00    +0.000 C 
ATOM     21  C   UNL     1       1.388  12.500  20.441  0.00  0.00    +0.000 C 
ATOM     22  N   UNL     1       0.480  11.502  21.049  0.00  0.00    +0.000 NA
ATOM     23  C   UNL     1      -0.560  12.218  21.827  0.00  0.00    +0.000 C 
ATOM     24  C   UNL     1      -1.232  13.435  21.130  0.00  0.00    +0.000 C 
ENDBRANCH  17  22
ENDBRANCH   1  17
TORSDOF 3
ENDMDL
MODEL 7
REMARK VINA RESULT:      -7.7      2.695      3.162
REMARK  Name = 
REMARK  4 active torsions:
REMARK  status: ('A' for Active; 'I' for Inactive)
REMARK    1  A    between atoms: C_1  and  N_2
REMARK    2  A    between atoms: N_5  and  C_6
REMARK    3  A    between atoms: C_6  and  C_7
REMARK    4  A    between atoms: C_10  and  C_11
REMARK                            x       y       z     vdW  Elec       q    Type
REMARK                         _______ _______ _______ _____ _____    ______ ____
ROOT
ATOM      1  C   UNL     1       0.849   9.611  19.225  0.00  0.00    +0.000 A 
ATOM      2  C   UNL     1       1.603   9.397  18.062  0.00  0.00    +0.000 A 
ATOM      3  C   UNL     1       2.431   8.246  17.908  0.00  0.00    +0.000 A 
ATOM      4  C   UNL     1       2.510   7.331  18.933  0.00  0.00    +0.000 A 
ATOM      5  N   UNL     1       1.917   7.654  20.132  0.00  0.00    +0.000 NA
ATOM      6  C   UNL     1       1.123   8.740  20.251  0.00  0.00    +0.000 A 
ENDROOT
BRANCH   4   7
ATOM      7  C   UNL     1       3.030   5.912  18.899  0.00  0.00    +0.000 A 
ATOM      8  C   UNL     1       4.186   5.732  18.101  0.00  0.00    +0.000 A 
ATOM      9  C   UNL     1       4.803   4.512  17.957  0.00  0.00    +0.000 A 
ATOM     10  C   UNL     1       4.756   3.723  19.060  0.00  0.00    +0.000 A 
ATOM     11  C   UNL     1       3.582   3.747  19.806  0.00  0.00    +0.000 A 
ATOM     12  C   UNL     1       3.413   2.665  20.660  0.00  0.00    +0.000 A 
ATOM     13  C   UNL     1       2.161   2.408  21.191  0.00  0.00    +0.000 A 
ATOM     14  C   UNL     1       1.164   3.334  20.862  0.00  0.00    +0.000 A 
ATOM     15  N   UNL     1       1.369   4.508  20.190  0.00  0.00    +0.000 NA
ATOM     16  C   UNL     1       2.592   4.758  19.631  0.00  0.00    +0.000 A 
ENDBRANCH   4   7
BRANCH   1  17
ATOM     17  C   UNL     1      -0.181  10.719  19.431  0.00  0.00    +0.000 C 
BRANCH  17  22
ATOM     18  C   UNL     1      -5.173  10.763  18.364  0.00  0.00    +0.000 C 
ATOM     19  N   UNL     1      -3.810  11.104  17.961  0.00  0.00    +0.000 NA
ATOM     20  C   UNL     1      -2.976   9.903  17.797  0.00  0.00    +0.000 C 
ATOM     21  C   UNL     1      -1.515  10.235  17.395  0.00  0.00    +0.000 C 
ATOM     22  N   UNL     1      -0.804  11.251  18.203  0.00  0.00    +0.000 NA
ATOM     23  C   UNL     1      -1.724  12.385  18.456  0.00  0.00    +0.000 C 
ATOM     24  C   UNL     1      -3.166  12.020  18.912  0.00  0.00    +0.000 C 
ENDBRANCH  17  22
ENDBRANCH   1  17
TORSDOF 3
ENDMDL
MODEL 8
REMARK VINA RESULT:      -7.6      1.414      2.329
REMARK  Name = 
REMARK  4 active torsions:
REMARK  status: ('A' for Active; 'I' for Inactive)
REMARK    1  A    between atoms: C_1  and  N_2
REMARK    2  A    between atoms: N_5  and  C_6
REMARK    3  A    between atoms: C_6  and  C_7
REMARK    4  A    between atoms: C_10  and  C_11
REMARK                            x       y       z     vdW  Elec       q    Type
REMARK                         _______ _______ _______ _____ _____    ______ ____
ROOT
ATOM      1  C   UNL     1       0.419  10.109  20.340  0.00  0.00    +0.000 A 
ATOM      2  C   UNL     1       0.972   9.908  19.067  0.00  0.00    +0.000 A 
ATOM      3  C   UNL     1       1.727   8.740  18.754  0.00  0.00    +0.000 A 
ATOM      4  C   UNL     1       1.939   7.793  19.731  0.00  0.00    +0.000 A 
ATOM      5  N   UNL     1       1.554   8.097  21.016  0.00  0.00    +0.000 NA
ATOM      6  C   UNL     1       0.824   9.201  21.287  0.00  0.00    +0.000 A 
ENDROOT
BRANCH   4   7
ATOM      7  C   UNL     1       2.401   6.361  19.579  0.00  0.00    +0.000 A 
ATOM      8  C   UNL     1       1.809   5.456  20.494  0.00  0.00    +0.000 A 
ATOM      9  C   UNL     1       2.103   4.114  20.499  0.00  0.00    +0.000 A 
ATOM     10  C   UNL     1       2.356   3.586  19.275  0.00  0.00    +0.000 A 
ATOM     11  C   UNL     1       3.067   4.379  18.380  0.00  0.00    +0.000 A 
ATOM     12  C   UNL     1       3.648   3.688  17.324  0.00  0.00    +0.000 A 
ATOM     13  C   UNL     1       4.637   4.299  16.575  0.00  0.00    +0.000 A 
ATOM     14  C   UNL     1       4.921   5.627  16.916  0.00  0.00    +0.000 A 
ATOM     15  N   UNL     1       4.216   6.376  17.817  0.00  0.00    +0.000 NA
ATOM     16  C   UNL     1       3.259   5.776  18.589  0.00  0.00    +0.000 A 
ENDBRANCH   4   7
BRANCH   1  17
ATOM     17  C   UNL     1      -0.529  11.239  20.734  0.00  0.00    +0.000 C 
BRANCH  17  22
ATOM     18  C   UNL     1      -3.731  14.335  23.228  0.00  0.00    +0.000 C 
ATOM     19  N   UNL     1      -2.469  13.598  23.214  0.00  0.00    +0.000 NA
ATOM     20  C   UNL     1      -1.573  14.077  22.149  0.00  0.00    +0.000 C 
ATOM     21  C   UNL     1      -0.234  13.294  22.093  0.00  0.00    +0.000 C 
ATOM     22  N   UNL     1      -0.313  11.816  22.075  0.00  0.00    +0.000 NA
ATOM     23  C   UNL     1      -1.324  11.383  23.070  0.00  0.00    +0.000 C 
ATOM     24  C   UNL     1      -2.676  12.152  23.064  0.00  0.00    +0.000 C 
ENDBRANCH  17  22
ENDBRANCH   1  17
TORSDOF 3
ENDMDL
MODEL 9
REMARK VINA RESULT:      -7.5      1.384      2.308
REMARK  Name = 
REMARK  4 active torsions:
REMARK  status: ('A' for Active; 'I' for Inactive)
REMARK    1  A    between atoms: C_1  and  N_2
REMARK    2  A    between atoms: N_5  and  C_6
REMARK    3  A    between atoms: C_6  and  C_7
REMARK    4  A    between atoms: C_10  and  C_11
REMARK                            x       y       z     vdW  Elec       q    Type
REMARK                         _______ _______ _______ _____ _____    ______ ____
ROOT
ATOM      1  C   UNL     1       0.353   9.823  19.484  0.00  0.00    +0.000 A 
ATOM      2  C   UNL     1       0.927   9.719  18.208  0.00  0.00    +0.000 A 
ATOM      3  C   UNL     1       1.885   8.709  17.899  0.00  0.00    +0.000 A 
ATOM      4  C   UNL     1       2.275   7.827  18.881  0.00  0.00    +0.000 A 
ATOM      5  N   UNL     1       1.847   8.065  20.167  0.00  0.00    +0.000 NA
ATOM      6  C   UNL     1       0.926   9.016  20.435  0.00  0.00    +0.000 A 
ENDROOT
BRANCH   4   7
ATOM      7  C   UNL     1       2.995   6.506  18.736  0.00  0.00    +0.000 A 
ATOM      8  C   UNL     1       2.653   5.543  19.718  0.00  0.00    +0.000 A 
ATOM      9  C   UNL     1       3.202   4.284  19.740  0.00  0.00    +0.000 A 
ATOM     10  C   UNL     1       3.470   3.763  18.516  0.00  0.00    +0.000 A 
ATOM     11  C   UNL     1       3.952   4.639  17.549  0.00  0.00    +0.000 A 
ATOM     12  C   UNL     1       4.584   4.028  16.473  0.00  0.00    +0.000 A 
ATOM     13  C   UNL     1       5.383   4.785  15.634  0.00  0.00    +0.000 A 
ATOM     14  C   UNL     1       5.425   6.156  15.916  0.00  0.00    +0.000 A 
ATOM     15  N   UNL     1       4.650   6.794  16.845  0.00  0.00    +0.000 NA
ATOM     16  C   UNL     1       3.882   6.055  17.703  0.00  0.00    +0.000 A 
ENDBRANCH   4   7
BRANCH   1  17
ATOM     17  C   UNL     1      -0.786  10.760  19.877  0.00  0.00    +0.000 C 
BRANCH  17  22
ATOM     18  C   UNL     1      -3.821  13.449  22.979  0.00  0.00    +0.000 C 
ATOM     19  N   UNL     1      -2.495  13.252  22.398  0.00  0.00    +0.000 NA
ATOM     20  C   UNL     1      -2.514  13.415  20.935  0.00  0.00    +0.000 C 
ATOM     21  C   UNL     1      -1.123  13.184  20.286  0.00  0.00    +0.000 C 
ATOM     22  N   UNL     1      -0.397  11.949  20.659  0.00  0.00    +0.000 NA
ATOM     23  C   UNL     1      -0.515  11.753  22.124  0.00  0.00    +0.000 C 
ATOM     24  C   UNL     1      -1.934  11.937  22.735  0.00  0.00    +0.000 C 
ENDBRANCH  17  22
ENDBRANCH   1  17
TORSDOF 3
ENDMDL
