MODEL 1
REMARK VINA RESULT:      -8.1      0.000      0.000
REMARK  Name = 
REMARK  7 active torsions:
REMARK  status: ('A' for Active; 'I' for Inactive)
REMARK    1  A    between atoms: C_1  and  C_2
REMARK    2  A    between atoms: C_2  and  C_3
REMARK    3  A    between atoms: C_3  and  N_4
REMARK    4  A    between atoms: N_8  and  C_9
REMARK    5  A    between atoms: C_18  and  C_19
REMARK    6  A    between atoms: C_19  and  O_21
REMARK    7  A    between atoms: N_23  and  C_24
REMARK                            x       y       z     vdW  Elec       q    Type
REMARK                         _______ _______ _______ _____ _____    ______ ____
ROOT
ATOM      1  C   UNL     1       1.274   8.842  19.468  0.00  0.00    +0.000 A 
ATOM      2  N   UNL     1       1.605   7.614  19.959  0.00  0.00    +0.000 NA
ATOM      3  C   UNL     1       2.543   6.858  19.324  0.00  0.00    +0.000 A 
ATOM      4  C   UNL     1       3.201   7.340  18.188  0.00  0.00    +0.000 A 
ATOM      5  C   UNL     1       2.906   8.602  17.695  0.00  0.00    +0.000 A 
ATOM      6  C   UNL     1       1.938   9.349  18.341  0.00  0.00    +0.000 A 
ATOM      7  F   UNL     1       1.684  10.579  17.866  0.00  0.00    +0.000 F 
ATOM      8  C   UNL     1       4.188   6.500  17.486  0.00  0.00    +0.000 A 
ATOM      9  O   UNL     1       4.800   6.916  16.505  0.00  0.00    +0.000 OA
ATOM     10  C   UNL     1       4.424   5.129  17.972  0.00  0.00    +0.000 A 
ATOM     11  C   UNL     1       3.738   4.751  19.060  0.00  0.00    +0.000 A 
ATOM     12  N   UNL     1       2.863   5.540  19.784  0.00  0.00    +0.000 N 
ENDROOT
BRANCH   1  18
ATOM     13  C   UNL     1      -2.465  12.324  23.339  0.00  0.00    +0.000 C 
ATOM     14  C   UNL     1      -2.400  12.226  21.832  0.00  0.00    +0.000 C 
ATOM     15  C   UNL     1      -1.342  11.658  21.201  0.00  0.00    +0.000 C 
ATOM     16  C   UNL     1      -0.145  11.073  21.934  0.00  0.00    +0.000 C 
ATOM     17  C   UNL     1       0.107   9.613  21.531  0.00  0.00    +0.000 C 
ATOM     18  N   UNL     1       0.242   9.523  20.077  0.00  0.00    +0.000 N 
ATOM     19  C   UNL     1      -0.871  10.048  19.285  0.00  0.00    +0.000 C 
ATOM     20  C   UNL     1      -1.193  11.498  19.693  0.00  0.00    +0.000 C 
BRANCH  14  21
ATOM     21  C   UNL     1      -3.577  12.842  21.117  0.00  0.00    +0.000 C 
BRANCH  21  22
ATOM     22  N   UNL     1      -4.814  12.522  21.817  0.00  0.00    +0.000 NA
ATOM     23  H   UNL     1      -5.524  13.197  21.543  0.00  0.00    +0.000 HD
ATOM     24  H   UNL     1      -4.671  12.656  22.816  0.00  0.00    +0.000 HD
ENDBRANCH  21  22
ENDBRANCH  14  21
ENDBRANCH   1  18
BRANCH  12  25
ATOM     25  C   UNL     1       2.075   4.944  20.881  0.00  0.00    +0.000 C 
ATOM     26  C   UNL     1       1.020   3.882  20.679  0.00  0.00    +0.000 C 
ATOM     27  C   UNL     1       2.319   3.526  21.330  0.00  0.00    +0.000 C 
ENDBRANCH  12  25
BRANCH  10  28
ATOM     28  C   UNL     1       5.350   4.181  17.320  0.00  0.00    +0.000 C 
ATOM     29  O   UNL     1       5.103   3.625  16.259  0.00  0.00    +0.000 OA
BRANCH  28  30
ATOM     30  O   UNL     1       6.505   3.971  17.988  0.00  0.00    +0.000 OA
ATOM     31  H   UNL     1       7.190   3.481  17.471  0.00  0.00    +0.000 HD
ENDBRANCH  28  30
ENDBRANCH  10  28
TORSDOF 6
ENDMDL
MODEL 2
REMARK VINA RESULT:      -7.1      4.195      8.939
REMARK  Name = 
REMARK  7 active torsions:
REMARK  status: ('A' for Active; 'I' for Inactive)
REMARK    1  A    between atoms: C_1  and  C_2
REMARK    2  A    between atoms: C_2  and  C_3
REMARK    3  A    between atoms: C_3  and  N_4
REMARK    4  A    between atoms: N_8  and  C_9
REMARK    5  A    between atoms: C_18  and  C_19
REMARK    6  A    between atoms: C_19  and  O_21
REMARK    7  A    between atoms: N_23  and  C_24
REMARK                            x       y       z     vdW  Elec       q    Type
REMARK                         _______ _______ _______ _____ _____    ______ ____
ROOT
ATOM      1  C   UNL     1       1.176   8.825  19.907  0.00  0.00    +0.000 A 
ATOM      2  N   UNL     1       0.299   9.646  19.263  0.00  0.00    +0.000 NA
ATOM      3  C   UNL     1      -0.486  10.497  19.980  0.00  0.00    +0.000 A 
ATOM      4  C   UNL     1      -0.382  10.566  21.372  0.00  0.00    +0.000 A 
ATOM      5  C   UNL     1       0.531   9.766  22.042  0.00  0.00    +0.000 A 
ATOM      6  C   UNL     1       1.309   8.894  21.302  0.00  0.00    +0.000 A 
ATOM      7  F   UNL     1       2.206   8.147  21.963  0.00  0.00    +0.000 F 
ATOM      8  C   UNL     1      -1.261  11.463  22.143  0.00  0.00    +0.000 A 
ATOM      9  O   UNL     1      -1.164  11.562  23.363  0.00  0.00    +0.000 OA
ATOM     10  C   UNL     1      -2.286  12.240  21.422  0.00  0.00    +0.000 A 
ATOM     11  C   UNL     1      -2.319  12.100  20.090  0.00  0.00    +0.000 A 
ATOM     12  N   UNL     1      -1.459  11.325  19.332  0.00  0.00    +0.000 N 
ENDROOT
BRANCH   1  18
ATOM     13  C   UNL     1       5.116   5.770  15.877  0.00  0.00    +0.000 C 
ATOM     14  C   UNL     1       4.610   5.403  17.254  0.00  0.00    +0.000 C 
ATOM     15  C   UNL     1       4.022   6.320  18.063  0.00  0.00    +0.000 C 
ATOM     16  C   UNL     1       3.815   7.774  17.669  0.00  0.00    +0.000 C 
ATOM     17  C   UNL     1       2.343   8.190  17.797  0.00  0.00    +0.000 C 
ATOM     18  N   UNL     1       1.869   7.903  19.151  0.00  0.00    +0.000 N 
ATOM     19  C   UNL     1       2.013   6.522  19.613  0.00  0.00    +0.000 C 
ATOM     20  C   UNL     1       3.468   6.044  19.456  0.00  0.00    +0.000 C 
BRANCH  14  21
ATOM     21  C   UNL     1       4.855   3.967  17.643  0.00  0.00    +0.000 C 
BRANCH  21  22
ATOM     22  N   UNL     1       6.019   3.873  18.514  0.00  0.00    +0.000 NA
ATOM     23  H   UNL     1       6.252   2.890  18.638  0.00  0.00    +0.000 HD
ATOM     24  H   UNL     1       5.768   4.221  19.437  0.00  0.00    +0.000 HD
ENDBRANCH  21  22
ENDBRANCH  14  21
ENDBRANCH   1  18
BRANCH  12  25
ATOM     25  C   UNL     1      -1.703  11.160  17.885  0.00  0.00    +0.000 C 
ATOM     26  C   UNL     1      -2.522  10.037  17.292  0.00  0.00    +0.000 C 
ATOM     27  C   UNL     1      -3.062  11.433  17.292  0.00  0.00    +0.000 C 
ENDBRANCH  12  25
BRANCH  10  28
ATOM     28  C   UNL     1      -3.254  13.131  22.092  0.00  0.00    +0.000 C 
ATOM     29  O   UNL     1      -3.316  14.334  21.882  0.00  0.00    +0.000 OA
BRANCH  28  30
ATOM     30  O   UNL     1      -4.080  12.512  22.964  0.00  0.00    +0.000 OA
ATOM     31  H   UNL     1      -4.959  12.265  22.586  0.00  0.00    +0.000 HD
ENDBRANCH  28  30
ENDBRANCH  10  28
TORSDOF 6
ENDMDL
MODEL 3
REMARK VINA RESULT:      -7.1      2.598      3.780
REMARK  Name = 
REMARK  7 active torsions:
REMARK  status: ('A' for Active; 'I' for Inactive)
REMARK    1  A    between atoms: C_1  and  C_2
REMARK    2  A    between atoms: C_2  and  C_3
REMARK    3  A    between atoms: C_3  and  N_4
REMARK    4  A    between atoms: N_8  and  C_9
REMARK    5  A    between atoms: C_18  and  C_19
REMARK    6  A    between atoms: C_19  and  O_21
REMARK    7  A    between atoms: N_23  and  C_24
REMARK                            x       y       z     vdW  Elec       q    Type
REMARK                         _______ _______ _______ _____ _____    ______ ____
ROOT
ATOM      1  C   UNL     1       1.522   8.215  19.946  0.00  0.00    +0.000 A 
ATOM      2  N   UNL     1       2.370   7.704  19.009  0.00  0.00    +0.000 NA
ATOM      3  C   UNL     1       2.714   6.387  19.050  0.00  0.00    +0.000 A 
ATOM      4  C   UNL     1       2.180   5.538  20.024  0.00  0.00    +0.000 A 
ATOM      5  C   UNL     1       1.285   6.031  20.962  0.00  0.00    +0.000 A 
ATOM      6  C   UNL     1       0.961   7.374  20.918  0.00  0.00    +0.000 A 
ATOM      7  F   UNL     1       0.073   7.829  21.817  0.00  0.00    +0.000 F 
ATOM      8  C   UNL     1       2.585   4.122  20.083  0.00  0.00    +0.000 A 
ATOM      9  O   UNL     1       2.104   3.352  20.910  0.00  0.00    +0.000 OA
ATOM     10  C   UNL     1       3.603   3.638  19.133  0.00  0.00    +0.000 A 
ATOM     11  C   UNL     1       4.067   4.527  18.244  0.00  0.00    +0.000 A 
ATOM     12  N   UNL     1       3.651   5.840  18.115  0.00  0.00    +0.000 N 
ENDROOT
BRANCH   1  18
ATOM     13  C   UNL     1      -0.275  14.217  18.589  0.00  0.00    +0.000 C 
ATOM     14  C   UNL     1      -0.187  13.471  19.900  0.00  0.00    +0.000 C 
ATOM     15  C   UNL     1      -0.069  12.120  19.943  0.00  0.00    +0.000 C 
ATOM     16  C   UNL     1      -0.011  11.244  18.701  0.00  0.00    +0.000 C 
ATOM     17  C   UNL     1       1.239  10.353  18.695  0.00  0.00    +0.000 C 
ATOM     18  N   UNL     1       1.291   9.574  19.932  0.00  0.00    +0.000 N 
ATOM     19  C   UNL     1       1.257  10.334  21.183  0.00  0.00    +0.000 C 
ATOM     20  C   UNL     1       0.043  11.282  21.212  0.00  0.00    +0.000 C 
BRANCH  14  21
ATOM     21  C   UNL     1      -0.281  14.349  21.123  0.00  0.00    +0.000 C 
BRANCH  21  22
ATOM     22  N   UNL     1       1.041  14.554  21.698  0.00  0.00    +0.000 NA
ATOM     23  H   UNL     1       0.970  15.256  22.432  0.00  0.00    +0.000 HD
ATOM     24  H   UNL     1       1.651  14.954  20.987  0.00  0.00    +0.000 HD
ENDBRANCH  21  22
ENDBRANCH  14  21
ENDBRANCH   1  18
BRANCH  12  25
ATOM     25  C   UNL     1       4.351   6.742  17.179  0.00  0.00    +0.000 C 
ATOM     26  C   UNL     1       5.851   6.927  17.150  0.00  0.00    +0.000 C 
ATOM     27  C   UNL     1       5.170   6.192  16.039  0.00  0.00    +0.000 C 
ENDBRANCH  12  25
BRANCH  10  28
ATOM     28  C   UNL     1       4.123   2.256  19.131  0.00  0.00    +0.000 C 
ATOM     29  O   UNL     1       3.657   1.365  18.435  0.00  0.00    +0.000 OA
BRANCH  28  30
ATOM     30  O   UNL     1       5.166   2.044  19.963  0.00  0.00    +0.000 OA
ATOM     31  H   UNL     1       5.197   1.136  20.352  0.00  0.00    +0.000 HD
ENDBRANCH  28  30
ENDBRANCH  10  28
TORSDOF 6
ENDMDL
MODEL 4
REMARK VINA RESULT:      -7.1      3.588      8.060
REMARK  Name = 
REMARK  7 active torsions:
REMARK  status: ('A' for Active; 'I' for Inactive)
REMARK    1  A    between atoms: C_1  and  C_2
REMARK    2  A    between atoms: C_2  and  C_3
REMARK    3  A    between atoms: C_3  and  N_4
REMARK    4  A    between atoms: N_8  and  C_9
REMARK    5  A    between atoms: C_18  and  C_19
REMARK    6  A    between atoms: C_19  and  O_21
REMARK    7  A    between atoms: N_23  and  C_24
REMARK                            x       y       z     vdW  Elec       q    Type
REMARK                         _______ _______ _______ _____ _____    ______ ____
ROOT
ATOM      1  C   UNL     1       1.787   8.195  19.078  0.00  0.00    +0.000 A 
ATOM      2  N   UNL     1       0.905   8.788  19.931  0.00  0.00    +0.000 NA
ATOM      3  C   UNL     1       0.661  10.125  19.835  0.00  0.00    +0.000 A 
ATOM      4  C   UNL     1       1.279  10.896  18.846  0.00  0.00    +0.000 A 
ATOM      5  C   UNL     1       2.150  10.304  17.945  0.00  0.00    +0.000 A 
ATOM      6  C   UNL     1       2.402   8.949  18.067  0.00  0.00    +0.000 A 
ATOM      7  F   UNL     1       3.227   8.387  17.170  0.00  0.00    +0.000 F 
ATOM      8  C   UNL     1       1.037  12.348  18.773  0.00  0.00    +0.000 A 
ATOM      9  O   UNL     1       1.545  13.038  17.893  0.00  0.00    +0.000 OA
ATOM     10  C   UNL     1       0.177  12.975  19.793  0.00  0.00    +0.000 A 
ATOM     11  C   UNL     1      -0.361  12.157  20.708  0.00  0.00    +0.000 A 
ATOM     12  N   UNL     1      -0.214  10.783  20.758  0.00  0.00    +0.000 N 
ENDROOT
BRANCH   1  18
ATOM     13  C   UNL     1       2.124   2.125  21.110  0.00  0.00    +0.000 C 
ATOM     14  C   UNL     1       2.218   2.724  19.725  0.00  0.00    +0.000 C 
ATOM     15  C   UNL     1       1.825   3.998  19.473  0.00  0.00    +0.000 C 
ATOM     16  C   UNL     1       1.268   4.929  20.539  0.00  0.00    +0.000 C 
ATOM     17  C   UNL     1       2.056   6.245  20.607  0.00  0.00    +0.000 C 
ATOM     18  N   UNL     1       2.087   6.865  19.283  0.00  0.00    +0.000 N 
ATOM     19  C   UNL     1       2.623   6.049  18.193  0.00  0.00    +0.000 C 
ATOM     20  C   UNL     1       1.895   4.693  18.119  0.00  0.00    +0.000 C 
BRANCH  14  21
ATOM     21  C   UNL     1       2.738   1.777  18.672  0.00  0.00    +0.000 C 
BRANCH  21  22
ATOM     22  N   UNL     1       4.192   1.829  18.623  0.00  0.00    +0.000 NA
ATOM     23  H   UNL     1       4.521   1.094  18.000  0.00  0.00    +0.000 HD
ATOM     24  H   UNL     1       4.560   1.600  19.545  0.00  0.00    +0.000 HD
ENDBRANCH  21  22
ENDBRANCH  14  21
ENDBRANCH   1  18
BRANCH  12  25
ATOM     25  C   UNL     1      -0.755  10.029  21.907  0.00  0.00    +0.000 C 
ATOM     26  C   UNL     1       0.018   9.758  23.177  0.00  0.00    +0.000 C 
ATOM     27  C   UNL     1      -1.122  10.728  23.191  0.00  0.00    +0.000 C 
ENDBRANCH  12  25
BRANCH  10  28
ATOM     28  C   UNL     1      -0.095  14.425  19.851  0.00  0.00    +0.000 C 
ATOM     29  O   UNL     1       0.156  15.116  20.828  0.00  0.00    +0.000 OA
BRANCH  28  30
ATOM     30  O   UNL     1      -0.648  14.939  18.731  0.00  0.00    +0.000 OA
ATOM     31  H   UNL     1      -0.911  14.263  18.060  0.00  0.00    +0.000 HD
ENDBRANCH  28  30
ENDBRANCH  10  28
TORSDOF 6
ENDMDL
MODEL 5
REMARK VINA RESULT:      -7.0      0.928      1.516
REMARK  Name = 
REMARK  7 active torsions:
REMARK  status: ('A' for Active; 'I' for Inactive)
REMARK    1  A    between atoms: C_1  and  C_2
REMARK    2  A    between atoms: C_2  and  C_3
REMARK    3  A    between atoms: C_3  and  N_4
REMARK    4  A    between atoms: N_8  and  C_9
REMARK    5  A    between atoms: C_18  and  C_19
REMARK    6  A    between atoms: C_19  and  O_21
REMARK    7  A    between atoms: N_23  and  C_24
REMARK                            x       y       z     vdW  Elec       q    Type
REMARK                         _______ _______ _______ _____ _____    ______ ____
ROOT
ATOM      1  C   UNL     1       1.873   8.763  19.315  0.00  0.00    +0.000 A 
ATOM      2  N   UNL     1       1.968   7.514  19.852  0.00  0.00    +0.000 NA
ATOM      3  C   UNL     1       2.663   6.543  19.196  0.00  0.00    +0.000 A 
ATOM      4  C   UNL     1       3.314   6.820  17.990  0.00  0.00    +0.000 A 
ATOM      5  C   UNL     1       3.262   8.095  17.447  0.00  0.00    +0.000 A 
ATOM      6  C   UNL     1       2.536   9.064  18.115  0.00  0.00    +0.000 A 
ATOM      7  F   UNL     1       2.518  10.299  17.590  0.00  0.00    +0.000 F 
ATOM      8  C   UNL     1       4.034   5.754  17.270  0.00  0.00    +0.000 A 
ATOM      9  O   UNL     1       4.639   5.984  16.225  0.00  0.00    +0.000 OA
ATOM     10  C   UNL     1       4.005   4.386  17.817  0.00  0.00    +0.000 A 
ATOM     11  C   UNL     1       3.345   4.215  18.971  0.00  0.00    +0.000 A 
ATOM     12  N   UNL     1       2.725   5.207  19.708  0.00  0.00    +0.000 N 
ENDROOT
BRANCH   1  18
ATOM     13  C   UNL     1      -2.687  12.931  21.024  0.00  0.00    +0.000 C 
ATOM     14  C   UNL     1      -1.932  11.891  21.819  0.00  0.00    +0.000 C 
ATOM     15  C   UNL     1      -1.221  10.908  21.211  0.00  0.00    +0.000 C 
ATOM     16  C   UNL     1      -1.113  10.765  19.701  0.00  0.00    +0.000 C 
ATOM     17  C   UNL     1       0.351  10.736  19.240  0.00  0.00    +0.000 C 
ATOM     18  N   UNL     1       1.069   9.681  19.955  0.00  0.00    +0.000 N 
ATOM     19  C   UNL     1       1.034   9.745  21.417  0.00  0.00    +0.000 C 
ATOM     20  C   UNL     1      -0.418   9.828  21.925  0.00  0.00    +0.000 C 
BRANCH  14  21
ATOM     21  C   UNL     1      -2.078  12.025  23.314  0.00  0.00    +0.000 C 
BRANCH  21  22
ATOM     22  N   UNL     1      -3.486  11.995  23.687  0.00  0.00    +0.000 NA
ATOM     23  H   UNL     1      -3.592  11.395  24.503  0.00  0.00    +0.000 HD
ATOM     24  H   UNL     1      -4.014  11.548  22.941  0.00  0.00    +0.000 HD
ENDBRANCH  21  22
ENDBRANCH  14  21
ENDBRANCH   1  18
BRANCH  12  25
ATOM     25  C   UNL     1       1.919   4.846  20.891  0.00  0.00    +0.000 C 
ATOM     26  C   UNL     1       0.935   3.700  20.922  0.00  0.00    +0.000 C 
ATOM     27  C   UNL     1       2.219   3.599  21.683  0.00  0.00    +0.000 C 
ENDBRANCH  12  25
BRANCH  10  28
ATOM     28  C   UNL     1       4.645   3.230  17.157  0.00  0.00    +0.000 C 
ATOM     29  O   UNL     1       4.188   2.096  17.199  0.00  0.00    +0.000 OA
BRANCH  28  30
ATOM     30  O   UNL     1       5.785   3.520  16.493  0.00  0.00    +0.000 OA
ATOM     31  H   UNL     1       5.729   4.325  15.921  0.00  0.00    +0.000 HD
ENDBRANCH  28  30
ENDBRANCH  10  28
TORSDOF 6
ENDMDL
MODEL 6
REMARK VINA RESULT:      -7.0      4.311      8.806
REMARK  Name = 
REMARK  7 active torsions:
REMARK  status: ('A' for Active; 'I' for Inactive)
REMARK    1  A    between atoms: C_1  and  C_2
REMARK    2  A    between atoms: C_2  and  C_3
REMARK    3  A    between atoms: C_3  and  N_4
REMARK    4  A    between atoms: N_8  and  C_9
REMARK    5  A    between atoms: C_18  and  C_19
REMARK    6  A    between atoms: C_19  and  O_21
REMARK    7  A    between atoms: N_23  and  C_24
REMARK                            x       y       z     vdW  Elec       q    Type
REMARK                         _______ _______ _______ _____ _____    ______ ____
ROOT
ATOM      1  C   UNL     1       1.009   8.865  20.390  0.00  0.00    +0.000 A 
ATOM      2  N   UNL     1       0.195   9.428  19.453  0.00  0.00    +0.000 NA
ATOM      3  C   UNL     1      -0.626  10.458  19.797  0.00  0.00    +0.000 A 
ATOM      4  C   UNL     1      -0.623  10.973  21.097  0.00  0.00    +0.000 A 
ATOM      5  C   UNL     1       0.226  10.439  22.055  0.00  0.00    +0.000 A 
ATOM      6  C   UNL     1       1.041   9.381  21.694  0.00  0.00    +0.000 A 
ATOM      7  F   UNL     1       1.875   8.894  22.626  0.00  0.00    +0.000 F 
ATOM      8  C   UNL     1      -1.541  12.064  21.469  0.00  0.00    +0.000 A 
ATOM      9  O   UNL     1      -1.532  12.551  22.597  0.00  0.00    +0.000 OA
ATOM     10  C   UNL     1      -2.497  12.559  20.463  0.00  0.00    +0.000 A 
ATOM     11  C   UNL     1      -2.435  11.996  19.248  0.00  0.00    +0.000 A 
ATOM     12  N   UNL     1      -1.535  11.025  18.847  0.00  0.00    +0.000 N 
ENDROOT
BRANCH   1  18
ATOM     13  C   UNL     1       3.350   2.966  19.487  0.00  0.00    +0.000 C 
ATOM     14  C   UNL     1       3.270   4.163  18.568  0.00  0.00    +0.000 C 
ATOM     15  C   UNL     1       2.471   5.223  18.849  0.00  0.00    +0.000 C 
ATOM     16  C   UNL     1       1.601   5.310  20.093  0.00  0.00    +0.000 C 
ATOM     17  C   UNL     1       1.888   6.587  20.895  0.00  0.00    +0.000 C 
ATOM     18  N   UNL     1       1.740   7.755  20.026  0.00  0.00    +0.000 N 
ATOM     19  C   UNL     1       2.553   7.767  18.808  0.00  0.00    +0.000 C 
ATOM     20  C   UNL     1       2.335   6.478  17.994  0.00  0.00    +0.000 C 
BRANCH  14  21
ATOM     21  C   UNL     1       4.110   4.046  17.321  0.00  0.00    +0.000 C 
BRANCH  21  22
ATOM     22  N   UNL     1       5.520   3.947  17.672  0.00  0.00    +0.000 NA
ATOM     23  H   UNL     1       5.901   3.104  17.247  0.00  0.00    +0.000 HD
ATOM     24  H   UNL     1       5.599   3.813  18.678  0.00  0.00    +0.000 HD
ENDBRANCH  21  22
ENDBRANCH  14  21
ENDBRANCH   1  18
BRANCH  12  25
ATOM     25  C   UNL     1      -1.676  10.401  17.516  0.00  0.00    +0.000 C 
ATOM     26  C   UNL     1      -2.903   9.643  17.066  0.00  0.00    +0.000 C 
ATOM     27  C   UNL     1      -2.600  10.986  16.478  0.00  0.00    +0.000 C 
ENDBRANCH  12  25
BRANCH  10  28
ATOM     28  C   UNL     1      -3.497  13.610  20.736  0.00  0.00    +0.000 C 
ATOM     29  O   UNL     1      -4.575  13.389  21.270  0.00  0.00    +0.000 OA
BRANCH  28  30
ATOM     30  O   UNL     1      -3.131  14.852  20.349  0.00  0.00    +0.000 OA
ATOM     31  H   UNL     1      -2.334  14.876  19.764  0.00  0.00    +0.000 HD
ENDBRANCH  28  30
ENDBRANCH  10  28
TORSDOF 6
ENDMDL
MODEL 7
REMARK VINA RESULT:      -6.8      4.106      8.961
REMARK  Name = 
REMARK  7 active torsions:
REMARK  status: ('A' for Active; 'I' for Inactive)
REMARK    1  A    between atoms: C_1  and  C_2
REMARK    2  A    between atoms: C_2  and  C_3
REMARK    3  A    between atoms: C_3  and  N_4
REMARK    4  A    between atoms: N_8  and  C_9
REMARK    5  A    between atoms: C_18  and  C_19
REMARK    6  A    between atoms: C_19  and  O_21
REMARK    7  A    between atoms: N_23  and  C_24
REMARK                            x       y       z     vdW  Elec       q    Type
REMARK                         _______ _______ _______ _____ _____    ______ ____
ROOT
ATOM      1  C   UNL     1       1.661   8.158  19.804  0.00  0.00    +0.000 A 
ATOM      2  N   UNL     1       1.163   9.377  19.454  0.00  0.00    +0.000 NA
ATOM      3  C   UNL     1       0.447  10.103  20.357  0.00  0.00    +0.000 A 
ATOM      4  C   UNL     1       0.243   9.630  21.656  0.00  0.00    +0.000 A 
ATOM      5  C   UNL     1       0.775   8.409  22.044  0.00  0.00    +0.000 A 
ATOM      6  C   UNL     1       1.484   7.675  21.110  0.00  0.00    +0.000 A 
ATOM      7  F   UNL     1       2.015   6.509  21.509  0.00  0.00    +0.000 F 
ATOM      8  C   UNL     1      -0.563  10.406  22.615  0.00  0.00    +0.000 A 
ATOM      9  O   UNL     1      -0.727  10.023  23.771  0.00  0.00    +0.000 OA
ATOM     10  C   UNL     1      -1.194  11.657  22.159  0.00  0.00    +0.000 A 
ATOM     11  C   UNL     1      -0.953  12.024  20.893  0.00  0.00    +0.000 A 
ATOM     12  N   UNL     1      -0.140  11.358  19.994  0.00  0.00    +0.000 N 
ENDROOT
BRANCH   1  18
ATOM     13  C   UNL     1       5.424   5.913  15.125  0.00  0.00    +0.000 C 
ATOM     14  C   UNL     1       4.816   5.236  16.332  0.00  0.00    +0.000 C 
ATOM     15  C   UNL     1       4.296   5.951  17.361  0.00  0.00    +0.000 C 
ATOM     16  C   UNL     1       4.270   7.471  17.397  0.00  0.00    +0.000 C 
ATOM     17  C   UNL     1       2.849   8.008  17.618  0.00  0.00    +0.000 C 
ATOM     18  N   UNL     1       2.283   7.410  18.827  0.00  0.00    +0.000 N 
ATOM     19  C   UNL     1       2.250   5.948  18.877  0.00  0.00    +0.000 C 
ATOM     20  C   UNL     1       3.649   5.362  18.609  0.00  0.00    +0.000 C 
BRANCH  14  21
ATOM     21  C   UNL     1       4.880   3.730  16.299  0.00  0.00    +0.000 C 
BRANCH  21  22
ATOM     22  N   UNL     1       6.131   3.293  15.695  0.00  0.00    +0.000 NA
ATOM     23  H   UNL     1       6.754   2.975  16.434  0.00  0.00    +0.000 HD
ATOM     24  H   UNL     1       6.589   4.097  15.269  0.00  0.00    +0.000 HD
ENDBRANCH  21  22
ENDBRANCH  14  21
ENDBRANCH   1  18
BRANCH  12  25
ATOM     25  C   UNL     1      -0.078  11.808  18.589  0.00  0.00    +0.000 C 
ATOM     26  C   UNL     1      -1.295  12.025  17.720  0.00  0.00    +0.000 C 
ATOM     27  C   UNL     1      -0.504  13.201  18.201  0.00  0.00    +0.000 C 
ENDBRANCH  12  25
BRANCH  10  28
ATOM     28  C   UNL     1      -2.064  12.490  23.014  0.00  0.00    +0.000 C 
ATOM     29  O   UNL     1      -1.826  13.661  23.273  0.00  0.00    +0.000 OA
BRANCH  28  30
ATOM     30  O   UNL     1      -3.157  11.857  23.493  0.00  0.00    +0.000 OA
ATOM     31  H   UNL     1      -2.985  11.300  24.291  0.00  0.00    +0.000 HD
ENDBRANCH  28  30
ENDBRANCH  10  28
TORSDOF 6
ENDMDL
MODEL 8
REMARK VINA RESULT:      -6.8      2.820      4.071
REMARK  Name = 
REMARK  7 active torsions:
REMARK  status: ('A' for Active; 'I' for Inactive)
REMARK    1  A    between atoms: C_1  and  C_2
REMARK    2  A    between atoms: C_2  and  C_3
REMARK    3  A    between atoms: C_3  and  N_4
REMARK    4  A    between atoms: N_8  and  C_9
REMARK    5  A    between atoms: C_18  and  C_19
REMARK    6  A    between atoms: C_19  and  O_21
REMARK    7  A    between atoms: N_23  and  C_24
REMARK                            x       y       z     vdW  Elec       q    Type
REMARK                         _______ _______ _______ _____ _____    ______ ____
ROOT
ATOM      1  C   UNL     1       1.523   8.299  19.717  0.00  0.00    +0.000 A 
ATOM      2  N   UNL     1       2.382   7.728  18.826  0.00  0.00    +0.000 NA
ATOM      3  C   UNL     1       2.790   6.440  19.004  0.00  0.00    +0.000 A 
ATOM      4  C   UNL     1       2.310   5.680  20.075  0.00  0.00    +0.000 A 
ATOM      5  C   UNL     1       1.405   6.230  20.970  0.00  0.00    +0.000 A 
ATOM      6  C   UNL     1       1.015   7.544  20.786  0.00  0.00    +0.000 A 
ATOM      7  F   UNL     1       0.119   8.052  21.645  0.00  0.00    +0.000 F 
ATOM      8  C   UNL     1       2.785   4.299  20.280  0.00  0.00    +0.000 A 
ATOM      9  O   UNL     1       2.352   3.604  21.195  0.00  0.00    +0.000 OA
ATOM     10  C   UNL     1       3.812   3.761  19.371  0.00  0.00    +0.000 A 
ATOM     11  C   UNL     1       4.220   4.569  18.382  0.00  0.00    +0.000 A 
ATOM     12  N   UNL     1       3.740   5.839  18.118  0.00  0.00    +0.000 N 
ENDROOT
BRANCH   1  18
ATOM     13  C   UNL     1       0.247  14.532  20.496  0.00  0.00    +0.000 C 
ATOM     14  C   UNL     1       1.037  13.796  19.438  0.00  0.00    +0.000 C 
ATOM     15  C   UNL     1       1.439  12.513  19.615  0.00  0.00    +0.000 C 
ATOM     16  C   UNL     1       1.135  11.705  20.867  0.00  0.00    +0.000 C 
ATOM     17  C   UNL     1       0.427  10.385  20.530  0.00  0.00    +0.000 C 
ATOM     18  N   UNL     1       1.225   9.635  19.560  0.00  0.00    +0.000 N 
ATOM     19  C   UNL     1       1.554  10.328  18.313  0.00  0.00    +0.000 C 
ATOM     20  C   UNL     1       2.223  11.684  18.604  0.00  0.00    +0.000 C 
BRANCH  14  21
ATOM     21  C   UNL     1       1.361  14.622  18.218  0.00  0.00    +0.000 C 
BRANCH  21  22
ATOM     22  N   UNL     1       2.587  15.379  18.434  0.00  0.00    +0.000 NA
ATOM     23  H   UNL     1       2.508  15.878  19.317  0.00  0.00    +0.000 HD
ATOM     24  H   UNL     1       2.662  16.094  17.714  0.00  0.00    +0.000 HD
ENDBRANCH  21  22
ENDBRANCH  14  21
ENDBRANCH   1  18
BRANCH  12  25
ATOM     25  C   UNL     1       4.383   6.664  17.076  0.00  0.00    +0.000 C 
ATOM     26  C   UNL     1       5.860   6.983  17.046  0.00  0.00    +0.000 C 
ATOM     27  C   UNL     1       5.281   6.041  16.038  0.00  0.00    +0.000 C 
ENDBRANCH  12  25
BRANCH  10  28
ATOM     28  C   UNL     1       4.399   2.414  19.510  0.00  0.00    +0.000 C 
ATOM     29  O   UNL     1       5.148   2.099  20.424  0.00  0.00    +0.000 OA
BRANCH  28  30
ATOM     30  O   UNL     1       4.043   1.541  18.541  0.00  0.00    +0.000 OA
ATOM     31  H   UNL     1       4.311   0.606  18.719  0.00  0.00    +0.000 HD
ENDBRANCH  28  30
ENDBRANCH  10  28
TORSDOF 6
ENDMDL
MODEL 9
REMARK VINA RESULT:      -6.7      3.592      8.293
REMARK  Name = 
REMARK  7 active torsions:
REMARK  status: ('A' for Active; 'I' for Inactive)
REMARK    1  A    between atoms: C_1  and  C_2
REMARK    2  A    between atoms: C_2  and  C_3
REMARK    3  A    between atoms: C_3  and  N_4
REMARK    4  A    between atoms: N_8  and  C_9
REMARK    5  A    between atoms: C_18  and  C_19
REMARK    6  A    between atoms: C_19  and  O_21
REMARK    7  A    between atoms: N_23  and  C_24
REMARK                            x       y       z     vdW  Elec       q    Type
REMARK                         _______ _______ _______ _____ _____    ______ ____
ROOT
ATOM      1  C   UNL     1       1.889   7.943  18.872  0.00  0.00    +0.000 A 
ATOM      2  N   UNL     1       1.055   8.516  19.785  0.00  0.00    +0.000 NA
ATOM      3  C   UNL     1       0.835   9.860  19.755  0.00  0.00    +0.000 A 
ATOM      4  C   UNL     1       1.428  10.660  18.775  0.00  0.00    +0.000 A 
ATOM      5  C   UNL     1       2.250  10.091  17.814  0.00  0.00    +0.000 A 
ATOM      6  C   UNL     1       2.477   8.728  17.869  0.00  0.00    +0.000 A 
ATOM      7  F   UNL     1       3.253   8.188  16.915  0.00  0.00    +0.000 F 
ATOM      8  C   UNL     1       1.214  12.119  18.773  0.00  0.00    +0.000 A 
ATOM      9  O   UNL     1       1.701  12.836  17.902  0.00  0.00    +0.000 OA
ATOM     10  C   UNL     1       0.410  12.717  19.853  0.00  0.00    +0.000 A 
ATOM     11  C   UNL     1      -0.108  11.872  20.755  0.00  0.00    +0.000 A 
ATOM     12  N   UNL     1       0.013  10.494  20.741  0.00  0.00    +0.000 N 
ENDROOT
BRANCH   1  18
ATOM     13  C   UNL     1       3.405   1.775  18.007  0.00  0.00    +0.000 C 
ATOM     14  C   UNL     1       3.735   2.740  19.123  0.00  0.00    +0.000 C 
ATOM     15  C   UNL     1       3.573   4.079  18.976  0.00  0.00    +0.000 C 
ATOM     16  C   UNL     1       3.050   4.724  17.702  0.00  0.00    +0.000 C 
ATOM     17  C   UNL     1       1.832   5.616  17.979  0.00  0.00    +0.000 C 
ATOM     18  N   UNL     1       2.168   6.600  19.008  0.00  0.00    +0.000 N 
ATOM     19  C   UNL     1       2.666   6.070  20.278  0.00  0.00    +0.000 C 
ATOM     20  C   UNL     1       3.861   5.127  20.045  0.00  0.00    +0.000 C 
BRANCH  14  21
ATOM     21  C   UNL     1       4.285   2.088  20.367  0.00  0.00    +0.000 C 
BRANCH  21  22
ATOM     22  N   UNL     1       5.245   1.053  20.010  0.00  0.00    +0.000 NA
ATOM     23  H   UNL     1       5.270   0.971  18.995  0.00  0.00    +0.000 HD
ATOM     24  H   UNL     1       4.906   0.157  20.355  0.00  0.00    +0.000 HD
ENDBRANCH  21  22
ENDBRANCH  14  21
ENDBRANCH   1  18
BRANCH  12  25
ATOM     25  C   UNL     1      -0.497   9.702  21.878  0.00  0.00    +0.000 C 
ATOM     26  C   UNL     1       0.275   9.468  23.156  0.00  0.00    +0.000 C 
ATOM     27  C   UNL     1      -0.918  10.371  23.163  0.00  0.00    +0.000 C 
ENDBRANCH  12  25
BRANCH  10  28
ATOM     28  C   UNL     1       0.171  14.169  19.983  0.00  0.00    +0.000 C 
ATOM     29  O   UNL     1       0.892  14.912  20.633  0.00  0.00    +0.000 OA
BRANCH  28  30
ATOM     30  O   UNL     1      -0.917  14.622  19.322  0.00  0.00    +0.000 OA
ATOM     31  H   UNL     1      -1.118  15.577  19.479  0.00  0.00    +0.000 HD
ENDBRANCH  28  30
ENDBRANCH  10  28
TORSDOF 6
ENDMDL
